MODEL 1
REMARK VINA RESULT:    -4.675      0.000      0.000
REMARK INTER + INTRA:         -10.108
REMARK INTER:                  -7.408
REMARK INTRA:                  -2.700
REMARK UNBOUND:                -2.700
REMARK  20 active torsions:
REMARK  status: ('A' for Active; 'I' for Inactive)
REMARK    1  A    between atoms: C1_1  and  O1_20 
REMARK    2  A    between atoms: C4_4  and  C9_9 
REMARK    3  A    between atoms: C7_7  and  C8_8 
REMARK    4  A    between atoms: C7_7  and  O1_20 
REMARK    5  A    between atoms: C8_8  and  C10_10 
REMARK    6  A    between atoms: C10_10  and  C8'_18 
REMARK    7  A    between atoms: C1'_11  and  O1'_21 
REMARK    8  A    between atoms: C4'_14  and  C9'_19 
REMARK    9  A    between atoms: C7'_17  and  C8'_18 
REMARK   10  A    between atoms: C7'_17  and  O1'_21 
REMARK   11  A    between atoms: C1@A_26  and  O1@A_45 
REMARK   12  A    between atoms: C4@A_29  and  C9@A_34 
REMARK   13  A    between atoms: C7@A_32  and  C8@A_33 
REMARK   14  A    between atoms: C7@A_32  and  O1@A_45 
REMARK   15  A    between atoms: C8@A_33  and  C10@A_35 
REMARK   16  A    between atoms: C10@A_35  and  C8'@A_43 
REMARK   17  A    between atoms: C1'@A_36  and  O1'@A_46 
REMARK   18  A    between atoms: C4'@A_39  and  C9'@A_44 
REMARK   19  A    between atoms: C7'@A_42  and  C8'@A_43 
REMARK   20  A    between atoms: C7'@A_42  and  O1'@A_46 
ROOT
HETATM    1  C10   D T  94     -13.072 -13.130  22.766  0.50 67.66     0.005 C 
ENDROOT
BRANCH   1   2
HETATM    2  C8    D T  94     -12.988 -14.477  23.451  0.50 68.37     0.033 C 
BRANCH   2   3
HETATM    3  C7    D T  94     -11.919 -15.298  22.747  0.50 67.29     0.149 C 
BRANCH   3   4
HETATM    4  O1    D T  94     -12.392 -15.728  21.503  0.50 67.79    -0.331 OA
BRANCH   4   5
HETATM    5  C1    D T  94     -11.555 -15.995  20.453  0.50 68.34     0.094 A 
HETATM    6  C2    D T  94     -10.187 -15.758  20.477  0.50 67.57     0.024 A 
HETATM    7  C3    D T  94      -9.369 -16.043  19.398  0.50 67.80     0.005 A 
HETATM    8  C4    D T  94      -9.941 -16.592  18.268  0.50 68.01     0.040 A 
HETATM    9  C5    D T  94     -11.304 -16.823  18.226  0.50 67.86     0.005 A 
HETATM   10  C6    D T  94     -12.113 -16.534  19.310  0.50 68.10     0.024 A 
BRANCH   8  11
HETATM   11  C9    D T  94      -9.132 -16.929  17.062  0.50 68.61     0.205 C 
HETATM   12  N1    D T  94      -7.908 -16.648  17.002  0.50 69.27    -0.125 N 
HETATM   13  N2    D T  94      -9.710 -17.558  16.042  0.50 69.71    -0.125 N 
ENDBRANCH   8  11
ENDBRANCH   4   5
ENDBRANCH   3   4
ENDBRANCH   2   3
ENDBRANCH   1   2
BRANCH   1  14
HETATM   14  C8'   D T  94     -11.668 -12.579  22.596  0.50 66.82     0.033 C 
BRANCH  14  15
HETATM   15  C7'   D T  94     -11.571 -11.685  21.374  0.50 66.64     0.149 C 
BRANCH  15  16
HETATM   16  O1'   D T  94     -10.755 -12.249  20.376  0.50 65.96    -0.331 OA
BRANCH  16  17
HETATM   17  C1'   D T  94     -11.263 -12.648  19.162  0.50 66.90     0.094 A 
HETATM   18  C2'   D T  94     -12.609 -12.944  18.960  0.50 66.33     0.024 A 
HETATM   19  C3'   D T  94     -13.109 -13.363  17.736  0.50 66.35     0.005 A 
HETATM   20  C4'   D T  94     -12.232 -13.458  16.678  0.50 66.52     0.040 A 
HETATM   21  C5'   D T  94     -10.889 -13.170  16.862  0.50 66.57     0.005 A 
HETATM   22  C6'   D T  94     -10.399 -12.766  18.094  0.50 66.88     0.024 A 
BRANCH  20  23
HETATM   23  C9'   D T  94     -12.673 -13.898  15.321  0.50 67.13     0.205 C 
HETATM   24  N1'   D T  94     -13.278 -13.134  14.520  0.50 67.44    -0.125 N 
HETATM   25  N2'   D T  94     -12.408 -15.156  14.968  0.50 68.12    -0.125 N 
ENDBRANCH  20  23
ENDBRANCH  16  17
ENDBRANCH  15  16
ENDBRANCH  14  15
ENDBRANCH   1  14
TORSDOF 20
ENDMDL
MODEL 2
REMARK VINA RESULT:    -4.609      0.308      4.212
REMARK INTER + INTRA:         -10.002
REMARK INTER:                  -7.296
REMARK INTRA:                  -2.707
REMARK UNBOUND:                -2.700
REMARK  20 active torsions:
REMARK  status: ('A' for Active; 'I' for Inactive)
REMARK    1  A    between atoms: C1_1  and  O1_20 
REMARK    2  A    between atoms: C4_4  and  C9_9 
REMARK    3  A    between atoms: C7_7  and  C8_8 
REMARK    4  A    between atoms: C7_7  and  O1_20 
REMARK    5  A    between atoms: C8_8  and  C10_10 
REMARK    6  A    between atoms: C10_10  and  C8'_18 
REMARK    7  A    between atoms: C1'_11  and  O1'_21 
REMARK    8  A    between atoms: C4'_14  and  C9'_19 
REMARK    9  A    between atoms: C7'_17  and  C8'_18 
REMARK   10  A    between atoms: C7'_17  and  O1'_21 
REMARK   11  A    between atoms: C1@A_26  and  O1@A_45 
REMARK   12  A    between atoms: C4@A_29  and  C9@A_34 
REMARK   13  A    between atoms: C7@A_32  and  C8@A_33 
REMARK   14  A    between atoms: C7@A_32  and  O1@A_45 
REMARK   15  A    between atoms: C8@A_33  and  C10@A_35 
REMARK   16  A    between atoms: C10@A_35  and  C8'@A_43 
REMARK   17  A    between atoms: C1'@A_36  and  O1'@A_46 
REMARK   18  A    between atoms: C4'@A_39  and  C9'@A_44 
REMARK   19  A    between atoms: C7'@A_42  and  C8'@A_43 
REMARK   20  A    between atoms: C7'@A_42  and  O1'@A_46 
ROOT
HETATM    1  C10   D T  94     -12.728 -13.291  22.744  0.50 67.66     0.005 C 
ENDROOT
BRANCH   1   2
HETATM    2  C8    D T  94     -11.751 -12.136  22.774  0.50 68.37     0.033 C 
BRANCH   2   3
HETATM    3  C7    D T  94     -11.706 -11.520  21.385  0.50 67.29     0.149 C 
BRANCH   3   4
HETATM    4  O1    D T  94     -10.898 -12.295  20.547  0.50 67.79    -0.331 OA
BRANCH   4   5
HETATM    5  C1    D T  94     -11.292 -12.671  19.291  0.50 68.34     0.094 A 
HETATM    6  C2    D T  94     -10.421 -12.805  18.217  0.50 67.57     0.024 A 
HETATM    7  C3    D T  94     -10.854 -13.191  16.960  0.50 67.80     0.005 A 
HETATM    8  C4    D T  94     -12.196 -13.459  16.782  0.50 68.01     0.040 A 
HETATM    9  C5    D T  94     -13.076 -13.318  17.839  0.50 67.86     0.005 A 
HETATM   10  C6    D T  94     -12.633 -12.933  19.091  0.50 68.10     0.024 A 
BRANCH   8  11
HETATM   11  C9    D T  94     -12.744 -13.880  15.461  0.50 68.61     0.205 C 
HETATM   12  N1    D T  94     -13.533 -13.140  14.819  0.50 69.27    -0.125 N 
HETATM   13  N2    D T  94     -12.374 -15.048  14.941  0.50 69.71    -0.125 N 
ENDBRANCH   8  11
ENDBRANCH   4   5
ENDBRANCH   3   4
ENDBRANCH   2   3
ENDBRANCH   1   2
BRANCH   1  14
HETATM   14  C8'   D T  94     -12.293 -14.327  23.766  0.50 66.82     0.033 C 
BRANCH  14  15
HETATM   15  C7'   D T  94     -11.742 -15.569  23.092  0.50 66.64     0.149 C 
BRANCH  15  16
HETATM   16  O1'   D T  94     -12.288 -15.753  21.807  0.50 65.96    -0.331 OA
BRANCH  16  17
HETATM   17  C1'   D T  94     -11.496 -15.991  20.710  0.50 66.90     0.094 A 
HETATM   18  C2'   D T  94     -10.116 -15.804  20.711  0.50 66.33     0.024 A 
HETATM   19  C3'   D T  94      -9.327 -16.030  19.593  0.50 66.35     0.005 A 
HETATM   20  C4'   D T  94      -9.943 -16.486  18.449  0.50 66.52     0.040 A 
HETATM   21  C5'   D T  94     -11.317 -16.676  18.429  0.50 66.57     0.005 A 
HETATM   22  C6'   D T  94     -12.096 -16.432  19.549  0.50 66.88     0.024 A 
BRANCH  20  23
HETATM   23  C9'   D T  94      -9.182 -16.760  17.194  0.50 67.13     0.205 C 
HETATM   24  N1'   D T  94      -8.066 -16.227  16.943  0.50 67.44    -0.125 N 
HETATM   25  N2'   D T  94      -9.727 -17.603  16.318  0.50 68.12    -0.125 N 
ENDBRANCH  20  23
ENDBRANCH  16  17
ENDBRANCH  15  16
ENDBRANCH  14  15
ENDBRANCH   1  14
TORSDOF 20
ENDMDL
MODEL 3
REMARK VINA RESULT:    -4.578      1.876      5.372
REMARK INTER + INTRA:          -9.954
REMARK INTER:                  -7.954
REMARK INTRA:                  -2.000
REMARK UNBOUND:                -2.700
REMARK  20 active torsions:
REMARK  status: ('A' for Active; 'I' for Inactive)
REMARK    1  A    between atoms: C1_1  and  O1_20 
REMARK    2  A    between atoms: C4_4  and  C9_9 
REMARK    3  A    between atoms: C7_7  and  C8_8 
REMARK    4  A    between atoms: C7_7  and  O1_20 
REMARK    5  A    between atoms: C8_8  and  C10_10 
REMARK    6  A    between atoms: C10_10  and  C8'_18 
REMARK    7  A    between atoms: C1'_11  and  O1'_21 
REMARK    8  A    between atoms: C4'_14  and  C9'_19 
REMARK    9  A    between atoms: C7'_17  and  C8'_18 
REMARK   10  A    between atoms: C7'_17  and  O1'_21 
REMARK   11  A    between atoms: C1@A_26  and  O1@A_45 
REMARK   12  A    between atoms: C4@A_29  and  C9@A_34 
REMARK   13  A    between atoms: C7@A_32  and  C8@A_33 
REMARK   14  A    between atoms: C7@A_32  and  O1@A_45 
REMARK   15  A    between atoms: C8@A_33  and  C10@A_35 
REMARK   16  A    between atoms: C10@A_35  and  C8'@A_43 
REMARK   17  A    between atoms: C1'@A_36  and  O1'@A_46 
REMARK   18  A    between atoms: C4'@A_39  and  C9'@A_44 
REMARK   19  A    between atoms: C7'@A_42  and  C8'@A_43 
REMARK   20  A    between atoms: C7'@A_42  and  O1'@A_46 
ROOT
HETATM    1  C10   D T  94      -9.304 -14.952  21.319  0.50 67.66     0.005 C 
ENDROOT
BRANCH   1   2
HETATM    2  C8    D T  94      -8.909 -14.067  20.157  0.50 68.37     0.033 C 
BRANCH   2   3
HETATM    3  C7    D T  94     -10.096 -13.177  19.818  0.50 67.29     0.149 C 
BRANCH   3   4
HETATM    4  O1    D T  94     -10.108 -12.906  18.445  0.50 67.79    -0.331 OA
BRANCH   4   5
HETATM    5  C1    D T  94     -11.223 -13.092  17.672  0.50 68.34     0.094 A 
HETATM    6  C2    D T  94     -11.203 -13.112  16.283  0.50 67.57     0.024 A 
HETATM    7  C3    D T  94     -12.350 -13.306  15.532  0.50 67.80     0.005 A 
HETATM    8  C4    D T  94     -13.544 -13.496  16.195  0.50 68.01     0.040 A 
HETATM    9  C5    D T  94     -13.580 -13.466  17.577  0.50 67.86     0.005 A 
HETATM   10  C6    D T  94     -12.429 -13.272  18.319  0.50 68.10     0.024 A 
BRANCH   8  11
HETATM   11  C9    D T  94     -14.824 -13.711  15.462  0.50 68.61     0.205 C 
HETATM   12  N1    D T  94     -15.747 -14.409  15.956  0.50 69.27    -0.125 N 
HETATM   13  N2    D T  94     -15.003 -13.135  14.275  0.50 69.71    -0.125 N 
ENDBRANCH   8  11
ENDBRANCH   4   5
ENDBRANCH   3   4
ENDBRANCH   2   3
ENDBRANCH   1   2
BRANCH   1  14
HETATM   14  C8'   D T  94     -10.818 -14.987  21.416  0.50 66.82     0.033 C 
BRANCH  14  15
HETATM   15  C7'   D T  94     -11.357 -16.375  21.129  0.50 66.64     0.149 C 
BRANCH  15  16
HETATM   16  O1'   D T  94     -11.712 -16.529  19.775  0.50 65.96    -0.331 OA
BRANCH  16  17
HETATM   17  C1'   D T  94     -10.830 -17.027  18.846  0.50 66.90     0.094 A 
HETATM   18  C2'   D T  94      -9.879 -18.000  19.143  0.50 66.33     0.024 A 
HETATM   19  C3'   D T  94      -8.982 -18.483  18.203  0.50 66.35     0.005 A 
HETATM   20  C4'   D T  94      -9.063 -17.991  16.919  0.50 66.52     0.040 A 
HETATM   21  C5'   D T  94     -10.002 -17.020  16.606  0.50 66.57     0.005 A 
HETATM   22  C6'   D T  94     -10.884 -16.535  17.559  0.50 66.88     0.024 A 
BRANCH  20  23
HETATM   23  C9'   D T  94      -8.144 -18.448  15.835  0.50 67.13     0.205 C 
HETATM   24  N1'   D T  94      -7.721 -17.678  14.929  0.50 67.44    -0.125 N 
HETATM   25  N2'   D T  94      -7.772 -19.728  15.846  0.50 68.12    -0.125 N 
ENDBRANCH  20  23
ENDBRANCH  16  17
ENDBRANCH  15  16
ENDBRANCH  14  15
ENDBRANCH   1  14
TORSDOF 20
ENDMDL
MODEL 4
REMARK VINA RESULT:    -4.546      2.288      5.563
REMARK INTER + INTRA:          -9.903
REMARK INTER:                  -8.357
REMARK INTRA:                  -1.545
REMARK UNBOUND:                -2.700
REMARK  20 active torsions:
REMARK  status: ('A' for Active; 'I' for Inactive)
REMARK    1  A    between atoms: C1_1  and  O1_20 
REMARK    2  A    between atoms: C4_4  and  C9_9 
REMARK    3  A    between atoms: C7_7  and  C8_8 
REMARK    4  A    between atoms: C7_7  and  O1_20 
REMARK    5  A    between atoms: C8_8  and  C10_10 
REMARK    6  A    between atoms: C10_10  and  C8'_18 
REMARK    7  A    between atoms: C1'_11  and  O1'_21 
REMARK    8  A    between atoms: C4'_14  and  C9'_19 
REMARK    9  A    between atoms: C7'_17  and  C8'_18 
REMARK   10  A    between atoms: C7'_17  and  O1'_21 
REMARK   11  A    between atoms: C1@A_26  and  O1@A_45 
REMARK   12  A    between atoms: C4@A_29  and  C9@A_34 
REMARK   13  A    between atoms: C7@A_32  and  C8@A_33 
REMARK   14  A    between atoms: C7@A_32  and  O1@A_45 
REMARK   15  A    between atoms: C8@A_33  and  C10@A_35 
REMARK   16  A    between atoms: C10@A_35  and  C8'@A_43 
REMARK   17  A    between atoms: C1'@A_36  and  O1'@A_46 
REMARK   18  A    between atoms: C4'@A_39  and  C9'@A_44 
REMARK   19  A    between atoms: C7'@A_42  and  C8'@A_43 
REMARK   20  A    between atoms: C7'@A_42  and  O1'@A_46 
ROOT
HETATM    1  C10   D T  94     -11.975 -14.000  20.207  0.50 67.66     0.005 C 
ENDROOT
BRANCH   1   2
HETATM    2  C8    D T  94     -11.712 -15.484  20.343  0.50 68.37     0.033 C 
BRANCH   2   3
HETATM    3  C7    D T  94     -12.893 -16.229  19.741  0.50 67.29     0.149 C 
BRANCH   3   4
HETATM    4  O1    D T  94     -12.688 -16.414  18.369  0.50 67.79    -0.331 OA
BRANCH   4   5
HETATM    5  C1    D T  94     -13.222 -15.573  17.429  0.50 68.34     0.094 A 
HETATM    6  C2    D T  94     -12.460 -14.841  16.528  0.50 67.57     0.024 A 
HETATM    7  C3    D T  94     -13.033 -14.002  15.587  0.50 67.80     0.005 A 
HETATM    8  C4    D T  94     -14.408 -13.906  15.546  0.50 68.01     0.040 A 
HETATM    9  C5    D T  94     -15.179 -14.620  16.446  0.50 67.86     0.005 A 
HETATM   10  C6    D T  94     -14.597 -15.456  17.381  0.50 68.10     0.024 A 
BRANCH   8  11
HETATM   11  C9    D T  94     -15.105 -13.026  14.565  0.50 68.61     0.205 C 
HETATM   12  N1    D T  94     -16.272 -12.609  14.780  0.50 69.27    -0.125 N 
HETATM   13  N2    D T  94     -14.472 -12.655  13.455  0.50 69.71    -0.125 N 
ENDBRANCH   8  11
ENDBRANCH   4   5
ENDBRANCH   3   4
ENDBRANCH   2   3
ENDBRANCH   1   2
BRANCH   1  14
HETATM   14  C8'   D T  94     -10.828 -13.368  19.439  0.50 66.82     0.033 C 
BRANCH  14  15
HETATM   15  C7'   D T  94      -9.626 -14.291  19.385  0.50 66.64     0.149 C 
BRANCH  15  16
HETATM   16  O1'   D T  94      -8.922 -14.163  18.172  0.50 65.96    -0.331 OA
BRANCH  16  17
HETATM   17  C1'   D T  94      -8.482 -15.259  17.470  0.50 66.90     0.094 A 
HETATM   18  C2'   D T  94      -7.268 -15.291  16.788  0.50 66.33     0.024 A 
HETATM   19  C3'   D T  94      -6.840 -16.396  16.068  0.50 66.35     0.005 A 
HETATM   20  C4'   D T  94      -7.647 -17.512  16.058  0.50 66.52     0.040 A 
HETATM   21  C5'   D T  94      -8.860 -17.498  16.729  0.50 66.57     0.005 A 
HETATM   22  C6'   D T  94      -9.283 -16.382  17.434  0.50 66.88     0.024 A 
BRANCH  20  23
HETATM   23  C9'   D T  94      -7.275 -18.752  15.314  0.50 67.13     0.205 C 
HETATM   24  N1'   D T  94      -6.406 -18.763  14.398  0.50 67.44    -0.125 N 
HETATM   25  N2'   D T  94      -7.904 -19.879  15.646  0.50 68.12    -0.125 N 
ENDBRANCH  20  23
ENDBRANCH  16  17
ENDBRANCH  15  16
ENDBRANCH  14  15
ENDBRANCH   1  14
TORSDOF 20
ENDMDL
MODEL 5
REMARK VINA RESULT:    -4.460      1.913      4.861
REMARK INTER + INTRA:          -9.767
REMARK INTER:                  -8.121
REMARK INTRA:                  -1.646
REMARK UNBOUND:                -2.700
REMARK  20 active torsions:
REMARK  status: ('A' for Active; 'I' for Inactive)
REMARK    1  A    between atoms: C1_1  and  O1_20 
REMARK    2  A    between atoms: C4_4  and  C9_9 
REMARK    3  A    between atoms: C7_7  and  C8_8 
REMARK    4  A    between atoms: C7_7  and  O1_20 
REMARK    5  A    between atoms: C8_8  and  C10_10 
REMARK    6  A    between atoms: C10_10  and  C8'_18 
REMARK    7  A    between atoms: C1'_11  and  O1'_21 
REMARK    8  A    between atoms: C4'_14  and  C9'_19 
REMARK    9  A    between atoms: C7'_17  and  C8'_18 
REMARK   10  A    between atoms: C7'_17  and  O1'_21 
REMARK   11  A    between atoms: C1@A_26  and  O1@A_45 
REMARK   12  A    between atoms: C4@A_29  and  C9@A_34 
REMARK   13  A    between atoms: C7@A_32  and  C8@A_33 
REMARK   14  A    between atoms: C7@A_32  and  O1@A_45 
REMARK   15  A    between atoms: C8@A_33  and  C10@A_35 
REMARK   16  A    between atoms: C10@A_35  and  C8'@A_43 
REMARK   17  A    between atoms: C1'@A_36  and  O1'@A_46 
REMARK   18  A    between atoms: C4'@A_39  and  C9'@A_44 
REMARK   19  A    between atoms: C7'@A_42  and  C8'@A_43 
REMARK   20  A    between atoms: C7'@A_42  and  O1'@A_46 
ROOT
HETATM    1  C10   D T  94     -12.076 -14.479  21.310  0.50 67.66     0.005 C 
ENDROOT
BRANCH   1   2
HETATM    2  C8    D T  94     -12.681 -15.718  20.688  0.50 68.37     0.033 C 
BRANCH   2   3
HETATM    3  C7    D T  94     -11.803 -16.136  19.518  0.50 67.29     0.149 C 
BRANCH   3   4
HETATM    4  O1    D T  94     -12.599 -16.630  18.479  0.50 67.79    -0.331 OA
BRANCH   4   5
HETATM    5  C1    D T  94     -13.238 -15.807  17.591  0.50 68.34     0.094 A 
HETATM    6  C2    D T  94     -14.618 -15.653  17.537  0.50 67.57     0.024 A 
HETATM    7  C3    D T  94     -15.231 -14.809  16.627  0.50 67.80     0.005 A 
HETATM    8  C4    D T  94     -14.435 -14.093  15.757  0.50 68.01     0.040 A 
HETATM    9  C5    D T  94     -13.061 -14.245  15.792  0.50 67.86     0.005 A 
HETATM   10  C6    D T  94     -12.458 -15.091  16.705  0.50 68.10     0.024 A 
BRANCH   8  11
HETATM   11  C9    D T  94     -15.015 -13.163  14.747  0.50 68.61     0.205 C 
HETATM   12  N1    D T  94     -14.375 -12.845  13.712  0.50 69.27    -0.125 N 
HETATM   13  N2    D T  94     -16.241 -12.679  14.932  0.50 69.71    -0.125 N 
ENDBRANCH   8  11
ENDBRANCH   4   5
ENDBRANCH   3   4
ENDBRANCH   2   3
ENDBRANCH   1   2
BRANCH   1  14
HETATM   14  C8'   D T  94     -12.420 -13.279  20.446  0.50 66.82     0.033 C 
BRANCH  14  15
HETATM   15  C7'   D T  94     -11.494 -12.112  20.730  0.50 66.64     0.149 C 
BRANCH  15  16
HETATM   16  O1'   D T  94     -10.521 -11.959  19.724  0.50 65.96    -0.331 OA
BRANCH  16  17
HETATM   17  C1'   D T  94      -9.742 -13.010  19.301  0.50 66.90     0.094 A 
HETATM   18  C2'   D T  94      -8.894 -13.719  20.148  0.50 66.33     0.024 A 
HETATM   19  C3'   D T  94      -8.099 -14.766  19.708  0.50 66.35     0.005 A 
HETATM   20  C4'   D T  94      -8.183 -15.129  18.382  0.50 66.52     0.040 A 
HETATM   21  C5'   D T  94      -9.021 -14.433  17.524  0.50 66.57     0.005 A 
HETATM   22  C6'   D T  94      -9.800 -13.379  17.973  0.50 66.88     0.024 A 
BRANCH  20  23
HETATM   23  C9'   D T  94      -7.370 -16.244  17.813  0.50 67.13     0.205 C 
HETATM   24  N1'   D T  94      -7.667 -16.821  16.730  0.50 67.44    -0.125 N 
HETATM   25  N2'   D T  94      -6.295 -16.631  18.498  0.50 68.12    -0.125 N 
ENDBRANCH  20  23
ENDBRANCH  16  17
ENDBRANCH  15  16
ENDBRANCH  14  15
ENDBRANCH   1  14
TORSDOF 20
ENDMDL
MODEL 6
REMARK VINA RESULT:    -4.447      2.334      3.916
REMARK INTER + INTRA:          -9.746
REMARK INTER:                  -8.304
REMARK INTRA:                  -1.442
REMARK UNBOUND:                -2.700
REMARK  20 active torsions:
REMARK  status: ('A' for Active; 'I' for Inactive)
REMARK    1  A    between atoms: C1_1  and  O1_20 
REMARK    2  A    between atoms: C4_4  and  C9_9 
REMARK    3  A    between atoms: C7_7  and  C8_8 
REMARK    4  A    between atoms: C7_7  and  O1_20 
REMARK    5  A    between atoms: C8_8  and  C10_10 
REMARK    6  A    between atoms: C10_10  and  C8'_18 
REMARK    7  A    between atoms: C1'_11  and  O1'_21 
REMARK    8  A    between atoms: C4'_14  and  C9'_19 
REMARK    9  A    between atoms: C7'_17  and  C8'_18 
REMARK   10  A    between atoms: C7'_17  and  O1'_21 
REMARK   11  A    between atoms: C1@A_26  and  O1@A_45 
REMARK   12  A    between atoms: C4@A_29  and  C9@A_34 
REMARK   13  A    between atoms: C7@A_32  and  C8@A_33 
REMARK   14  A    between atoms: C7@A_32  and  O1@A_45 
REMARK   15  A    between atoms: C8@A_33  and  C10@A_35 
REMARK   16  A    between atoms: C10@A_35  and  C8'@A_43 
REMARK   17  A    between atoms: C1'@A_36  and  O1'@A_46 
REMARK   18  A    between atoms: C4'@A_39  and  C9'@A_44 
REMARK   19  A    between atoms: C7'@A_42  and  C8'@A_43 
REMARK   20  A    between atoms: C7'@A_42  and  O1'@A_46 
ROOT
HETATM    1  C10   D T  94     -11.434 -13.858  20.339  0.50 67.66     0.005 C 
ENDROOT
BRANCH   1   2
HETATM    2  C8    D T  94     -10.257 -13.172  19.681  0.50 68.37     0.033 C 
BRANCH   2   3
HETATM    3  C7    D T  94      -9.215 -14.231  19.355  0.50 67.29     0.149 C 
BRANCH   3   4
HETATM    4  O1    D T  94      -8.946 -14.225  17.982  0.50 67.79    -0.331 OA
BRANCH   4   5
HETATM    5  C1    D T  94      -8.437 -15.316  17.330  0.50 68.34     0.094 A 
HETATM    6  C2    D T  94      -7.168 -15.355  16.768  0.50 67.57     0.024 A 
HETATM    7  C3    D T  94      -6.683 -16.478  16.118  0.50 67.80     0.005 A 
HETATM    8  C4    D T  94      -7.493 -17.592  16.041  0.50 68.01     0.040 A 
HETATM    9  C5    D T  94      -8.764 -17.562  16.585  0.50 67.86     0.005 A 
HETATM   10  C6    D T  94      -9.238 -16.436  17.233  0.50 68.10     0.024 A 
BRANCH   8  11
HETATM   11  C9    D T  94      -7.049 -18.840  15.358  0.50 68.61     0.205 C 
HETATM   12  N1    D T  94      -7.379 -19.972  15.794  0.50 69.27    -0.125 N 
HETATM   13  N2    D T  94      -6.309 -18.754  14.255  0.50 69.71    -0.125 N 
ENDBRANCH   8  11
ENDBRANCH   4   5
ENDBRANCH   3   4
ENDBRANCH   2   3
ENDBRANCH   1   2
BRANCH   1  14
HETATM   14  C8'   D T  94     -11.266 -15.361  20.199  0.50 66.82     0.033 C 
BRANCH  14  15
HETATM   15  C7'   D T  94     -12.544 -16.015  19.711  0.50 66.64     0.149 C 
BRANCH  15  16
HETATM   16  O1'   D T  94     -12.491 -16.306  18.334  0.50 65.96    -0.331 OA
BRANCH  16  17
HETATM   17  C1'   D T  94     -13.093 -15.498  17.398  0.50 66.90     0.094 A 
HETATM   18  C2'   D T  94     -12.382 -14.788  16.434  0.50 66.33     0.024 A 
HETATM   19  C3'   D T  94     -12.996 -13.963  15.505  0.50 66.35     0.005 A 
HETATM   20  C4'   D T  94     -14.371 -13.873  15.530  0.50 66.52     0.040 A 
HETATM   21  C5'   D T  94     -15.095 -14.571  16.484  0.50 66.57     0.005 A 
HETATM   22  C6'   D T  94     -14.467 -15.382  17.416  0.50 66.88     0.024 A 
BRANCH  20  23
HETATM   23  C9'   D T  94     -15.126 -13.013  14.572  0.50 67.13     0.205 C 
HETATM   24  N1'   D T  94     -16.312 -12.636  14.781  0.50 67.44    -0.125 N 
HETATM   25  N2'   D T  94     -14.500 -12.645  13.454  0.50 68.12    -0.125 N 
ENDBRANCH  20  23
ENDBRANCH  16  17
ENDBRANCH  15  16
ENDBRANCH  14  15
ENDBRANCH   1  14
TORSDOF 20
ENDMDL
MODEL 7
REMARK VINA RESULT:    -4.376      2.570      5.983
REMARK INTER + INTRA:          -9.635
REMARK INTER:                  -8.217
REMARK INTRA:                  -1.417
REMARK UNBOUND:                -2.700
REMARK  20 active torsions:
REMARK  status: ('A' for Active; 'I' for Inactive)
REMARK    1  A    between atoms: C1_1  and  O1_20 
REMARK    2  A    between atoms: C4_4  and  C9_9 
REMARK    3  A    between atoms: C7_7  and  C8_8 
REMARK    4  A    between atoms: C7_7  and  O1_20 
REMARK    5  A    between atoms: C8_8  and  C10_10 
REMARK    6  A    between atoms: C10_10  and  C8'_18 
REMARK    7  A    between atoms: C1'_11  and  O1'_21 
REMARK    8  A    between atoms: C4'_14  and  C9'_19 
REMARK    9  A    between atoms: C7'_17  and  C8'_18 
REMARK   10  A    between atoms: C7'_17  and  O1'_21 
REMARK   11  A    between atoms: C1@A_26  and  O1@A_45 
REMARK   12  A    between atoms: C4@A_29  and  C9@A_34 
REMARK   13  A    between atoms: C7@A_32  and  C8@A_33 
REMARK   14  A    between atoms: C7@A_32  and  O1@A_45 
REMARK   15  A    between atoms: C8@A_33  and  C10@A_35 
REMARK   16  A    between atoms: C10@A_35  and  C8'@A_43 
REMARK   17  A    between atoms: C1'@A_36  and  O1'@A_46 
REMARK   18  A    between atoms: C4'@A_39  and  C9'@A_44 
REMARK   19  A    between atoms: C7'@A_42  and  C8'@A_43 
REMARK   20  A    between atoms: C7'@A_42  and  O1'@A_46 
ROOT
HETATM    1  C10   D T  94     -10.522 -14.259  20.073  0.50 67.66     0.005 C 
ENDROOT
BRANCH   1   2
HETATM    2  C8    D T  94     -12.018 -14.434  19.938  0.50 68.37     0.033 C 
BRANCH   2   3
HETATM    3  C7    D T  94     -12.295 -15.894  19.610  0.50 67.29     0.149 C 
BRANCH   3   4
HETATM    4  O1    D T  94     -12.244 -16.087  18.225  0.50 67.79    -0.331 OA
BRANCH   4   5
HETATM    5  C1    D T  94     -13.004 -15.353  17.355  0.50 68.34     0.094 A 
HETATM    6  C2    D T  94     -14.393 -15.321  17.382  0.50 67.57     0.024 A 
HETATM    7  C3    D T  94     -15.131 -14.565  16.487  0.50 67.80     0.005 A 
HETATM    8  C4    D T  94     -14.454 -13.814  15.549  0.50 68.01     0.040 A 
HETATM    9  C5    D T  94     -13.072 -13.846  15.503  0.50 67.86     0.005 A 
HETATM   10  C6    D T  94     -12.344 -14.604  16.401  0.50 68.10     0.024 A 
BRANCH   8  11
HETATM   11  C9    D T  94     -15.173 -12.973  14.549  0.50 68.61     0.205 C 
HETATM   12  N1    D T  94     -16.342 -12.563  14.765  0.50 69.27    -0.125 N 
HETATM   13  N2    D T  94     -14.557 -12.630  13.420  0.50 69.71    -0.125 N 
ENDBRANCH   8  11
ENDBRANCH   4   5
ENDBRANCH   3   4
ENDBRANCH   2   3
ENDBRANCH   1   2
BRANCH   1  14
HETATM   14  C8'   D T  94     -10.019 -13.423  18.909  0.50 66.82     0.033 C 
BRANCH  14  15
HETATM   15  C7'   D T  94      -9.029 -14.198  18.062  0.50 66.64     0.149 C 
BRANCH  15  16
HETATM   16  O1'   D T  94      -8.960 -15.552  18.443  0.50 65.96    -0.331 OA
BRANCH  16  17
HETATM   17  C1'   D T  94      -8.532 -16.529  17.577  0.50 66.90     0.094 A 
HETATM   18  C2'   D T  94      -9.400 -17.297  16.805  0.50 66.33     0.024 A 
HETATM   19  C3'   D T  94      -8.960 -18.293  15.947  0.50 66.35     0.005 A 
HETATM   20  C4'   D T  94      -7.602 -18.501  15.841  0.50 66.52     0.040 A 
HETATM   21  C5'   D T  94      -6.723 -17.748  16.604  0.50 66.57     0.005 A 
HETATM   22  C6'   D T  94      -7.177 -16.765  17.469  0.50 66.88     0.024 A 
BRANCH  20  23
HETATM   23  C9'   D T  94      -7.029 -19.548  14.944  0.50 67.13     0.205 C 
HETATM   24  N1'   D T  94      -7.310 -20.773  15.058  0.50 67.44    -0.125 N 
HETATM   25  N2'   D T  94      -6.185 -19.145  13.994  0.50 68.12    -0.125 N 
ENDBRANCH  20  23
ENDBRANCH  16  17
ENDBRANCH  15  16
ENDBRANCH  14  15
ENDBRANCH   1  14
TORSDOF 20
ENDMDL
MODEL 8
REMARK VINA RESULT:    -4.340      1.886      3.196
REMARK INTER + INTRA:          -9.577
REMARK INTER:                  -7.710
REMARK INTRA:                  -1.867
REMARK UNBOUND:                -2.700
REMARK  20 active torsions:
REMARK  status: ('A' for Active; 'I' for Inactive)
REMARK    1  A    between atoms: C1_1  and  O1_20 
REMARK    2  A    between atoms: C4_4  and  C9_9 
REMARK    3  A    between atoms: C7_7  and  C8_8 
REMARK    4  A    between atoms: C7_7  and  O1_20 
REMARK    5  A    between atoms: C8_8  and  C10_10 
REMARK    6  A    between atoms: C10_10  and  C8'_18 
REMARK    7  A    between atoms: C1'_11  and  O1'_21 
REMARK    8  A    between atoms: C4'_14  and  C9'_19 
REMARK    9  A    between atoms: C7'_17  and  C8'_18 
REMARK   10  A    between atoms: C7'_17  and  O1'_21 
REMARK   11  A    between atoms: C1@A_26  and  O1@A_45 
REMARK   12  A    between atoms: C4@A_29  and  C9@A_34 
REMARK   13  A    between atoms: C7@A_32  and  C8@A_33 
REMARK   14  A    between atoms: C7@A_32  and  O1@A_45 
REMARK   15  A    between atoms: C8@A_33  and  C10@A_35 
REMARK   16  A    between atoms: C10@A_35  and  C8'@A_43 
REMARK   17  A    between atoms: C1'@A_36  and  O1'@A_46 
REMARK   18  A    between atoms: C4'@A_39  and  C9'@A_44 
REMARK   19  A    between atoms: C7'@A_42  and  C8'@A_43 
REMARK   20  A    between atoms: C7'@A_42  and  O1'@A_46 
ROOT
HETATM    1  C10   D T  94     -12.293 -14.728  21.189  0.50 67.66     0.005 C 
ENDROOT
BRANCH   1   2
HETATM    2  C8    D T  94     -11.167 -13.875  21.729  0.50 68.37     0.033 C 
BRANCH   2   3
HETATM    3  C7    D T  94     -10.803 -12.846  20.669  0.50 67.29     0.149 C 
BRANCH   3   4
HETATM    4  O1    D T  94      -9.453 -12.976  20.325  0.50 67.79    -0.331 OA
BRANCH   4   5
HETATM    5  C1    D T  94      -8.998 -13.980  19.513  0.50 68.34     0.094 A 
HETATM    6  C2    D T  94      -8.252 -15.060  19.966  0.50 67.57     0.024 A 
HETATM    7  C3    D T  94      -7.810 -16.061  19.117  0.50 67.80     0.005 A 
HETATM    8  C4    D T  94      -8.136 -15.977  17.780  0.50 68.01     0.040 A 
HETATM    9  C5    D T  94      -8.869 -14.901  17.312  0.50 67.86     0.005 A 
HETATM   10  C6    D T  94      -9.306 -13.907  18.169  0.50 68.10     0.024 A 
BRANCH   8  11
HETATM   11  C9    D T  94      -7.700 -17.011  16.799  0.50 68.61     0.205 C 
HETATM   12  N1    D T  94      -6.487 -17.320  16.676  0.50 69.27    -0.125 N 
HETATM   13  N2    D T  94      -8.612 -17.635  16.057  0.50 69.71    -0.125 N 
ENDBRANCH   8  11
ENDBRANCH   4   5
ENDBRANCH   3   4
ENDBRANCH   2   3
ENDBRANCH   1   2
BRANCH   1  14
HETATM   14  C8'   D T  94     -11.764 -16.125  20.919  0.50 66.82     0.033 C 
BRANCH  14  15
HETATM   15  C7'   D T  94     -11.721 -16.420  19.432  0.50 66.64     0.149 C 
BRANCH  15  16
HETATM   16  O1'   D T  94     -13.011 -16.610  18.899  0.50 65.96    -0.331 OA
BRANCH  16  17
HETATM   17  C1'   D T  94     -13.513 -15.799  17.909  0.50 66.90     0.094 A 
HETATM   18  C2'   D T  94     -14.840 -15.843  17.488  0.50 66.33     0.024 A 
HETATM   19  C3'   D T  94     -15.334 -15.034  16.476  0.50 66.35     0.005 A 
HETATM   20  C4'   D T  94     -14.472 -14.133  15.891  0.50 66.52     0.040 A 
HETATM   21  C5'   D T  94     -13.147 -14.077  16.296  0.50 66.57     0.005 A 
HETATM   22  C6'   D T  94     -12.662 -14.901  17.299  0.50 66.88     0.024 A 
BRANCH  20  23
HETATM   23  C9'   D T  94     -14.907 -13.217  14.795  0.50 67.13     0.205 C 
HETATM   24  N1'   D T  94     -14.188 -12.968  13.789  0.50 67.44    -0.125 N 
HETATM   25  N2'   D T  94     -16.106 -12.649  14.912  0.50 68.12    -0.125 N 
ENDBRANCH  20  23
ENDBRANCH  16  17
ENDBRANCH  15  16
ENDBRANCH  14  15
ENDBRANCH   1  14
TORSDOF 20
ENDMDL
MODEL 9
REMARK VINA RESULT:    -4.158      2.754      4.693
REMARK INTER + INTRA:          -9.289
REMARK INTER:                  -7.406
REMARK INTRA:                  -1.883
REMARK UNBOUND:                -2.700
REMARK  20 active torsions:
REMARK  status: ('A' for Active; 'I' for Inactive)
REMARK    1  A    between atoms: C1_1  and  O1_20 
REMARK    2  A    between atoms: C4_4  and  C9_9 
REMARK    3  A    between atoms: C7_7  and  C8_8 
REMARK    4  A    between atoms: C7_7  and  O1_20 
REMARK    5  A    between atoms: C8_8  and  C10_10 
REMARK    6  A    between atoms: C10_10  and  C8'_18 
REMARK    7  A    between atoms: C1'_11  and  O1'_21 
REMARK    8  A    between atoms: C4'_14  and  C9'_19 
REMARK    9  A    between atoms: C7'_17  and  C8'_18 
REMARK   10  A    between atoms: C7'_17  and  O1'_21 
REMARK   11  A    between atoms: C1@A_26  and  O1@A_45 
REMARK   12  A    between atoms: C4@A_29  and  C9@A_34 
REMARK   13  A    between atoms: C7@A_32  and  C8@A_33 
REMARK   14  A    between atoms: C7@A_32  and  O1@A_45 
REMARK   15  A    between atoms: C8@A_33  and  C10@A_35 
REMARK   16  A    between atoms: C10@A_35  and  C8'@A_43 
REMARK   17  A    between atoms: C1'@A_36  and  O1'@A_46 
REMARK   18  A    between atoms: C4'@A_39  and  C9'@A_44 
REMARK   19  A    between atoms: C7'@A_42  and  C8'@A_43 
REMARK   20  A    between atoms: C7'@A_42  and  O1'@A_46 
ROOT
HETATM    1  C10   D T  94      -9.009 -18.917  19.511  0.50 67.66     0.005 C 
ENDROOT
BRANCH   1   2
HETATM    2  C8    D T  94      -8.116 -18.607  20.692  0.50 68.37     0.033 C 
BRANCH   2   3
HETATM    3  C7    D T  94      -7.326 -17.348  20.370  0.50 67.29     0.149 C 
BRANCH   3   4
HETATM    4  O1    D T  94      -7.641 -16.341  21.289  0.50 67.79    -0.331 OA
BRANCH   4   5
HETATM    5  C1    D T  94      -8.628 -15.421  21.058  0.50 68.34     0.094 A 
HETATM    6  C2    D T  94      -9.779 -15.316  21.828  0.50 67.57     0.024 A 
HETATM    7  C3    D T  94     -10.756 -14.370  21.569  0.50 67.80     0.005 A 
HETATM    8  C4    D T  94     -10.565 -13.502  20.514  0.50 68.01     0.040 A 
HETATM    9  C5    D T  94      -9.430 -13.604  19.731  0.50 67.86     0.005 A 
HETATM   10  C6    D T  94      -8.459 -14.551  19.999  0.50 68.10     0.024 A 
BRANCH   8  11
HETATM   11  C9    D T  94     -11.568 -12.455  20.166  0.50 68.61     0.205 C 
HETATM   12  N1    D T  94     -12.420 -12.646  19.261  0.50 69.27    -0.125 N 
HETATM   13  N2    D T  94     -11.578 -11.309  20.842  0.50 69.71    -0.125 N 
ENDBRANCH   8  11
ENDBRANCH   4   5
ENDBRANCH   3   4
ENDBRANCH   2   3
ENDBRANCH   1   2
BRANCH   1  14
HETATM   14  C8'   D T  94     -10.387 -18.336  19.773  0.50 66.82     0.033 C 
BRANCH  14  15
HETATM   15  C7'   D T  94     -10.737 -17.266  18.756  0.50 66.64     0.149 C 
BRANCH  15  16
HETATM   16  O1'   D T  94     -12.059 -16.809  18.911  0.50 65.96    -0.331 OA
BRANCH  16  17
HETATM   17  C1'   D T  94     -12.666 -16.011  17.971  0.50 66.90     0.094 A 
HETATM   18  C2'   D T  94     -14.046 -15.840  17.892  0.50 66.33     0.024 A 
HETATM   19  C3'   D T  94     -14.649 -15.046  16.928  0.50 66.35     0.005 A 
HETATM   20  C4'   D T  94     -13.837 -14.382  16.036  0.50 66.52     0.040 A 
HETATM   21  C5'   D T  94     -12.461 -14.543  16.099  0.50 66.57     0.005 A 
HETATM   22  C6'   D T  94     -11.871 -15.350  17.058  0.50 66.88     0.024 A 
BRANCH  20  23
HETATM   23  C9'   D T  94     -14.390 -13.503  14.964  0.50 67.13     0.205 C 
HETATM   24  N1'   D T  94     -13.686 -13.062  14.013  0.50 67.44    -0.125 N 
HETATM   25  N2'   D T  94     -15.681 -13.182  15.039  0.50 68.12    -0.125 N 
ENDBRANCH  20  23
ENDBRANCH  16  17
ENDBRANCH  15  16
ENDBRANCH  14  15
ENDBRANCH   1  14
TORSDOF 20
ENDMDL
