MODEL 1
REMARK VINA RESULT:    -7.613      0.000      0.000
REMARK INTER + INTRA:          -9.034
REMARK INTER:                  -8.503
REMARK INTRA:                  -0.532
REMARK UNBOUND:                -0.532
REMARK  2 active torsions:
REMARK  status: ('A' for Active; 'I' for Inactive)
REMARK    1  A    between atoms: C5_4  and  O7_13 
REMARK    2  A    between atoms: C8_10  and  O7_13 
ROOT
HETATM    1  O7    D T 400       6.949   1.265  -6.942  1.00 63.04    -0.304 OA
ENDROOT
BRANCH   1   2
HETATM    2  C5    D T 400       7.144   1.457  -8.279  1.00 59.76     0.125 A 
HETATM    3  C6    D T 400       8.324   2.022  -8.707  1.00 54.83     0.154 A 
HETATM    4  C1    D T 400       8.554   2.199 -10.070  1.00 54.43     0.041 A 
HETATM    5  O17   D T 400       9.234   2.399  -7.772  1.00 54.30    -0.188 OA
HETATM    6  C2    D T 400       7.576   1.803 -10.978  1.00 50.51     0.060 A 
HETATM    7  C3    D T 400       6.387   1.232 -10.547  1.00 52.10     0.014 A 
HETATM    8 CL14   D T 400       7.834   2.018 -12.725  1.00 49.50    -0.082 Cl
HETATM    9  C4    D T 400       6.176   1.042  -9.189  1.00 57.51     0.028 A 
ENDBRANCH   1   2
BRANCH   1  10
HETATM   10  C8    D T 400       6.016   1.980  -6.255  1.00 59.17     0.111 A 
HETATM   11  C9    D T 400       4.907   1.301  -5.813  1.00 58.03     0.081 A 
HETATM   12  C10   D T 400       3.914   1.948  -5.118  1.00 63.10     0.025 A 
HETATM   13 CL16   D T 400       4.754  -0.449  -6.149  1.00 86.42    -0.080 Cl
HETATM   14  C11   D T 400       4.048   3.300  -4.872  1.00 63.97     0.059 A 
HETATM   15  C12   D T 400       5.167   4.004  -5.316  1.00 65.40     0.013 A 
HETATM   16 CL15   D T 400       2.733   4.097  -3.969  1.00 74.53    -0.082 Cl
HETATM   17  C13   D T 400       6.166   3.344  -6.026  1.00 59.83     0.026 A 
ENDBRANCH   1  10
TORSDOF 2
ENDMDL
MODEL 2
REMARK VINA RESULT:    -7.566      1.543      6.082
REMARK INTER + INTRA:          -8.982
REMARK INTER:                  -8.439
REMARK INTRA:                  -0.543
REMARK UNBOUND:                -0.532
REMARK  2 active torsions:
REMARK  status: ('A' for Active; 'I' for Inactive)
REMARK    1  A    between atoms: C5_4  and  O7_13 
REMARK    2  A    between atoms: C8_10  and  O7_13 
ROOT
HETATM    1  O7    D T 400       6.758   1.252  -6.724  1.00 63.04    -0.304 OA
ENDROOT
BRANCH   1   2
HETATM    2  C5    D T 400       5.792   1.968  -6.078  1.00 59.76     0.125 A 
HETATM    3  C6    D T 400       4.723   1.299  -5.526  1.00 54.83     0.154 A 
HETATM    4  C1    D T 400       3.741   2.008  -4.839  1.00 54.43     0.041 A 
HETATM    5  O17   D T 400       4.658  -0.049  -5.681  1.00 54.30    -0.188 OA
HETATM    6  C2    D T 400       3.859   3.391  -4.725  1.00 50.51     0.060 A 
HETATM    7  C3    D T 400       4.937   4.065  -5.280  1.00 52.10     0.014 A 
HETATM    8 CL14   D T 400       2.622   4.329  -3.858  1.00 49.50    -0.082 Cl
HETATM    9  C4    D T 400       5.920   3.348  -5.947  1.00 57.51     0.028 A 
ENDBRANCH   1   2
BRANCH   1  10
HETATM   10  C8    D T 400       6.969   1.398  -8.061  1.00 59.17     0.111 A 
HETATM   11  C9    D T 400       8.160   1.961  -8.451  1.00 58.03     0.081 A 
HETATM   12  C10   D T 400       8.450   2.149  -9.780  1.00 63.10     0.025 A 
HETATM   13 CL16   D T 400       9.348   2.456  -7.208  1.00 86.42    -0.080 Cl
HETATM   14  C11   D T 400       7.518   1.764 -10.724  1.00 63.97     0.059 A 
HETATM   15  C12   D T 400       6.304   1.193 -10.344  1.00 65.40     0.013 A 
HETATM   16 CL15   D T 400       7.937   2.032 -12.437  1.00 74.53    -0.082 Cl
HETATM   17  C13   D T 400       6.013   1.011  -8.996  1.00 59.83     0.026 A 
ENDBRANCH   1  10
TORSDOF 2
ENDMDL
MODEL 3
REMARK VINA RESULT:    -7.450      1.478      5.992
REMARK INTER + INTRA:          -8.852
REMARK INTER:                  -8.595
REMARK INTRA:                  -0.257
REMARK UNBOUND:                -0.532
REMARK  2 active torsions:
REMARK  status: ('A' for Active; 'I' for Inactive)
REMARK    1  A    between atoms: C5_4  and  O7_13 
REMARK    2  A    between atoms: C8_10  and  O7_13 
ROOT
HETATM    1  O7    D T 400       5.720   0.654  -7.338  1.00 63.04    -0.304 OA
ENDROOT
BRANCH   1   2
HETATM    2  C5    D T 400       5.075   1.556  -6.543  1.00 59.76     0.125 A 
HETATM    3  C6    D T 400       4.072   1.114  -5.710  1.00 54.83     0.154 A 
HETATM    4  C1    D T 400       3.421   2.014  -4.869  1.00 54.43     0.041 A 
HETATM    5  O17   D T 400       3.741  -0.203  -5.743  1.00 54.30    -0.188 OA
HETATM    6  C2    D T 400       3.798   3.353  -4.891  1.00 50.51     0.060 A 
HETATM    7  C3    D T 400       4.810   3.799  -5.729  1.00 52.10     0.014 A 
HETATM    8 CL14   D T 400       2.986   4.532  -3.834  1.00 49.50    -0.082 Cl
HETATM    9  C4    D T 400       5.465   2.892  -6.549  1.00 57.51     0.028 A 
ENDBRANCH   1   2
BRANCH   1  10
HETATM   10  C8    D T 400       6.241   1.021  -8.542  1.00 59.17     0.111 A 
HETATM   11  C9    D T 400       5.381   1.054  -9.613  1.00 58.03     0.081 A 
HETATM   12  C10   D T 400       5.825   1.408 -10.863  1.00 63.10     0.025 A 
HETATM   13 CL16   D T 400       3.659   0.631  -9.374  1.00 86.42    -0.080 Cl
HETATM   14  C11   D T 400       7.158   1.728 -11.029  1.00 63.97     0.059 A 
HETATM   15  C12   D T 400       8.044   1.696  -9.952  1.00 65.40     0.013 A 
HETATM   16 CL15   D T 400       7.690   2.177 -12.671  1.00 74.53    -0.082 Cl
HETATM   17  C13   D T 400       7.589   1.331  -8.689  1.00 59.83     0.026 A 
ENDBRANCH   1  10
TORSDOF 2
ENDMDL
MODEL 4
REMARK VINA RESULT:    -7.266      2.248      6.013
REMARK INTER + INTRA:          -8.647
REMARK INTER:                  -8.133
REMARK INTRA:                  -0.514
REMARK UNBOUND:                -0.532
REMARK  2 active torsions:
REMARK  status: ('A' for Active; 'I' for Inactive)
REMARK    1  A    between atoms: C5_4  and  O7_13 
REMARK    2  A    between atoms: C8_10  and  O7_13 
ROOT
HETATM    1  O7    D T 400       6.698   3.439  -6.651  1.00 63.04    -0.304 OA
ENDROOT
BRANCH   1   2
HETATM    2  C5    D T 400       5.936   2.687  -5.805  1.00 59.76     0.125 A 
HETATM    3  C6    D T 400       4.769   3.220  -5.305  1.00 54.83     0.154 A 
HETATM    4  C1    D T 400       3.963   2.458  -4.463  1.00 54.43     0.041 A 
HETATM    5  O17   D T 400       4.444   4.493  -5.650  1.00 54.30    -0.188 OA
HETATM    6  C2    D T 400       4.357   1.164  -4.137  1.00 50.51     0.060 A 
HETATM    7  C3    D T 400       5.533   0.625  -4.641  1.00 52.10     0.014 A 
HETATM    8 CL14   D T 400       3.355   0.163  -3.061  1.00 49.50    -0.082 Cl
HETATM    9  C4    D T 400       6.320   1.385  -5.494  1.00 57.51     0.028 A 
ENDBRANCH   1   2
BRANCH   1  10
HETATM   10  C8    D T 400       6.811   3.120  -7.970  1.00 59.17     0.111 A 
HETATM   11  C9    D T 400       8.017   2.614  -8.391  1.00 58.03     0.081 A 
HETATM   12  C10   D T 400       8.218   2.272  -9.706  1.00 63.10     0.025 A 
HETATM   13 CL16   D T 400       9.342   2.397  -7.209  1.00 86.42    -0.080 Cl
HETATM   14  C11   D T 400       7.184   2.449 -10.604  1.00 63.97     0.059 A 
HETATM   15  C12   D T 400       5.955   2.964 -10.192  1.00 65.40     0.013 A 
HETATM   16 CL15   D T 400       7.493   1.995 -12.301  1.00 74.53    -0.082 Cl
HETATM   17  C13   D T 400       5.760   3.315  -8.860  1.00 59.83     0.026 A 
ENDBRANCH   1  10
TORSDOF 2
ENDMDL
MODEL 5
REMARK VINA RESULT:    -7.160      3.396      5.937
REMARK INTER + INTRA:          -8.529
REMARK INTER:                  -8.601
REMARK INTRA:                   0.072
REMARK UNBOUND:                -0.532
REMARK  2 active torsions:
REMARK  status: ('A' for Active; 'I' for Inactive)
REMARK    1  A    between atoms: C5_4  and  O7_13 
REMARK    2  A    between atoms: C8_10  and  O7_13 
ROOT
HETATM    1  O7    D T 400       7.799   1.486  -6.473  1.00 63.04    -0.304 OA
ENDROOT
BRANCH   1   2
HETATM    2  C5    D T 400       8.918   1.310  -5.710  1.00 59.76     0.125 A 
HETATM    3  C6    D T 400       8.873   1.636  -4.374  1.00 54.83     0.154 A 
HETATM    4  C1    D T 400       9.995   1.437  -3.573  1.00 54.43     0.041 A 
HETATM    5  O17   D T 400       7.721   2.156  -3.877  1.00 54.30    -0.188 OA
HETATM    6  C2    D T 400      11.150   0.911  -4.145  1.00 50.51     0.060 A 
HETATM    7  C3    D T 400      11.196   0.581  -5.492  1.00 52.10     0.014 A 
HETATM    8 CL14   D T 400      12.603   0.648  -3.154  1.00 49.50    -0.082 Cl
HETATM    9  C4    D T 400      10.067   0.765  -6.278  1.00 57.51     0.028 A 
ENDBRANCH   1   2
BRANCH   1  10
HETATM   10  C8    D T 400       7.882   1.622  -7.825  1.00 59.17     0.111 A 
HETATM   11  C9    D T 400       6.978   0.915  -8.582  1.00 58.03     0.081 A 
HETATM   12  C10   D T 400       6.995   0.992  -9.953  1.00 63.10     0.025 A 
HETATM   13 CL16   D T 400       5.765  -0.118  -7.769  1.00 86.42    -0.080 Cl
HETATM   14  C11   D T 400       7.942   1.791 -10.562  1.00 63.97     0.059 A 
HETATM   15  C12   D T 400       8.867   2.513  -9.808  1.00 65.40     0.013 A 
HETATM   16 CL15   D T 400       7.928   1.855 -12.345  1.00 74.53    -0.082 Cl
HETATM   17  C13   D T 400       8.848   2.426  -8.419  1.00 59.83     0.026 A 
ENDBRANCH   1  10
TORSDOF 2
ENDMDL
MODEL 6
REMARK VINA RESULT:    -7.088      1.744      2.598
REMARK INTER + INTRA:          -8.448
REMARK INTER:                  -8.274
REMARK INTRA:                  -0.174
REMARK UNBOUND:                -0.532
REMARK  2 active torsions:
REMARK  status: ('A' for Active; 'I' for Inactive)
REMARK    1  A    between atoms: C5_4  and  O7_13 
REMARK    2  A    between atoms: C8_10  and  O7_13 
ROOT
HETATM    1  O7    D T 400       4.788   3.110  -7.321  1.00 63.04    -0.304 OA
ENDROOT
BRANCH   1   2
HETATM    2  C5    D T 400       5.643   2.671  -8.290  1.00 59.76     0.125 A 
HETATM    3  C6    D T 400       6.997   2.831  -8.107  1.00 54.83     0.154 A 
HETATM    4  C1    D T 400       7.888   2.363  -9.071  1.00 54.43     0.041 A 
HETATM    5  O17   D T 400       7.425   3.455  -6.979  1.00 54.30    -0.188 OA
HETATM    6  C2    D T 400       7.386   1.742 -10.211  1.00 50.51     0.060 A 
HETATM    7  C3    D T 400       6.020   1.579 -10.395  1.00 52.10     0.014 A 
HETATM    8 CL14   D T 400       8.493   1.136 -11.465  1.00 49.50    -0.082 Cl
HETATM    9  C4    D T 400       5.142   2.031  -9.421  1.00 57.51     0.028 A 
ENDBRANCH   1   2
BRANCH   1  10
HETATM   10  C8    D T 400       4.422   2.306  -6.285  1.00 59.17     0.111 A 
HETATM   11  C9    D T 400       4.088   2.921  -5.102  1.00 58.03     0.081 A 
HETATM   12  C10   D T 400       3.714   2.183  -4.005  1.00 63.10     0.025 A 
HETATM   13 CL16   D T 400       4.143   4.705  -4.991  1.00 86.42    -0.080 Cl
HETATM   14  C11   D T 400       3.681   0.807  -4.110  1.00 63.97     0.059 A 
HETATM   15  C12   D T 400       4.019   0.168  -5.303  1.00 65.40     0.013 A 
HETATM   16 CL15   D T 400       3.193  -0.108  -2.659  1.00 74.53    -0.082 Cl
HETATM   17  C13   D T 400       4.404   0.920  -6.408  1.00 59.83     0.026 A 
ENDBRANCH   1  10
TORSDOF 2
ENDMDL
MODEL 7
REMARK VINA RESULT:    -6.975      1.109      1.834
REMARK INTER + INTRA:          -8.322
REMARK INTER:                  -8.109
REMARK INTRA:                  -0.213
REMARK UNBOUND:                -0.532
REMARK  2 active torsions:
REMARK  status: ('A' for Active; 'I' for Inactive)
REMARK    1  A    between atoms: C5_4  and  O7_13 
REMARK    2  A    between atoms: C8_10  and  O7_13 
ROOT
HETATM    1  O7    D T 400       6.392   1.090  -6.329  1.00 63.04    -0.304 OA
ENDROOT
BRANCH   1   2
HETATM    2  C5    D T 400       6.811   1.277  -7.614  1.00 59.76     0.125 A 
HETATM    3  C6    D T 400       6.024   0.817  -8.646  1.00 54.83     0.154 A 
HETATM    4  C1    D T 400       6.420   1.023  -9.966  1.00 54.43     0.041 A 
HETATM    5  O17   D T 400       4.877   0.160  -8.337  1.00 54.30    -0.188 OA
HETATM    6  C2    D T 400       7.614   1.693 -10.217  1.00 50.51     0.060 A 
HETATM    7  C3    D T 400       8.407   2.158  -9.177  1.00 52.10     0.014 A 
HETATM    8 CL14   D T 400       8.153   1.971 -11.889  1.00 49.50    -0.082 Cl
HETATM    9  C4    D T 400       7.995   1.965  -7.867  1.00 57.51     0.028 A 
ENDBRANCH   1   2
BRANCH   1  10
HETATM   10  C8    D T 400       5.589   1.998  -5.709  1.00 59.17     0.111 A 
HETATM   11  C9    D T 400       4.457   1.518  -5.097  1.00 58.03     0.081 A 
HETATM   12  C10   D T 400       3.589   2.367  -4.454  1.00 63.10     0.025 A 
HETATM   13 CL16   D T 400       4.109  -0.236  -5.138  1.00 86.42    -0.080 Cl
HETATM   14  C11   D T 400       3.872   3.718  -4.436  1.00 63.97     0.059 A 
HETATM   15  C12   D T 400       5.016   4.221  -5.055  1.00 65.40     0.013 A 
HETATM   16 CL15   D T 400       2.715   4.781  -3.593  1.00 74.53    -0.082 Cl
HETATM   17  C13   D T 400       5.887   3.357  -5.711  1.00 59.83     0.026 A 
ENDBRANCH   1  10
TORSDOF 2
ENDMDL
MODEL 8
REMARK VINA RESULT:    -6.906      1.866      2.792
REMARK INTER + INTRA:          -8.245
REMARK INTER:                  -8.063
REMARK INTRA:                  -0.182
REMARK UNBOUND:                -0.532
REMARK  2 active torsions:
REMARK  status: ('A' for Active; 'I' for Inactive)
REMARK    1  A    between atoms: C5_4  and  O7_13 
REMARK    2  A    between atoms: C8_10  and  O7_13 
ROOT
HETATM    1  O7    D T 400       6.386   3.399  -6.696  1.00 63.04    -0.304 OA
ENDROOT
BRANCH   1   2
HETATM    2  C5    D T 400       6.713   3.057  -7.976  1.00 59.76     0.125 A 
HETATM    3  C6    D T 400       5.932   3.520  -9.011  1.00 54.83     0.154 A 
HETATM    4  C1    D T 400       6.265   3.206 -10.326  1.00 54.43     0.041 A 
HETATM    5  O17   D T 400       4.842   4.272  -8.708  1.00 54.30    -0.188 OA
HETATM    6  C2    D T 400       7.388   2.421 -10.571  1.00 50.51     0.060 A 
HETATM    7  C3    D T 400       8.177   1.955  -9.528  1.00 52.10     0.014 A 
HETATM    8 CL14   D T 400       7.842   1.997 -12.237  1.00 49.50    -0.082 Cl
HETATM    9  C4    D T 400       7.848   2.289  -8.223  1.00 57.51     0.028 A 
ENDBRANCH   1   2
BRANCH   1  10
HETATM   10  C8    D T 400       5.737   2.526  -5.877  1.00 59.17     0.111 A 
HETATM   11  C9    D T 400       4.655   3.006  -5.181  1.00 58.03     0.081 A 
HETATM   12  C10   D T 400       3.948   2.194  -4.328  1.00 63.10     0.025 A 
HETATM   13 CL16   D T 400       4.161   4.713  -5.388  1.00 86.42    -0.080 Cl
HETATM   14  C11   D T 400       4.347   0.881  -4.178  1.00 63.97     0.059 A 
HETATM   15  C12   D T 400       5.444   0.379  -4.876  1.00 65.40     0.013 A 
HETATM   16 CL15   D T 400       3.400  -0.135  -3.058  1.00 74.53    -0.082 Cl
HETATM   17  C13   D T 400       6.161   1.209  -5.733  1.00 59.83     0.026 A 
ENDBRANCH   1  10
TORSDOF 2
ENDMDL
MODEL 9
REMARK VINA RESULT:    -6.883      2.573      6.239
REMARK INTER + INTRA:          -8.220
REMARK INTER:                  -7.694
REMARK INTRA:                  -0.526
REMARK UNBOUND:                -0.532
REMARK  2 active torsions:
REMARK  status: ('A' for Active; 'I' for Inactive)
REMARK    1  A    between atoms: C5_4  and  O7_13 
REMARK    2  A    between atoms: C8_10  and  O7_13 
ROOT
HETATM    1  O7    D T 400       4.017   2.767  -5.973  1.00 63.04    -0.304 OA
ENDROOT
BRANCH   1   2
HETATM    2  C5    D T 400       4.516   3.120  -4.753  1.00 59.76     0.125 A 
HETATM    3  C6    D T 400       4.352   4.414  -4.314  1.00 54.83     0.154 A 
HETATM    4  C1    D T 400       4.829   4.787  -3.060  1.00 54.43     0.041 A 
HETATM    5  O17   D T 400       3.727   5.298  -5.135  1.00 54.30    -0.188 OA
HETATM    6  C2    D T 400       5.471   3.837  -2.270  1.00 50.51     0.060 A 
HETATM    7  C3    D T 400       5.636   2.532  -2.712  1.00 52.10     0.014 A 
HETATM    8 CL14   D T 400       6.097   4.279  -0.665  1.00 49.50    -0.082 Cl
HETATM    9  C4    D T 400       5.141   2.165  -3.954  1.00 57.51     0.028 A 
ENDBRANCH   1   2
BRANCH   1  10
HETATM   10  C8    D T 400       4.841   2.395  -6.992  1.00 59.17     0.111 A 
HETATM   11  C9    D T 400       4.588   1.185  -7.592  1.00 58.03     0.081 A 
HETATM   12  C10   D T 400       5.374   0.732  -8.624  1.00 63.10     0.025 A 
HETATM   13 CL16   D T 400       3.216   0.188  -7.022  1.00 86.42    -0.080 Cl
HETATM   14  C11   D T 400       6.430   1.514  -9.047  1.00 63.97     0.059 A 
HETATM   15  C12   D T 400       6.701   2.743  -8.446  1.00 65.40     0.013 A 
HETATM   16 CL15   D T 400       7.425   0.882 -10.386  1.00 74.53    -0.082 Cl
HETATM   17  C13   D T 400       5.905   3.193  -7.397  1.00 59.83     0.026 A 
ENDBRANCH   1  10
TORSDOF 2
ENDMDL
