MODEL 1
REMARK VINA RESULT:    -8.045      0.000      0.000
REMARK INTER + INTRA:          -9.295
REMARK INTER:                  -8.986
REMARK INTRA:                  -0.309
REMARK UNBOUND:                -0.309
REMARK  2 active torsions:
REMARK  status: ('A' for Active; 'I' for Inactive)
REMARK    1  A    between atoms: C5_4  and  O7_13 
REMARK    2  A    between atoms: C8_10  and  O7_13 
ROOT
HETATM    1  O7    D T 400       6.046 -23.391  -9.548  1.00 63.04    -0.304 OA
ENDROOT
BRANCH   1   2
HETATM    2  C5    D T 400       4.881 -22.901 -10.064  1.00 59.76     0.125 A 
HETATM    3  C6    D T 400       4.311 -21.788  -9.485  1.00 54.83     0.154 A 
HETATM    4  C1    D T 400       3.138 -21.256 -10.013  1.00 54.43     0.041 A 
HETATM    5  O17   D T 400       4.919 -21.247  -8.398  1.00 54.30    -0.188 OA
HETATM    6  C2    D T 400       2.558 -21.865 -11.122  1.00 50.51     0.060 A 
HETATM    7  C3    D T 400       3.132 -22.985 -11.706  1.00 52.10     0.014 A 
HETATM    8 CL14   D T 400       1.057 -21.215 -11.821  1.00 49.50    -0.082 Cl
HETATM    9  C4    D T 400       4.310 -23.497 -11.184  1.00 57.51     0.028 A 
ENDBRANCH   1   2
BRANCH   1  10
HETATM   10  C8    D T 400       6.094 -24.615  -8.953  1.00 59.17     0.111 A 
HETATM   11  C9    D T 400       7.296 -25.279  -8.986  1.00 58.03     0.081 A 
HETATM   12  C10   D T 400       7.430 -26.522  -8.415  1.00 63.10     0.025 A 
HETATM   13 CL16   D T 400       8.703 -24.517  -9.783  1.00 86.42    -0.080 Cl
HETATM   14  C11   D T 400       6.331 -27.095  -7.808  1.00 63.97     0.059 A 
HETATM   15  C12   D T 400       5.104 -26.434  -7.768  1.00 65.40     0.013 A 
HETATM   16 CL15   D T 400       6.552 -28.711  -7.083  1.00 74.53    -0.082 Cl
HETATM   17  C13   D T 400       4.973 -25.179  -8.354  1.00 59.83     0.026 A 
ENDBRANCH   1  10
TORSDOF 2
ENDMDL
MODEL 2
REMARK VINA RESULT:    -7.879      1.300      1.920
REMARK INTER + INTRA:          -9.109
REMARK INTER:                  -8.881
REMARK INTRA:                  -0.229
REMARK UNBOUND:                -0.309
REMARK  2 active torsions:
REMARK  status: ('A' for Active; 'I' for Inactive)
REMARK    1  A    between atoms: C5_4  and  O7_13 
REMARK    2  A    between atoms: C8_10  and  O7_13 
ROOT
HETATM    1  O7    D T 400       6.101 -23.446 -10.079  1.00 63.04    -0.304 OA
ENDROOT
BRANCH   1   2
HETATM    2  C5    D T 400       5.092 -22.565  -9.815  1.00 59.76     0.125 A 
HETATM    3  C6    D T 400       4.109 -22.374 -10.760  1.00 54.83     0.154 A 
HETATM    4  C1    D T 400       3.056 -21.501 -10.498  1.00 54.43     0.041 A 
HETATM    5  O17   D T 400       4.207 -23.047 -11.935  1.00 54.30    -0.188 OA
HETATM    6  C2    D T 400       3.018 -20.832  -9.279  1.00 50.51     0.060 A 
HETATM    7  C3    D T 400       4.008 -21.026  -8.325  1.00 52.10     0.014 A 
HETATM    8 CL14   D T 400       1.691 -19.707  -8.912  1.00 49.50    -0.082 Cl
HETATM    9  C4    D T 400       5.043 -21.910  -8.588  1.00 57.51     0.028 A 
ENDBRANCH   1   2
BRANCH   1  10
HETATM   10  C8    D T 400       6.275 -24.567  -9.325  1.00 59.17     0.111 A 
HETATM   11  C9    D T 400       7.537 -25.106  -9.289  1.00 58.03     0.081 A 
HETATM   12  C10   D T 400       7.797 -26.240  -8.558  1.00 63.10     0.025 A 
HETATM   13 CL16   D T 400       8.857 -24.324 -10.206  1.00 86.42    -0.080 Cl
HETATM   14  C11   D T 400       6.764 -26.832  -7.860  1.00 63.97     0.059 A 
HETATM   15  C12   D T 400       5.477 -26.297  -7.889  1.00 65.40     0.013 A 
HETATM   16 CL15   D T 400       7.150 -28.304  -6.928  1.00 74.53    -0.082 Cl
HETATM   17  C13   D T 400       5.218 -25.153  -8.637  1.00 59.83     0.026 A 
ENDBRANCH   1  10
TORSDOF 2
ENDMDL
MODEL 3
REMARK VINA RESULT:    -7.853      1.816      6.017
REMARK INTER + INTRA:          -9.081
REMARK INTER:                  -8.620
REMARK INTRA:                  -0.461
REMARK UNBOUND:                -0.309
REMARK  2 active torsions:
REMARK  status: ('A' for Active; 'I' for Inactive)
REMARK    1  A    between atoms: C5_4  and  O7_13 
REMARK    2  A    between atoms: C8_10  and  O7_13 
ROOT
HETATM    1  O7    D T 400       5.697 -23.564  -9.990  1.00 63.04    -0.304 OA
ENDROOT
BRANCH   1   2
HETATM    2  C5    D T 400       5.948 -24.673  -9.234  1.00 59.76     0.125 A 
HETATM    3  C6    D T 400       7.255 -25.056  -9.027  1.00 54.83     0.154 A 
HETATM    4  C1    D T 400       7.533 -26.168  -8.235  1.00 54.43     0.041 A 
HETATM    5  O17   D T 400       8.239 -24.330  -9.616  1.00 54.30    -0.188 OA
HETATM    6  C2    D T 400       6.478 -26.876  -7.668  1.00 50.51     0.060 A 
HETATM    7  C3    D T 400       5.162 -26.489  -7.876  1.00 52.10     0.014 A 
HETATM    8 CL14   D T 400       6.797 -28.303  -6.656  1.00 49.50    -0.082 Cl
HETATM    9  C4    D T 400       4.895 -25.371  -8.651  1.00 57.51     0.028 A 
ENDBRANCH   1   2
BRANCH   1  10
HETATM   10  C8    D T 400       4.831 -22.602  -9.565  1.00 59.17     0.111 A 
HETATM   11  C9    D T 400       3.676 -22.436 -10.289  1.00 58.03     0.081 A 
HETATM   12  C10   D T 400       2.752 -21.484  -9.933  1.00 63.10     0.025 A 
HETATM   13 CL16   D T 400       3.372 -23.473 -11.714  1.00 86.42    -0.080 Cl
HETATM   14  C11   D T 400       3.006 -20.691  -8.832  1.00 63.97     0.059 A 
HETATM   15  C12   D T 400       4.175 -20.846  -8.088  1.00 65.40     0.013 A 
HETATM   16 CL15   D T 400       1.778 -19.467  -8.410  1.00 74.53    -0.082 Cl
HETATM   17  C13   D T 400       5.110 -21.807  -8.458  1.00 59.83     0.026 A 
ENDBRANCH   1  10
TORSDOF 2
ENDMDL
MODEL 4
REMARK VINA RESULT:    -7.778      1.564      5.998
REMARK INTER + INTRA:          -8.996
REMARK INTER:                  -8.607
REMARK INTRA:                  -0.390
REMARK UNBOUND:                -0.309
REMARK  2 active torsions:
REMARK  status: ('A' for Active; 'I' for Inactive)
REMARK    1  A    between atoms: C5_4  and  O7_13 
REMARK    2  A    between atoms: C8_10  and  O7_13 
ROOT
HETATM    1  O7    D T 400       6.267 -23.132  -9.925  1.00 63.04    -0.304 OA
ENDROOT
BRANCH   1   2
HETATM    2  C5    D T 400       6.544 -24.339  -9.352  1.00 59.76     0.125 A 
HETATM    3  C6    D T 400       7.783 -24.906  -9.555  1.00 54.83     0.154 A 
HETATM    4  C1    D T 400       8.095 -26.124  -8.956  1.00 54.43     0.041 A 
HETATM    5  O17   D T 400       8.667 -24.250 -10.351  1.00 54.30    -0.188 OA
HETATM    6  C2    D T 400       7.141 -26.751  -8.161  1.00 50.51     0.060 A 
HETATM    7  C3    D T 400       5.893 -26.180  -7.954  1.00 52.10     0.014 A 
HETATM    8 CL14   D T 400       7.504 -28.309  -7.383  1.00 49.50    -0.082 Cl
HETATM    9  C4    D T 400       5.598 -24.958  -8.540  1.00 57.51     0.028 A 
ENDBRANCH   1   2
BRANCH   1  10
HETATM   10  C8    D T 400       5.021 -22.843 -10.395  1.00 59.17     0.111 A 
HETATM   11  C9    D T 400       4.270 -21.954  -9.667  1.00 58.03     0.081 A 
HETATM   12  C10   D T 400       3.000 -21.611 -10.067  1.00 63.10     0.025 A 
HETATM   13 CL16   D T 400       4.952 -21.232  -8.179  1.00 86.42    -0.080 Cl
HETATM   14  C11   D T 400       2.490 -22.182 -11.215  1.00 63.97     0.059 A 
HETATM   15  C12   D T 400       3.240 -23.088 -11.964  1.00 65.40     0.013 A 
HETATM   16 CL15   D T 400       0.836 -21.710 -11.693  1.00 74.53    -0.082 Cl
HETATM   17  C13   D T 400       4.522 -23.435 -11.550  1.00 59.83     0.026 A 
ENDBRANCH   1  10
TORSDOF 2
ENDMDL
MODEL 5
REMARK VINA RESULT:    -7.638     10.647     12.618
REMARK INTER + INTRA:          -8.841
REMARK INTER:                  -8.652
REMARK INTRA:                  -0.189
REMARK UNBOUND:                -0.309
REMARK  2 active torsions:
REMARK  status: ('A' for Active; 'I' for Inactive)
REMARK    1  A    between atoms: C5_4  and  O7_13 
REMARK    2  A    between atoms: C8_10  and  O7_13 
ROOT
HETATM    1  O7    D T 400       1.882 -17.310  -0.514  1.00 63.04    -0.304 OA
ENDROOT
BRANCH   1   2
HETATM    2  C5    D T 400       2.299 -17.132  -1.802  1.00 59.76     0.125 A 
HETATM    3  C6    D T 400       3.645 -16.982  -2.052  1.00 54.83     0.154 A 
HETATM    4  C1    D T 400       4.093 -16.827  -3.362  1.00 54.43     0.041 A 
HETATM    5  O17   D T 400       4.499 -16.982  -0.997  1.00 54.30    -0.188 OA
HETATM    6  C2    D T 400       3.166 -16.825  -4.399  1.00 50.51     0.060 A 
HETATM    7  C3    D T 400       1.809 -16.977  -4.147  1.00 52.10     0.014 A 
HETATM    8 CL14   D T 400       3.702 -16.625  -6.083  1.00 49.50    -0.082 Cl
HETATM    9  C4    D T 400       1.374 -17.149  -2.842  1.00 57.51     0.028 A 
ENDBRANCH   1   2
BRANCH   1  10
HETATM   10  C8    D T 400       0.696 -16.799  -0.080  1.00 59.17     0.111 A 
HETATM   11  C9    D T 400       0.643 -15.444   0.139  1.00 58.03     0.081 A 
HETATM   12  C10   D T 400      -0.512 -14.847   0.583  1.00 63.10     0.025 A 
HETATM   13 CL16   D T 400       2.096 -14.445  -0.159  1.00 86.42    -0.080 Cl
HETATM   14  C11   D T 400      -1.622 -15.636   0.811  1.00 63.97     0.059 A 
HETATM   15  C12   D T 400      -1.582 -17.013   0.596  1.00 65.40     0.013 A 
HETATM   16 CL15   D T 400      -3.097 -14.817   1.391  1.00 74.53    -0.082 Cl
HETATM   17  C13   D T 400      -0.408 -17.612   0.152  1.00 59.83     0.026 A 
ENDBRANCH   1  10
TORSDOF 2
ENDMDL
MODEL 6
REMARK VINA RESULT:    -7.612     10.402     12.073
REMARK INTER + INTRA:          -8.811
REMARK INTER:                  -8.271
REMARK INTRA:                  -0.540
REMARK UNBOUND:                -0.309
REMARK  2 active torsions:
REMARK  status: ('A' for Active; 'I' for Inactive)
REMARK    1  A    between atoms: C5_4  and  O7_13 
REMARK    2  A    between atoms: C8_10  and  O7_13 
ROOT
HETATM    1  O7    D T 400       1.758 -17.765  -0.884  1.00 63.04    -0.304 OA
ENDROOT
BRANCH   1   2
HETATM    2  C5    D T 400       0.688 -17.067  -0.403  1.00 59.76     0.125 A 
HETATM    3  C6    D T 400      -0.517 -17.715  -0.250  1.00 54.83     0.154 A 
HETATM    4  C1    D T 400      -1.614 -17.028   0.266  1.00 54.43     0.041 A 
HETATM    5  O17   D T 400      -0.598 -19.019  -0.620  1.00 54.30    -0.188 OA
HETATM    6  C2    D T 400      -1.470 -15.689   0.616  1.00 50.51     0.060 A 
HETATM    7  C3    D T 400      -0.255 -15.036   0.463  1.00 52.10     0.014 A 
HETATM    8 CL14   D T 400      -2.849 -14.780   1.274  1.00 49.50    -0.082 Cl
HETATM    9  C4    D T 400       0.836 -15.733  -0.034  1.00 57.51     0.028 A 
ENDBRANCH   1   2
BRANCH   1  10
HETATM   10  C8    D T 400       2.281 -17.496  -2.113  1.00 59.17     0.111 A 
HETATM   11  C9    D T 400       3.608 -17.148  -2.164  1.00 58.03     0.081 A 
HETATM   12  C10   D T 400       4.213 -16.855  -3.363  1.00 63.10     0.025 A 
HETATM   13 CL16   D T 400       4.561 -17.074  -0.653  1.00 86.42    -0.080 Cl
HETATM   14  C11   D T 400       3.461 -16.913  -4.518  1.00 63.97     0.059 A 
HETATM   15  C12   D T 400       2.111 -17.263  -4.482  1.00 65.40     0.013 A 
HETATM   16 CL15   D T 400       4.289 -16.521  -6.050  1.00 74.53    -0.082 Cl
HETATM   17  C13   D T 400       1.503 -17.552  -3.264  1.00 59.83     0.026 A 
ENDBRANCH   1  10
TORSDOF 2
ENDMDL
MODEL 7
REMARK VINA RESULT:    -7.604     10.624     12.367
REMARK INTER + INTRA:          -8.802
REMARK INTER:                  -8.576
REMARK INTRA:                  -0.226
REMARK UNBOUND:                -0.309
REMARK  2 active torsions:
REMARK  status: ('A' for Active; 'I' for Inactive)
REMARK    1  A    between atoms: C5_4  and  O7_13 
REMARK    2  A    between atoms: C8_10  and  O7_13 
ROOT
HETATM    1  O7    D T 400       1.729 -16.953  -0.704  1.00 63.04    -0.304 OA
ENDROOT
BRANCH   1   2
HETATM    2  C5    D T 400       0.575 -16.454  -0.170  1.00 59.76     0.125 A 
HETATM    3  C6    D T 400       0.401 -15.089  -0.117  1.00 54.83     0.154 A 
HETATM    4  C1    D T 400      -0.780 -14.561   0.397  1.00 54.43     0.041 A 
HETATM    5  O17   D T 400       1.405 -14.294  -0.569  1.00 54.30    -0.188 OA
HETATM    6  C2    D T 400      -1.767 -15.428   0.855  1.00 50.51     0.060 A 
HETATM    7  C3    D T 400      -1.592 -16.804   0.801  1.00 52.10     0.014 A 
HETATM    8 CL14   D T 400      -3.286 -14.789   1.522  1.00 49.50    -0.082 Cl
HETATM    9  C4    D T 400      -0.420 -17.321   0.270  1.00 57.51     0.028 A 
ENDBRANCH   1   2
BRANCH   1  10
HETATM   10  C8    D T 400       1.864 -17.133  -2.047  1.00 59.17     0.111 A 
HETATM   11  C9    D T 400       3.000 -16.632  -2.633  1.00 58.03     0.081 A 
HETATM   12  C10   D T 400       3.213 -16.764  -3.984  1.00 63.10     0.025 A 
HETATM   13 CL16   D T 400       4.218 -15.795  -1.625  1.00 86.42    -0.080 Cl
HETATM   14  C11   D T 400       2.260 -17.409  -4.747  1.00 63.97     0.059 A 
HETATM   15  C12   D T 400       1.100 -17.921  -4.166  1.00 65.40     0.013 A 
HETATM   16 CL15   D T 400       2.579 -17.554  -6.497  1.00 74.53    -0.082 Cl
HETATM   17  C13   D T 400       0.888 -17.778  -2.799  1.00 59.83     0.026 A 
ENDBRANCH   1  10
TORSDOF 2
ENDMDL
MODEL 8
REMARK VINA RESULT:    -7.500     10.331     12.372
REMARK INTER + INTRA:          -8.686
REMARK INTER:                  -8.212
REMARK INTRA:                  -0.474
REMARK UNBOUND:                -0.309
REMARK  2 active torsions:
REMARK  status: ('A' for Active; 'I' for Inactive)
REMARK    1  A    between atoms: C5_4  and  O7_13 
REMARK    2  A    between atoms: C8_10  and  O7_13 
ROOT
HETATM    1  O7    D T 400       1.675 -17.251  -0.856  1.00 63.04    -0.304 OA
ENDROOT
BRANCH   1   2
HETATM    2  C5    D T 400       1.800 -17.499  -2.193  1.00 59.76     0.125 A 
HETATM    3  C6    D T 400       1.888 -18.804  -2.624  1.00 54.83     0.154 A 
HETATM    4  C1    D T 400       1.988 -19.079  -3.986  1.00 54.43     0.041 A 
HETATM    5  O17   D T 400       1.881 -19.791  -1.691  1.00 54.30    -0.188 OA
HETATM    6  C2    D T 400       2.002 -18.022  -4.890  1.00 50.51     0.060 A 
HETATM    7  C3    D T 400       1.912 -16.707  -4.456  1.00 52.10     0.014 A 
HETATM    8 CL14   D T 400       2.133 -18.336  -6.636  1.00 49.50    -0.082 Cl
HETATM    9  C4    D T 400       1.794 -16.443  -3.100  1.00 57.51     0.028 A 
ENDBRANCH   1   2
BRANCH   1  10
HETATM   10  C8    D T 400       0.526 -16.732  -0.340  1.00 59.17     0.111 A 
HETATM   11  C9    D T 400       0.546 -15.408   0.023  1.00 58.03     0.081 A 
HETATM   12  C10   D T 400      -0.569 -14.808   0.558  1.00 63.10     0.025 A 
HETATM   13 CL16   D T 400       2.041 -14.455  -0.201  1.00 86.42    -0.080 Cl
HETATM   14  C11   D T 400      -1.712 -15.561   0.728  1.00 63.97     0.059 A 
HETATM   15  C12   D T 400      -1.747 -16.908   0.365  1.00 65.40     0.013 A 
HETATM   16 CL15   D T 400      -3.133 -14.739   1.428  1.00 74.53    -0.082 Cl
HETATM   17  C13   D T 400      -0.614 -17.512  -0.169  1.00 59.83     0.026 A 
ENDBRANCH   1  10
TORSDOF 2
ENDMDL
MODEL 9
REMARK VINA RESULT:    -7.432      2.715      3.528
REMARK INTER + INTRA:          -8.610
REMARK INTER:                  -8.127
REMARK INTRA:                  -0.483
REMARK UNBOUND:                -0.309
REMARK  2 active torsions:
REMARK  status: ('A' for Active; 'I' for Inactive)
REMARK    1  A    between atoms: C5_4  and  O7_13 
REMARK    2  A    between atoms: C8_10  and  O7_13 
ROOT
HETATM    1  O7    D T 400       3.977 -23.135  -9.345  1.00 63.04    -0.304 OA
ENDROOT
BRANCH   1   2
HETATM    2  C5    D T 400       3.921 -21.977  -8.626  1.00 59.76     0.125 A 
HETATM    3  C6    D T 400       3.909 -20.774  -9.298  1.00 54.83     0.154 A 
HETATM    4  C1    D T 400       3.822 -19.582  -8.583  1.00 54.43     0.041 A 
HETATM    5  O17   D T 400       3.990 -20.794 -10.653  1.00 54.30    -0.188 OA
HETATM    6  C2    D T 400       3.753 -19.629  -7.194  1.00 50.51     0.060 A 
HETATM    7  C3    D T 400       3.764 -20.840  -6.517  1.00 52.10     0.014 A 
HETATM    8 CL14   D T 400       3.647 -18.126  -6.249  1.00 49.50    -0.082 Cl
HETATM    9  C4    D T 400       3.832 -22.023  -7.238  1.00 57.51     0.028 A 
ENDBRANCH   1   2
BRANCH   1  10
HETATM   10  C8    D T 400       4.882 -24.109  -9.045  1.00 59.17     0.111 A 
HETATM   11  C9    D T 400       4.392 -25.271  -8.502  1.00 58.03     0.081 A 
HETATM   12  C10   D T 400       5.236 -26.301  -8.165  1.00 63.10     0.025 A 
HETATM   13 CL16   D T 400       2.633 -25.446  -8.232  1.00 86.42    -0.080 Cl
HETATM   14  C11   D T 400       6.591 -26.147  -8.377  1.00 63.97     0.059 A 
HETATM   15  C12   D T 400       7.104 -24.971  -8.926  1.00 65.40     0.013 A 
HETATM   16 CL15   D T 400       7.648 -27.510  -7.920  1.00 74.53    -0.082 Cl
HETATM   17  C13   D T 400       6.244 -23.929  -9.259  1.00 59.83     0.026 A 
ENDBRANCH   1  10
TORSDOF 2
ENDMDL
