MODEL 1
REMARK VINA RESULT:      -8.0      0.000      0.000
REMARK  2 active torsions:
REMARK  status: ('A' for Active; 'I' for Inactive)
REMARK    1  A    between atoms: C5_4  and  O7_13 
REMARK    2  A    between atoms: C8_10  and  O7_13 
ROOT
HETATM    1  O7    D T 400       5.944 -23.426  -9.992  1.00 63.04    -0.304 OA
ENDROOT
BRANCH   1   2
HETATM    2  C5    D T 400       5.105 -22.379  -9.739  1.00 59.76     0.125 A 
HETATM    3  C6    D T 400       4.225 -21.978 -10.720  1.00 54.83     0.154 A 
HETATM    4  C1    D T 400       3.341 -20.930 -10.472  1.00 54.43     0.041 A 
HETATM    5  O17   D T 400       4.255 -22.624 -11.914  1.00 54.30    -0.188 OA
HETATM    6  C2    D T 400       3.368 -20.302  -9.231  1.00 50.51     0.060 A 
HETATM    7  C3    D T 400       4.255 -20.706  -8.243  1.00 52.10     0.014 A 
HETATM    8 CL14   D T 400       2.258 -18.957  -8.882  1.00 49.50    -0.082 Cl
HETATM    9  C4    D T 400       5.118 -21.762  -8.492  1.00 57.51     0.028 A 
ENDBRANCH   1   2
BRANCH   1  10
HETATM   10  C8    D T 400       5.891 -24.567  -9.249  1.00 59.17     0.111 A 
HETATM   11  C9    D T 400       7.083 -25.195  -8.982  1.00 58.03     0.081 A 
HETATM   12  C10   D T 400       7.119 -26.354  -8.245  1.00 63.10     0.025 A 
HETATM   13 CL16   D T 400       8.607 -24.495  -9.603  1.00 86.42    -0.080 Cl
HETATM   14  C11   D T 400       5.932 -26.881  -7.779  1.00 63.97     0.059 A 
HETATM   15  C12   D T 400       4.713 -26.256  -8.043  1.00 65.40     0.013 A 
HETATM   16 CL15   D T 400       6.028 -28.389  -6.829  1.00 74.53    -0.082 Cl
HETATM   17  C13   D T 400       4.684 -25.086  -8.795  1.00 59.83     0.026 A 
ENDBRANCH   1  10
TORSDOF 2
ENDMDL
MODEL 2
REMARK VINA RESULT:      -8.0      1.574      2.138
REMARK  2 active torsions:
REMARK  status: ('A' for Active; 'I' for Inactive)
REMARK    1  A    between atoms: C5_4  and  O7_13 
REMARK    2  A    between atoms: C8_10  and  O7_13 
ROOT
HETATM    1  O7    D T 400       6.131 -23.383  -9.543  1.00 63.04    -0.304 OA
ENDROOT
BRANCH   1   2
HETATM    2  C5    D T 400       4.875 -23.016  -9.931  1.00 59.76     0.125 A 
HETATM    3  C6    D T 400       4.267 -21.953  -9.300  1.00 54.83     0.154 A 
HETATM    4  C1    D T 400       2.997 -21.544  -9.700  1.00 54.43     0.041 A 
HETATM    5  O17   D T 400       4.934 -21.337  -8.291  1.00 54.30    -0.188 OA
HETATM    6  C2    D T 400       2.361 -22.225 -10.734  1.00 50.51     0.060 A 
HETATM    7  C3    D T 400       2.974 -23.296 -11.370  1.00 52.10     0.014 A 
HETATM    8 CL14   D T 400       0.737 -21.733 -11.267  1.00 49.50    -0.082 Cl
HETATM    9  C4    D T 400       4.246 -23.683 -10.977  1.00 57.51     0.028 A 
ENDBRANCH   1   2
BRANCH   1  10
HETATM   10  C8    D T 400       6.360 -24.581  -8.937  1.00 59.17     0.111 A 
HETATM   11  C9    D T 400       7.558 -25.198  -9.203  1.00 58.03     0.081 A 
HETATM   12  C10   D T 400       7.867 -26.412  -8.638  1.00 63.10     0.025 A 
HETATM   13 CL16   D T 400       8.731 -24.411 -10.300  1.00 86.42    -0.080 Cl
HETATM   14  C11   D T 400       6.947 -27.005  -7.797  1.00 63.97     0.059 A 
HETATM   15  C12   D T 400       5.726 -26.393  -7.519  1.00 65.40     0.013 A 
HETATM   16 CL15   D T 400       7.391 -28.582  -7.089  1.00 74.53    -0.082 Cl
HETATM   17  C13   D T 400       5.417 -25.167  -8.100  1.00 59.83     0.026 A 
ENDBRANCH   1  10
TORSDOF 2
ENDMDL
MODEL 3
REMARK VINA RESULT:      -7.8      1.570      5.973
REMARK  2 active torsions:
REMARK  status: ('A' for Active; 'I' for Inactive)
REMARK    1  A    between atoms: C5_4  and  O7_13 
REMARK    2  A    between atoms: C8_10  and  O7_13 
ROOT
HETATM    1  O7    D T 400       6.065 -23.429 -10.006  1.00 63.04    -0.304 OA
ENDROOT
BRANCH   1   2
HETATM    2  C5    D T 400       6.300 -24.577  -9.305  1.00 59.76     0.125 A 
HETATM    3  C6    D T 400       7.598 -25.010  -9.149  1.00 54.83     0.154 A 
HETATM    4  C1    D T 400       7.860 -26.163  -8.413  1.00 54.43     0.041 A 
HETATM    5  O17   D T 400       8.590 -24.291  -9.734  1.00 54.30    -0.188 OA
HETATM    6  C2    D T 400       6.798 -26.861  -7.847  1.00 50.51     0.060 A 
HETATM    7  C3    D T 400       5.490 -26.425  -8.003  1.00 52.10     0.014 A 
HETATM    8 CL14   D T 400       7.096 -28.340  -6.905  1.00 49.50    -0.082 Cl
HETATM    9  C4    D T 400       5.240 -25.266  -8.722  1.00 57.51     0.028 A 
ENDBRANCH   1   2
BRANCH   1  10
HETATM   10  C8    D T 400       5.104 -22.547  -9.615  1.00 59.17     0.111 A 
HETATM   11  C9    D T 400       4.093 -22.288 -10.508  1.00 58.03     0.081 A 
HETATM   12  C10   D T 400       3.086 -21.406 -10.195  1.00 63.10     0.025 A 
HETATM   13 CL16   D T 400       4.088 -23.107 -12.097  1.00 86.42    -0.080 Cl
HETATM   14  C11   D T 400       3.110 -20.780  -8.966  1.00 63.97     0.059 A 
HETATM   15  C12   D T 400       4.131 -21.032  -8.049  1.00 65.40     0.013 A 
HETATM   16 CL15   D T 400       1.784 -19.642  -8.606  1.00 74.53    -0.082 Cl
HETATM   17  C13   D T 400       5.150 -21.921  -8.374  1.00 59.83     0.026 A 
ENDBRANCH   1  10
TORSDOF 2
ENDMDL
MODEL 4
REMARK VINA RESULT:      -7.7      9.507     12.368
REMARK  2 active torsions:
REMARK  status: ('A' for Active; 'I' for Inactive)
REMARK    1  A    between atoms: C5_4  and  O7_13 
REMARK    2  A    between atoms: C8_10  and  O7_13 
ROOT
HETATM    1  O7    D T 400       1.958 -17.295  -0.343  1.00 63.04    -0.304 OA
ENDROOT
BRANCH   1   2
HETATM    2  C5    D T 400       2.449 -17.106  -1.603  1.00 59.76     0.125 A 
HETATM    3  C6    D T 400       3.811 -17.002  -1.780  1.00 54.83     0.154 A 
HETATM    4  C1    D T 400       4.333 -16.838  -3.061  1.00 54.43     0.041 A 
HETATM    5  O17   D T 400       4.608 -17.056  -0.682  1.00 54.30    -0.188 OA
HETATM    6  C2    D T 400       3.461 -16.779  -4.144  1.00 50.51     0.060 A 
HETATM    7  C3    D T 400       2.089 -16.885  -3.966  1.00 52.10     0.014 A 
HETATM    8 CL14   D T 400       4.093 -16.566  -5.793  1.00 49.50    -0.082 Cl
HETATM    9  C4    D T 400       1.580 -17.066  -2.689  1.00 57.51     0.028 A 
ENDBRANCH   1   2
BRANCH   1  10
HETATM   10  C8    D T 400       0.761 -16.765   0.035  1.00 59.17     0.111 A 
HETATM   11  C9    D T 400       0.698 -15.401   0.176  1.00 58.03     0.081 A 
HETATM   12  C10   D T 400      -0.469 -14.786   0.560  1.00 63.10     0.025 A 
HETATM   13 CL16   D T 400       2.154 -14.413  -0.142  1.00 86.42    -0.080 Cl
HETATM   14  C11   D T 400      -1.581 -15.566   0.805  1.00 63.97     0.059 A 
HETATM   15  C12   D T 400      -1.532 -16.953   0.668  1.00 65.40     0.013 A 
HETATM   16 CL15   D T 400      -3.073 -14.723   1.304  1.00 74.53    -0.082 Cl
HETATM   17  C13   D T 400      -0.345 -17.570   0.285  1.00 59.83     0.026 A 
ENDBRANCH   1  10
TORSDOF 2
ENDMDL
MODEL 5
REMARK VINA RESULT:      -7.7      1.887      5.934
REMARK  2 active torsions:
REMARK  status: ('A' for Active; 'I' for Inactive)
REMARK    1  A    between atoms: C5_4  and  O7_13 
REMARK    2  A    between atoms: C8_10  and  O7_13 
ROOT
HETATM    1  O7    D T 400       6.082 -23.281  -9.766  1.00 63.04    -0.304 OA
ENDROOT
BRANCH   1   2
HETATM    2  C5    D T 400       6.308 -24.497  -9.187  1.00 59.76     0.125 A 
HETATM    3  C6    D T 400       7.583 -25.018  -9.206  1.00 54.83     0.154 A 
HETATM    4  C1    D T 400       7.840 -26.244  -8.597  1.00 54.43     0.041 A 
HETATM    5  O17   D T 400       8.557 -24.311  -9.834  1.00 54.30    -0.188 OA
HETATM    6  C2    D T 400       6.795 -26.925  -7.980  1.00 50.51     0.060 A 
HETATM    7  C3    D T 400       5.510 -26.400  -7.960  1.00 52.10     0.014 A 
HETATM    8 CL14   D T 400       7.086 -28.495  -7.196  1.00 49.50    -0.082 Cl
HETATM    9  C4    D T 400       5.268 -25.170  -8.553  1.00 57.51     0.028 A 
ENDBRANCH   1   2
BRANCH   1  10
HETATM   10  C8    D T 400       4.854 -22.948 -10.251  1.00 59.17     0.111 A 
HETATM   11  C9    D T 400       4.123 -22.035  -9.531  1.00 58.03     0.081 A 
HETATM   12  C10   D T 400       2.872 -21.649  -9.947  1.00 63.10     0.025 A 
HETATM   13 CL16   D T 400       4.809 -21.342  -8.032  1.00 86.42    -0.080 Cl
HETATM   14  C11   D T 400       2.358 -22.198 -11.104  1.00 63.97     0.059 A 
HETATM   15  C12   D T 400       3.087 -23.128 -11.845  1.00 65.40     0.013 A 
HETATM   16 CL15   D T 400       0.728 -21.668 -11.603  1.00 74.53    -0.082 Cl
HETATM   17  C13   D T 400       4.350 -23.520 -11.415  1.00 59.83     0.026 A 
ENDBRANCH   1  10
TORSDOF 2
ENDMDL
MODEL 6
REMARK VINA RESULT:      -7.6      9.277     11.569
REMARK  2 active torsions:
REMARK  status: ('A' for Active; 'I' for Inactive)
REMARK    1  A    between atoms: C5_4  and  O7_13 
REMARK    2  A    between atoms: C8_10  and  O7_13 
ROOT
HETATM    1  O7    D T 400       1.726 -17.794  -0.771  1.00 63.04    -0.304 OA
ENDROOT
BRANCH   1   2
HETATM    2  C5    D T 400       0.646 -17.099  -0.309  1.00 59.76     0.125 A 
HETATM    3  C6    D T 400      -0.559 -17.751  -0.172  1.00 54.83     0.154 A 
HETATM    4  C1    D T 400      -1.666 -17.067   0.324  1.00 54.43     0.041 A 
HETATM    5  O17   D T 400      -0.628 -19.057  -0.538  1.00 54.30    -0.188 OA
HETATM    6  C2    D T 400      -1.533 -15.726   0.671  1.00 50.51     0.060 A 
HETATM    7  C3    D T 400      -0.318 -15.068   0.534  1.00 52.10     0.014 A 
HETATM    8 CL14   D T 400      -2.926 -14.819   1.303  1.00 49.50    -0.082 Cl
HETATM    9  C4    D T 400       0.783 -15.763   0.056  1.00 57.51     0.028 A 
ENDBRANCH   1   2
BRANCH   1  10
HETATM   10  C8    D T 400       2.275 -17.519  -1.987  1.00 59.17     0.111 A 
HETATM   11  C9    D T 400       3.594 -17.137  -2.006  1.00 58.03     0.081 A 
HETATM   12  C10   D T 400       4.223 -16.836  -3.189  1.00 63.10     0.025 A 
HETATM   13 CL16   D T 400       4.503 -17.030  -0.470  1.00 86.42    -0.080 Cl
HETATM   14  C11   D T 400       3.504 -16.920  -4.364  1.00 63.97     0.059 A 
HETATM   15  C12   D T 400       2.163 -17.305  -4.361  1.00 65.40     0.013 A 
HETATM   16 CL15   D T 400       4.363 -16.516  -5.875  1.00 74.53    -0.082 Cl
HETATM   17  C13   D T 400       1.530 -17.602  -3.159  1.00 59.83     0.026 A 
ENDBRANCH   1  10
TORSDOF 2
ENDMDL
MODEL 7
REMARK VINA RESULT:      -7.6      9.593     11.884
REMARK  2 active torsions:
REMARK  status: ('A' for Active; 'I' for Inactive)
REMARK    1  A    between atoms: C5_4  and  O7_13 
REMARK    2  A    between atoms: C8_10  and  O7_13 
ROOT
HETATM    1  O7    D T 400       1.689 -16.993  -0.618  1.00 63.04    -0.304 OA
ENDROOT
BRANCH   1   2
HETATM    2  C5    D T 400       0.541 -16.469  -0.098  1.00 59.76     0.125 A 
HETATM    3  C6    D T 400       0.363 -15.104  -0.115  1.00 54.83     0.154 A 
HETATM    4  C1    D T 400      -0.813 -14.551   0.386  1.00 54.43     0.041 A 
HETATM    5  O17   D T 400       1.360 -14.332  -0.619  1.00 54.30    -0.188 OA
HETATM    6  C2    D T 400      -1.792 -15.396   0.900  1.00 50.51     0.060 A 
HETATM    7  C3    D T 400      -1.614 -16.773   0.916  1.00 52.10     0.014 A 
HETATM    8 CL14   D T 400      -3.305 -14.725   1.551  1.00 49.50    -0.082 Cl
HETATM    9  C4    D T 400      -0.447 -17.314   0.399  1.00 57.51     0.028 A 
ENDBRANCH   1   2
BRANCH   1  10
HETATM   10  C8    D T 400       1.822 -17.209  -1.957  1.00 59.17     0.111 A 
HETATM   11  C9    D T 400       2.941 -16.694  -2.564  1.00 58.03     0.081 A 
HETATM   12  C10   D T 400       3.150 -16.861  -3.912  1.00 63.10     0.025 A 
HETATM   13 CL16   D T 400       4.140 -15.795  -1.589  1.00 86.42    -0.080 Cl
HETATM   14  C11   D T 400       2.212 -17.554  -4.649  1.00 63.97     0.059 A 
HETATM   15  C12   D T 400       1.070 -18.081  -4.047  1.00 65.40     0.013 A 
HETATM   16 CL15   D T 400       2.525 -17.742  -6.396  1.00 74.53    -0.082 Cl
HETATM   17  C13   D T 400       0.860 -17.903  -2.683  1.00 59.83     0.026 A 
ENDBRANCH   1  10
TORSDOF 2
ENDMDL
MODEL 8
REMARK VINA RESULT:      -7.4      1.875      2.558
REMARK  2 active torsions:
REMARK  status: ('A' for Active; 'I' for Inactive)
REMARK    1  A    between atoms: C5_4  and  O7_13 
REMARK    2  A    between atoms: C8_10  and  O7_13 
ROOT
HETATM    1  O7    D T 400       3.916 -23.250  -9.317  1.00 63.04    -0.304 OA
ENDROOT
BRANCH   1   2
HETATM    2  C5    D T 400       3.853 -22.088  -8.603  1.00 59.76     0.125 A 
HETATM    3  C6    D T 400       4.031 -20.891  -9.260  1.00 54.83     0.154 A 
HETATM    4  C1    D T 400       3.942 -19.693  -8.555  1.00 54.43     0.041 A 
HETATM    5  O17   D T 400       4.298 -20.922 -10.591  1.00 54.30    -0.188 OA
HETATM    6  C2    D T 400       3.677 -19.730  -7.189  1.00 50.51     0.060 A 
HETATM    7  C3    D T 400       3.496 -20.936  -6.527  1.00 52.10     0.014 A 
HETATM    8 CL14   D T 400       3.561 -18.220  -6.257  1.00 49.50    -0.082 Cl
HETATM    9  C4    D T 400       3.568 -22.122  -7.241  1.00 57.51     0.028 A 
ENDBRANCH   1   2
BRANCH   1  10
HETATM   10  C8    D T 400       4.778 -24.246  -8.969  1.00 59.17     0.111 A 
HETATM   11  C9    D T 400       4.232 -25.385  -8.430  1.00 58.03     0.081 A 
HETATM   12  C10   D T 400       5.032 -26.435  -8.047  1.00 63.10     0.025 A 
HETATM   13 CL16   D T 400       2.460 -25.502  -8.224  1.00 86.42    -0.080 Cl
HETATM   14  C11   D T 400       6.398 -26.324  -8.210  1.00 63.97     0.059 A 
HETATM   15  C12   D T 400       6.966 -25.172  -8.754  1.00 65.40     0.013 A 
HETATM   16 CL15   D T 400       7.394 -27.711  -7.695  1.00 74.53    -0.082 Cl
HETATM   17  C13   D T 400       6.152 -24.110  -9.134  1.00 59.83     0.026 A 
ENDBRANCH   1  10
TORSDOF 2
ENDMDL
MODEL 9
REMARK VINA RESULT:      -7.4      9.188     12.062
REMARK  2 active torsions:
REMARK  status: ('A' for Active; 'I' for Inactive)
REMARK    1  A    between atoms: C5_4  and  O7_13 
REMARK    2  A    between atoms: C8_10  and  O7_13 
ROOT
HETATM    1  O7    D T 400       2.034 -17.265  -0.519  1.00 63.04    -0.304 OA
ENDROOT
BRANCH   1   2
HETATM    2  C5    D T 400       2.199 -17.727  -1.793  1.00 59.76     0.125 A 
HETATM    3  C6    D T 400       2.449 -19.067  -1.990  1.00 54.83     0.154 A 
HETATM    4  C1    D T 400       2.592 -19.563  -3.283  1.00 54.43     0.041 A 
HETATM    5  O17   D T 400       2.556 -19.868  -0.898  1.00 54.30    -0.188 OA
HETATM    6  C2    D T 400       2.481 -18.688  -4.360  1.00 50.51     0.060 A 
HETATM    7  C3    D T 400       2.228 -17.337  -4.162  1.00 52.10     0.014 A 
HETATM    8 CL14   D T 400       2.662 -19.285  -6.025  1.00 49.50    -0.082 Cl
HETATM    9  C4    D T 400       2.070 -16.856  -2.871  1.00 57.51     0.028 A 
ENDBRANCH   1   2
BRANCH   1  10
HETATM   10  C8    D T 400       0.838 -16.768  -0.098  1.00 59.17     0.111 A 
HETATM   11  C9    D T 400       0.759 -15.412   0.101  1.00 58.03     0.081 A 
HETATM   12  C10   D T 400      -0.409 -14.829   0.531  1.00 63.10     0.025 A 
HETATM   13 CL16   D T 400       2.196 -14.391  -0.203  1.00 86.42    -0.080 Cl
HETATM   14  C11   D T 400      -1.505 -15.634   0.765  1.00 63.97     0.059 A 
HETATM   15  C12   D T 400      -1.440 -17.013   0.569  1.00 65.40     0.013 A 
HETATM   16 CL15   D T 400      -2.998 -14.833   1.326  1.00 74.53    -0.082 Cl
HETATM   17  C13   D T 400      -0.253 -17.598   0.140  1.00 59.83     0.026 A 
ENDBRANCH   1  10
TORSDOF 2
ENDMDL
