MODEL 1
REMARK VINA RESULT:    -7.337      0.000      0.000
REMARK INTER + INTRA:          -8.737
REMARK INTER:                  -8.194
REMARK INTRA:                  -0.543
REMARK UNBOUND:                -0.543
REMARK  2 active torsions:
REMARK  status: ('A' for Active; 'I' for Inactive)
REMARK    1  A    between atoms: C5_4  and  O7_13 
REMARK    2  A    between atoms: C8_10  and  O7_13 
ROOT
HETATM    1  O7    D T 400       5.067   1.129  -7.595  1.00 63.04    -0.304 OA
ENDROOT
BRANCH   1   2
HETATM    2  C5    D T 400       5.178   1.331  -8.941  1.00 59.76     0.125 A 
HETATM    3  C6    D T 400       6.333   1.894  -9.438  1.00 54.83     0.154 A 
HETATM    4  C1    D T 400       6.477   2.083 -10.810  1.00 54.43     0.041 A 
HETATM    5  O17   D T 400       7.299   2.260  -8.558  1.00 54.30    -0.188 OA
HETATM    6  C2    D T 400       5.444   1.697 -11.659  1.00 50.51     0.060 A 
HETATM    7  C3    D T 400       4.281   1.127 -11.159  1.00 52.10     0.014 A 
HETATM    8 CL14   D T 400       5.593   1.926 -13.416  1.00 49.50    -0.082 Cl
HETATM    9  C4    D T 400       4.153   0.928  -9.793  1.00 57.51     0.028 A 
ENDBRANCH   1   2
BRANCH   1  10
HETATM   10  C8    D T 400       4.172   1.834  -6.849  1.00 59.17     0.111 A 
HETATM   11  C9    D T 400       3.210   1.115  -6.184  1.00 58.03     0.081 A 
HETATM   12  C10   D T 400       2.264   1.749  -5.412  1.00 63.10     0.025 A 
HETATM   13 CL16   D T 400       3.186  -0.667  -6.323  1.00 86.42    -0.080 Cl
HETATM   14  C11   D T 400       2.296   3.125  -5.321  1.00 63.97     0.059 A 
HETATM   15  C12   D T 400       3.266   3.869  -5.992  1.00 65.40     0.013 A 
HETATM   16 CL15   D T 400       1.047   3.903  -4.312  1.00 74.53    -0.082 Cl
HETATM   17  C13   D T 400       4.215   3.222  -6.776  1.00 59.83     0.026 A 
ENDBRANCH   1  10
TORSDOF 2
ENDMDL
MODEL 2
REMARK VINA RESULT:    -7.309      1.518      6.086
REMARK INTER + INTRA:          -8.707
REMARK INTER:                  -8.163
REMARK INTRA:                  -0.544
REMARK UNBOUND:                -0.543
REMARK  2 active torsions:
REMARK  status: ('A' for Active; 'I' for Inactive)
REMARK    1  A    between atoms: C5_4  and  O7_13 
REMARK    2  A    between atoms: C8_10  and  O7_13 
ROOT
HETATM    1  O7    D T 400       5.609   1.545  -7.544  1.00 63.04    -0.304 OA
ENDROOT
BRANCH   1   2
HETATM    2  C5    D T 400       4.554   2.031  -6.826  1.00 59.76     0.125 A 
HETATM    3  C6    D T 400       3.774   1.152  -6.108  1.00 54.83     0.154 A 
HETATM    4  C1    D T 400       2.711   1.631  -5.347  1.00 54.43     0.041 A 
HETATM    5  O17   D T 400       4.068  -0.172  -6.176  1.00 54.30    -0.188 OA
HETATM    6  C2    D T 400       2.455   3.000  -5.328  1.00 50.51     0.060 A 
HETATM    7  C3    D T 400       3.242   3.885  -6.050  1.00 52.10     0.014 A 
HETATM    8 CL14   D T 400       1.103   3.646  -4.370  1.00 49.50    -0.082 Cl
HETATM    9  C4    D T 400       4.309   3.401  -6.791  1.00 57.51     0.028 A 
ENDBRANCH   1   2
BRANCH   1  10
HETATM   10  C8    D T 400       5.627   1.614  -8.904  1.00 59.17     0.111 A 
HETATM   11  C9    D T 400       6.567   2.437  -9.475  1.00 58.03     0.081 A 
HETATM   12  C10   D T 400       6.650   2.571 -10.841  1.00 63.10     0.025 A 
HETATM   13 CL16   D T 400       7.695   3.348  -8.428  1.00 86.42    -0.080 Cl
HETATM   14  C11   D T 400       5.768   1.865 -11.631  1.00 63.97     0.059 A 
HETATM   15  C12   D T 400       4.807   1.026 -11.068  1.00 65.40     0.013 A 
HETATM   16 CL15   D T 400       5.912   2.073 -13.398  1.00 74.53    -0.082 Cl
HETATM   17  C13   D T 400       4.724   0.901  -9.685  1.00 59.83     0.026 A 
ENDBRANCH   1  10
TORSDOF 2
ENDMDL
MODEL 3
REMARK VINA RESULT:    -7.298      9.007     11.734
REMARK INTER + INTRA:          -8.694
REMARK INTER:                  -8.142
REMARK INTRA:                  -0.553
REMARK UNBOUND:                -0.543
REMARK  2 active torsions:
REMARK  status: ('A' for Active; 'I' for Inactive)
REMARK    1  A    between atoms: C5_4  and  O7_13 
REMARK    2  A    between atoms: C8_10  and  O7_13 
ROOT
HETATM    1  O7    D T 400       5.534   6.709   2.123  1.00 63.04    -0.304 OA
ENDROOT
BRANCH   1   2
HETATM    2  C5    D T 400       6.552   5.913   2.563  1.00 59.76     0.125 A 
HETATM    3  C6    D T 400       6.283   4.943   3.502  1.00 54.83     0.154 A 
HETATM    4  C1    D T 400       7.303   4.103   3.943  1.00 54.43     0.041 A 
HETATM    5  O17   D T 400       5.016   4.844   3.979  1.00 54.30    -0.188 OA
HETATM    6  C2    D T 400       8.584   4.263   3.423  1.00 50.51     0.060 A 
HETATM    7  C3    D T 400       8.855   5.241   2.476  1.00 52.10     0.014 A 
HETATM    8 CL14   D T 400       9.911   3.211   3.966  1.00 49.50    -0.082 Cl
HETATM    9  C4    D T 400       7.830   6.061   2.030  1.00 57.51     0.028 A 
ENDBRANCH   1   2
BRANCH   1  10
HETATM   10  C8    D T 400       5.119   6.671   0.827  1.00 59.17     0.111 A 
HETATM   11  C9    D T 400       5.222   7.834   0.104  1.00 58.03     0.081 A 
HETATM   12  C10   D T 400       4.820   7.885  -1.210  1.00 63.10     0.025 A 
HETATM   13 CL16   D T 400       5.884   9.302   0.882  1.00 86.42    -0.080 Cl
HETATM   14  C11   D T 400       4.307   6.744  -1.792  1.00 63.97     0.059 A 
HETATM   15  C12   D T 400       4.195   5.556  -1.071  1.00 65.40     0.013 A 
HETATM   16 CL15   D T 400       3.796   6.859  -3.498  1.00 74.53    -0.082 Cl
HETATM   17  C13   D T 400       4.597   5.513   0.261  1.00 59.83     0.026 A 
ENDBRANCH   1  10
TORSDOF 2
ENDMDL
MODEL 4
REMARK VINA RESULT:    -7.261      8.970     11.061
REMARK INTER + INTRA:          -8.653
REMARK INTER:                  -8.120
REMARK INTRA:                  -0.533
REMARK UNBOUND:                -0.543
REMARK  2 active torsions:
REMARK  status: ('A' for Active; 'I' for Inactive)
REMARK    1  A    between atoms: C5_4  and  O7_13 
REMARK    2  A    between atoms: C8_10  and  O7_13 
ROOT
HETATM    1  O7    D T 400       5.597   6.543   2.102  1.00 63.04    -0.304 OA
ENDROOT
BRANCH   1   2
HETATM    2  C5    D T 400       5.146   6.443   0.817  1.00 59.76     0.125 A 
HETATM    3  C6    D T 400       5.057   7.583   0.050  1.00 54.83     0.154 A 
HETATM    4  C1    D T 400       4.626   7.498  -1.271  1.00 54.43     0.041 A 
HETATM    5  O17   D T 400       5.391   8.769   0.620  1.00 54.30    -0.188 OA
HETATM    6  C2    D T 400       4.288   6.252  -1.794  1.00 50.51     0.060 A 
HETATM    7  C3    D T 400       4.378   5.103  -1.021  1.00 52.10     0.014 A 
HETATM    8 CL14   D T 400       3.729   6.107  -3.476  1.00 49.50    -0.082 Cl
HETATM    9  C4    D T 400       4.825   5.196   0.288  1.00 57.51     0.028 A 
ENDBRANCH   1   2
BRANCH   1  10
HETATM   10  C8    D T 400       6.696   5.855   2.519  1.00 59.17     0.111 A 
HETATM   11  C9    D T 400       6.520   4.960   3.545  1.00 58.03     0.081 A 
HETATM   12  C10   D T 400       7.578   4.229   4.031  1.00 63.10     0.025 A 
HETATM   13 CL16   D T 400       4.895   4.745   4.261  1.00 86.42    -0.080 Cl
HETATM   14  C11   D T 400       8.825   4.412   3.470  1.00 63.97     0.059 A 
HETATM   15  C12   D T 400       9.020   5.317   2.428  1.00 65.40     0.013 A 
HETATM   16 CL15   D T 400      10.167   3.443   4.136  1.00 74.53    -0.082 Cl
HETATM   17  C13   D T 400       7.946   6.060   1.946  1.00 59.83     0.026 A 
ENDBRANCH   1  10
TORSDOF 2
ENDMDL
MODEL 5
REMARK VINA RESULT:    -7.222      1.034      1.815
REMARK INTER + INTRA:          -8.610
REMARK INTER:                  -8.465
REMARK INTRA:                  -0.145
REMARK UNBOUND:                -0.543
REMARK  2 active torsions:
REMARK  status: ('A' for Active; 'I' for Inactive)
REMARK    1  A    between atoms: C5_4  and  O7_13 
REMARK    2  A    between atoms: C8_10  and  O7_13 
ROOT
HETATM    1  O7    D T 400       4.465   0.667  -8.168  1.00 63.04    -0.304 OA
ENDROOT
BRANCH   1   2
HETATM    2  C5    D T 400       4.758   1.011  -9.457  1.00 59.76     0.125 A 
HETATM    3  C6    D T 400       3.754   0.988 -10.398  1.00 54.83     0.154 A 
HETATM    4  C1    D T 400       4.027   1.362 -11.712  1.00 54.43     0.041 A 
HETATM    5  O17   D T 400       2.517   0.588 -10.009  1.00 54.30    -0.188 OA
HETATM    6  C2    D T 400       5.320   1.752 -12.050  1.00 50.51     0.060 A 
HETATM    7  C3    D T 400       6.331   1.777 -11.101  1.00 52.10     0.014 A 
HETATM    8 CL14   D T 400       5.704   2.233 -13.719  1.00 49.50    -0.082 Cl
HETATM    9  C4    D T 400       6.046   1.420  -9.791  1.00 57.51     0.028 A 
ENDBRANCH   1   2
BRANCH   1  10
HETATM   10  C8    D T 400       3.787   1.518  -7.349  1.00 59.17     0.111 A 
HETATM   11  C9    D T 400       2.916   0.956  -6.449  1.00 58.03     0.081 A 
HETATM   12  C10   D T 400       2.187   1.743  -5.588  1.00 63.10     0.025 A 
HETATM   13 CL16   D T 400       2.726  -0.821  -6.395  1.00 86.42    -0.080 Cl
HETATM   14  C11   D T 400       2.343   3.112  -5.647  1.00 63.97     0.059 A 
HETATM   15  C12   D T 400       3.223   3.698  -6.557  1.00 65.40     0.013 A 
HETATM   16 CL15   D T 400       1.374   4.092  -4.514  1.00 74.53    -0.082 Cl
HETATM   17  C13   D T 400       3.952   2.897  -7.429  1.00 59.83     0.026 A 
ENDBRANCH   1  10
TORSDOF 2
ENDMDL
MODEL 6
REMARK VINA RESULT:    -7.218      1.173      5.901
REMARK INTER + INTRA:          -8.605
REMARK INTER:                  -8.355
REMARK INTRA:                  -0.250
REMARK UNBOUND:                -0.543
REMARK  2 active torsions:
REMARK  status: ('A' for Active; 'I' for Inactive)
REMARK    1  A    between atoms: C5_4  and  O7_13 
REMARK    2  A    between atoms: C8_10  and  O7_13 
ROOT
HETATM    1  O7    D T 400       4.604   0.752  -7.761  1.00 63.04    -0.304 OA
ENDROOT
BRANCH   1   2
HETATM    2  C5    D T 400       3.801   1.543  -6.990  1.00 59.76     0.125 A 
HETATM    3  C6    D T 400       2.940   0.947  -6.095  1.00 54.83     0.154 A 
HETATM    4  C1    D T 400       2.132   1.738  -5.281  1.00 54.43     0.041 A 
HETATM    5  O17   D T 400       2.902  -0.408  -6.044  1.00 54.30    -0.188 OA
HETATM    6  C2    D T 400       2.209   3.123  -5.390  1.00 50.51     0.060 A 
HETATM    7  C3    D T 400       3.078   3.723  -6.291  1.00 52.10     0.014 A 
HETATM    8 CL14   D T 400       1.190   4.162  -4.368  1.00 49.50    -0.082 Cl
HETATM    9  C4    D T 400       3.891   2.929  -7.085  1.00 57.51     0.028 A 
ENDBRANCH   1   2
BRANCH   1  10
HETATM   10  C8    D T 400       4.909   1.095  -9.043  1.00 59.17     0.111 A 
HETATM   11  C9    D T 400       3.955   0.848  -9.999  1.00 58.03     0.081 A 
HETATM   12  C10   D T 400       4.183   1.158 -11.319  1.00 63.10     0.025 A 
HETATM   13 CL16   D T 400       2.396   0.114  -9.521  1.00 86.42    -0.080 Cl
HETATM   14  C11   D T 400       5.393   1.719 -11.669  1.00 63.97     0.059 A 
HETATM   15  C12   D T 400       6.374   1.974 -10.710  1.00 65.40     0.013 A 
HETATM   16 CL15   D T 400       5.646   2.101 -13.394  1.00 74.53    -0.082 Cl
HETATM   17  C13   D T 400       6.139   1.652  -9.378  1.00 59.83     0.026 A 
ENDBRANCH   1  10
TORSDOF 2
ENDMDL
MODEL 7
REMARK VINA RESULT:    -7.106      3.442      6.064
REMARK INTER + INTRA:          -8.480
REMARK INTER:                  -8.477
REMARK INTRA:                  -0.003
REMARK UNBOUND:                -0.543
REMARK  2 active torsions:
REMARK  status: ('A' for Active; 'I' for Inactive)
REMARK    1  A    between atoms: C5_4  and  O7_13 
REMARK    2  A    between atoms: C8_10  and  O7_13 
ROOT
HETATM    1  O7    D T 400       6.293   2.124  -7.663  1.00 63.04    -0.304 OA
ENDROOT
BRANCH   1   2
HETATM    2  C5    D T 400       7.481   2.126  -6.989  1.00 59.76     0.125 A 
HETATM    3  C6    D T 400       7.492   2.474  -5.656  1.00 54.83     0.154 A 
HETATM    4  C1    D T 400       8.690   2.455  -4.945  1.00 54.43     0.041 A 
HETATM    5  O17   D T 400       6.319   2.835  -5.077  1.00 54.30    -0.188 OA
HETATM    6  C2    D T 400       9.861   2.086  -5.601  1.00 50.51     0.060 A 
HETATM    7  C3    D T 400       9.849   1.735  -6.943  1.00 52.10     0.014 A 
HETATM    8 CL14   D T 400      11.408   2.055  -4.724  1.00 49.50    -0.082 Cl
HETATM    9  C4    D T 400       8.650   1.739  -7.639  1.00 57.51     0.028 A 
ENDBRANCH   1   2
BRANCH   1  10
HETATM   10  C8    D T 400       6.255   2.099  -9.024  1.00 59.17     0.111 A 
HETATM   11  C9    D T 400       5.513   1.103  -9.609  1.00 58.03     0.081 A 
HETATM   12  C10   D T 400       5.426   1.001 -10.977  1.00 63.10     0.025 A 
HETATM   13 CL16   D T 400       4.651  -0.077  -8.579  1.00 86.42    -0.080 Cl
HETATM   14  C11   D T 400       6.101   1.917 -11.755  1.00 63.97     0.059 A 
HETATM   15  C12   D T 400       6.860   2.934 -11.176  1.00 65.40     0.013 A 
HETATM   16 CL15   D T 400       5.961   1.743 -13.526  1.00 74.53    -0.082 Cl
HETATM   17  C13   D T 400       6.950   3.027  -9.791  1.00 59.83     0.026 A 
ENDBRANCH   1  10
TORSDOF 2
ENDMDL
MODEL 8
REMARK VINA RESULT:    -6.838      2.299      6.105
REMARK INTER + INTRA:          -8.181
REMARK INTER:                  -7.638
REMARK INTRA:                  -0.542
REMARK UNBOUND:                -0.543
REMARK  2 active torsions:
REMARK  status: ('A' for Active; 'I' for Inactive)
REMARK    1  A    between atoms: C5_4  and  O7_13 
REMARK    2  A    between atoms: C8_10  and  O7_13 
ROOT
HETATM    1  O7    D T 400       5.085   3.510  -7.299  1.00 63.04    -0.304 OA
ENDROOT
BRANCH   1   2
HETATM    2  C5    D T 400       4.511   2.710  -6.353  1.00 59.76     0.125 A 
HETATM    3  C6    D T 400       3.416   3.176  -5.660  1.00 54.83     0.154 A 
HETATM    4  C1    D T 400       2.800   2.365  -4.710  1.00 54.43     0.041 A 
HETATM    5  O17   D T 400       2.975   4.432  -5.925  1.00 54.30    -0.188 OA
HETATM    6  C2    D T 400       3.308   1.090  -4.477  1.00 50.51     0.060 A 
HETATM    7  C3    D T 400       4.411   0.620  -5.176  1.00 52.10     0.014 A 
HETATM    8 CL14   D T 400       2.549   0.028  -3.269  1.00 49.50    -0.082 Cl
HETATM    9  C4    D T 400       5.007   1.429  -6.132  1.00 57.51     0.028 A 
ENDBRANCH   1   2
BRANCH   1  10
HETATM   10  C8    D T 400       5.163   3.117  -8.601  1.00 59.17     0.111 A 
HETATM   11  C9    D T 400       6.420   2.964  -9.132  1.00 58.03     0.081 A 
HETATM   12  C10   D T 400       6.589   2.576 -10.441  1.00 63.10     0.025 A 
HETATM   13 CL16   D T 400       7.854   3.275  -8.111  1.00 86.42    -0.080 Cl
HETATM   14  C11   D T 400       5.471   2.346 -11.214  1.00 63.97     0.059 A 
HETATM   15  C12   D T 400       4.188   2.499 -10.690  1.00 65.40     0.013 A 
HETATM   16 CL15   D T 400       5.740   1.848 -12.907  1.00 74.53    -0.082 Cl
HETATM   17  C13   D T 400       4.024   2.899  -9.367  1.00 59.83     0.026 A 
ENDBRANCH   1  10
TORSDOF 2
ENDMDL
MODEL 9
REMARK VINA RESULT:    -6.486      2.604      6.384
REMARK INTER + INTRA:          -7.787
REMARK INTER:                  -7.282
REMARK INTRA:                  -0.506
REMARK UNBOUND:                -0.543
REMARK  2 active torsions:
REMARK  status: ('A' for Active; 'I' for Inactive)
REMARK    1  A    between atoms: C5_4  and  O7_13 
REMARK    2  A    between atoms: C8_10  and  O7_13 
ROOT
HETATM    1  O7    D T 400       3.450   2.544  -5.269  1.00 63.04    -0.304 OA
ENDROOT
BRANCH   1   2
HETATM    2  C5    D T 400       3.091   3.628  -4.520  1.00 59.76     0.125 A 
HETATM    3  C6    D T 400       3.969   4.103  -3.571  1.00 54.83     0.154 A 
HETATM    4  C1    D T 400       3.633   5.225  -2.816  1.00 54.43     0.041 A 
HETATM    5  O17   D T 400       5.144   3.447  -3.397  1.00 54.30    -0.188 OA
HETATM    6  C2    D T 400       2.406   5.846  -3.036  1.00 50.51     0.060 A 
HETATM    7  C3    D T 400       1.523   5.367  -3.993  1.00 52.10     0.014 A 
HETATM    8 CL14   D T 400       1.944   7.278  -2.088  1.00 49.50    -0.082 Cl
HETATM    9  C4    D T 400       1.873   4.261  -4.752  1.00 57.51     0.028 A 
ENDBRANCH   1   2
BRANCH   1  10
HETATM   10  C8    D T 400       3.683   2.657  -6.606  1.00 59.17     0.111 A 
HETATM   11  C9    D T 400       3.030   1.774  -7.430  1.00 58.03     0.081 A 
HETATM   12  C10   D T 400       3.214   1.815  -8.792  1.00 63.10     0.025 A 
HETATM   13 CL16   D T 400       1.929   0.555  -6.723  1.00 86.42    -0.080 Cl
HETATM   14  C11   D T 400       4.070   2.759  -9.319  1.00 63.97     0.059 A 
HETATM   15  C12   D T 400       4.742   3.662  -8.495  1.00 65.40     0.013 A 
HETATM   16 CL15   D T 400       4.279   2.772 -11.091  1.00 74.53    -0.082 Cl
HETATM   17  C13   D T 400       4.557   3.610  -7.117  1.00 59.83     0.026 A 
ENDBRANCH   1  10
TORSDOF 2
ENDMDL
