MODEL 1
REMARK VINA RESULT:      -8.2      0.000      0.000
REMARK  5 active torsions:
REMARK  status: ('A' for Active; 'I' for Inactive)
REMARK    1  A    between atoms: C8_6  and  C9_9 
REMARK    2  A    between atoms: C9_9  and  C10_10 
REMARK    3  A    between atoms: C14_14  and  C24_15 
REMARK    4  A    between atoms: C15_20  and  O16_21 
REMARK    5  A    between atoms: C18_23  and  O19_25 
ROOT
HETATM    1  C10   D T 300      28.136  14.282  43.387  1.00 47.60    -0.014 A 
HETATM    2  C11   D T 300      28.075  12.995  42.828  1.00 47.68     0.021 A 
HETATM    3  C27   D T 300      26.906  12.551  42.081  1.00 47.88    -0.000 C 
HETATM    4  C28   D T 300      26.776  11.283  41.688  1.00 48.21     0.003 C 
HETATM    5  C14   D T 300      27.822  10.253  42.005  1.00 48.48     0.143 C 
HETATM    6  O13   D T 300      29.037  10.813  42.525  1.00 47.94    -0.327 OA
HETATM    7  C12   D T 300      29.154  12.112  42.992  1.00 47.86     0.118 A 
HETATM    8  C15   D T 300      30.324  12.539  43.643  1.00 47.79     0.138 A 
HETATM    9  C18   D T 300      30.360  13.820  44.192  1.00 47.76     0.118 A 
HETATM   10  C21   D T 300      29.274  14.687  44.071  1.00 47.62     0.022 A 
ENDROOT
BRANCH   1  11
HETATM   11  C9    D T 300      26.984  15.243  43.252  1.00 47.36     0.058 C 
BRANCH  11  12
HETATM   12  C8    D T 300      26.556  15.840  44.572  1.00 46.87     0.040 A 
HETATM   13  C1    D T 300      27.149  16.950  45.103  1.00 46.83     0.117 A 
HETATM   14  N2    D T 300      26.738  17.446  46.359  1.00 46.74    -0.057 NA
HETATM   15  C3    D T 300      25.729  16.816  47.091  1.00 46.81     0.770 A 
HETATM   16  N4    D T 300      25.363  17.282  48.305  1.00 46.77     0.062 N 
HETATM   17  N5    D T 300      25.099  15.686  46.542  1.00 46.72    -0.037 NA
HETATM   18  C6    D T 300      25.500  15.204  45.291  1.00 46.73     0.200 A 
HETATM   19  N7    D T 300      24.821  14.124  44.853  1.00 46.67    -0.127 N 
ENDBRANCH  11  12
ENDBRANCH   1  11
BRANCH   9  20
HETATM   20  O19   D T 300      31.514  14.211  44.836  1.00 47.69    -0.326 OA
HETATM   21  C20   D T 300      31.399  14.439  46.235  1.00 47.37     0.181 C 
ENDBRANCH   9  20
BRANCH   8  22
HETATM   22  O16   D T 300      31.460  11.767  43.840  1.00 47.86    -0.324 OA
HETATM   23  C17   D T 300      32.409  11.565  42.794  1.00 47.81     0.182 C 
ENDBRANCH   8  22
BRANCH   5  24
HETATM   24  C24   D T 300      28.080   9.348  40.788  1.00 48.88     0.032 A 
HETATM   25  C25   D T 300      26.994   9.177  39.766  1.00 49.08     0.003 A 
HETATM   26  C26   D T 300      27.351   8.039  40.680  1.00 49.12     0.003 A 
ENDBRANCH   5  24
TORSDOF 5
ENDMDL
MODEL 2
REMARK VINA RESULT:      -7.9      2.375      4.936
REMARK  5 active torsions:
REMARK  status: ('A' for Active; 'I' for Inactive)
REMARK    1  A    between atoms: C8_6  and  C9_9 
REMARK    2  A    between atoms: C9_9  and  C10_10 
REMARK    3  A    between atoms: C14_14  and  C24_15 
REMARK    4  A    between atoms: C15_20  and  O16_21 
REMARK    5  A    between atoms: C18_23  and  O19_25 
ROOT
HETATM    1  C10   D T 300      29.143  12.640  41.319  1.00 47.60    -0.014 A 
HETATM    2  C11   D T 300      30.527  12.613  41.078  1.00 47.68     0.021 A 
HETATM    3  C27   D T 300      31.276  13.840  40.849  1.00 47.88    -0.000 C 
HETATM    4  C28   D T 300      32.553  13.809  40.462  1.00 48.21     0.003 C 
HETATM    5  C14   D T 300      33.272  12.511  40.236  1.00 48.48     0.143 C 
HETATM    6  O13   D T 300      32.547  11.365  40.709  1.00 47.94    -0.327 OA
HETATM    7  C12   D T 300      31.206  11.384  41.050  1.00 47.86     0.118 A 
HETATM    8  C15   D T 300      30.521  10.192  41.342  1.00 47.79     0.138 A 
HETATM    9  C18   D T 300      29.147  10.243  41.574  1.00 47.76     0.118 A 
HETATM   10  C21   D T 300      28.459  11.457  41.560  1.00 47.62     0.022 A 
ENDROOT
BRANCH   1  11
HETATM   11  C9    D T 300      28.381  13.939  41.328  1.00 47.36     0.058 C 
BRANCH  11  12
HETATM   12  C8    D T 300      28.095  14.447  42.721  1.00 46.87     0.040 A 
HETATM   13  C1    D T 300      29.083  14.857  43.570  1.00 46.83     0.117 A 
HETATM   14  N2    D T 300      28.768  15.286  44.877  1.00 46.74    -0.057 NA
HETATM   15  C3    D T 300      27.449  15.295  45.338  1.00 46.81     0.770 A 
HETATM   16  N4    D T 300      27.162  15.681  46.599  1.00 46.77     0.062 N 
HETATM   17  N5    D T 300      26.425  14.894  44.464  1.00 46.72    -0.037 NA
HETATM   18  C6    D T 300      26.739  14.480  43.164  1.00 46.73     0.200 A 
HETATM   19  N7    D T 300      25.680  14.131  42.406  1.00 46.67    -0.127 N 
ENDBRANCH  11  12
ENDBRANCH   1  11
BRANCH   9  20
HETATM   20  O19   D T 300      28.496   9.060  41.846  1.00 47.69    -0.326 OA
HETATM   21  C20   D T 300      27.718   8.520  40.785  1.00 47.37     0.181 C 
ENDBRANCH   9  20
BRANCH   8  22
HETATM   22  O16   D T 300      31.090   8.927  41.370  1.00 47.86    -0.324 OA
HETATM   23  C17   D T 300      31.773   8.448  42.528  1.00 47.81     0.182 C 
ENDBRANCH   8  22
BRANCH   5  24
HETATM   24  C24   D T 300      34.697  12.570  40.815  1.00 48.88     0.032 A 
HETATM   25  C25   D T 300      34.961  11.955  42.159  1.00 49.08     0.003 A 
HETATM   26  C26   D T 300      34.970  13.450  42.002  1.00 49.12     0.003 A 
ENDBRANCH   5  24
TORSDOF 5
ENDMDL
MODEL 3
REMARK VINA RESULT:      -7.8      3.503      5.029
REMARK  5 active torsions:
REMARK  status: ('A' for Active; 'I' for Inactive)
REMARK    1  A    between atoms: C8_6  and  C9_9 
REMARK    2  A    between atoms: C9_9  and  C10_10 
REMARK    3  A    between atoms: C14_14  and  C24_15 
REMARK    4  A    between atoms: C15_20  and  O16_21 
REMARK    5  A    between atoms: C18_23  and  O19_25 
ROOT
HETATM    1  C10   D T 300      29.717  14.288  43.769  1.00 47.60    -0.014 A 
HETATM    2  C11   D T 300      29.113  13.250  43.042  1.00 47.68     0.021 A 
HETATM    3  C27   D T 300      29.899  12.149  42.502  1.00 47.88    -0.000 C 
HETATM    4  C28   D T 300      29.357  11.250  41.679  1.00 48.21     0.003 C 
HETATM    5  C14   D T 300      27.917  11.336  41.263  1.00 48.48     0.143 C 
HETATM    6  O13   D T 300      27.160  12.295  42.017  1.00 47.94    -0.327 OA
HETATM    7  C12   D T 300      27.726  13.268  42.822  1.00 47.86     0.118 A 
HETATM    8  C15   D T 300      26.934  14.278  43.395  1.00 47.79     0.138 A 
HETATM    9  C18   D T 300      27.556  15.300  44.110  1.00 47.76     0.118 A 
HETATM   10  C21   D T 300      28.939  15.310  44.294  1.00 47.62     0.022 A 
ENDROOT
BRANCH   1  11
HETATM   11  C9    D T 300      31.206  14.312  43.999  1.00 47.36     0.058 C 
BRANCH  11  12
HETATM   12  C8    D T 300      31.591  13.955  45.415  1.00 46.87     0.040 A 
HETATM   13  C1    D T 300      31.192  14.693  46.493  1.00 46.83     0.117 A 
HETATM   14  N2    D T 300      31.612  14.340  47.793  1.00 46.74    -0.057 NA
HETATM   15  C3    D T 300      32.447  13.241  48.011  1.00 46.81     0.770 A 
HETATM   16  N4    D T 300      32.866  12.929  49.256  1.00 46.77     0.062 N 
HETATM   17  N5    D T 300      32.845  12.465  46.910  1.00 46.72    -0.037 NA
HETATM   18  C6    D T 300      32.418  12.810  45.622  1.00 46.73     0.200 A 
HETATM   19  N7    D T 300      32.846  11.990  44.641  1.00 46.67    -0.127 N 
ENDBRANCH  11  12
ENDBRANCH   1  11
BRANCH   9  20
HETATM   20  O19   D T 300      26.759  16.285  44.651  1.00 47.69    -0.326 OA
HETATM   21  C20   D T 300      27.441  17.367  45.271  1.00 47.37     0.181 C 
ENDBRANCH   9  20
BRANCH   8  22
HETATM   22  O16   D T 300      25.556  14.384  43.269  1.00 47.86    -0.324 OA
HETATM   23  C17   D T 300      24.676  13.598  44.071  1.00 47.81     0.182 C 
ENDBRANCH   8  22
BRANCH   5  24
HETATM   24  C24   D T 300      27.263   9.944  41.280  1.00 48.88     0.032 A 
HETATM   25  C25   D T 300      28.079   8.752  40.873  1.00 49.08     0.003 A 
HETATM   26  C26   D T 300      26.981   9.250  39.977  1.00 49.12     0.003 A 
ENDBRANCH   5  24
TORSDOF 5
ENDMDL
MODEL 4
REMARK VINA RESULT:      -7.8      4.014      7.227
REMARK  5 active torsions:
REMARK  status: ('A' for Active; 'I' for Inactive)
REMARK    1  A    between atoms: C8_6  and  C9_9 
REMARK    2  A    between atoms: C9_9  and  C10_10 
REMARK    3  A    between atoms: C14_14  and  C24_15 
REMARK    4  A    between atoms: C15_20  and  O16_21 
REMARK    5  A    between atoms: C18_23  and  O19_25 
ROOT
HETATM    1  C10   D T 300      28.987  13.453  42.009  1.00 47.60    -0.014 A 
HETATM    2  C11   D T 300      29.797  13.665  43.137  1.00 47.68     0.021 A 
HETATM    3  C27   D T 300      31.157  13.148  43.196  1.00 47.88    -0.000 C 
HETATM    4  C28   D T 300      31.871  13.208  44.322  1.00 48.21     0.003 C 
HETATM    5  C14   D T 300      31.305  13.801  45.579  1.00 48.48     0.143 C 
HETATM    6  O13   D T 300      30.065  14.496  45.376  1.00 47.94    -0.327 OA
HETATM    7  C12   D T 300      29.293  14.385  44.232  1.00 47.86     0.118 A 
HETATM    8  C15   D T 300      28.011  14.958  44.171  1.00 47.79     0.138 A 
HETATM    9  C18   D T 300      27.224  14.731  43.044  1.00 47.76     0.118 A 
HETATM   10  C21   D T 300      27.703  13.981  41.969  1.00 47.62     0.022 A 
ENDROOT
BRANCH   1  11
HETATM   11  C9    D T 300      29.488  12.663  40.829  1.00 47.36     0.058 C 
BRANCH  11  12
HETATM   12  C8    D T 300      28.822  11.314  40.694  1.00 46.87     0.040 A 
HETATM   13  C1    D T 300      27.568  11.164  40.173  1.00 46.83     0.117 A 
HETATM   14  N2    D T 300      26.974   9.886  40.105  1.00 46.74    -0.057 NA
HETATM   15  C3    D T 300      27.640   8.751  40.572  1.00 46.81     0.770 A 
HETATM   16  N4    D T 300      27.050   7.537  40.529  1.00 46.77     0.062 N 
HETATM   17  N5    D T 300      28.938   8.895  41.091  1.00 46.72    -0.037 NA
HETATM   18  C6    D T 300      29.530  10.162  41.147  1.00 46.73     0.200 A 
HETATM   19  N7    D T 300      30.782  10.183  41.649  1.00 46.67    -0.127 N 
ENDBRANCH  11  12
ENDBRANCH   1  11
BRANCH   9  20
HETATM   20  O19   D T 300      25.967  15.294  43.012  1.00 47.69    -0.326 OA
HETATM   21  C20   D T 300      24.880  14.385  42.886  1.00 47.37     0.181 C 
ENDBRANCH   9  20
BRANCH   8  22
HETATM   22  O16   D T 300      27.419  15.709  45.177  1.00 47.86    -0.324 OA
HETATM   23  C17   D T 300      27.682  17.104  45.312  1.00 47.81     0.182 C 
ENDBRANCH   8  22
BRANCH   5  24
HETATM   24  C24   D T 300      32.350  14.683  46.284  1.00 48.88     0.032 A 
HETATM   25  C25   D T 300      32.974  14.192  47.558  1.00 49.08     0.003 A 
HETATM   26  C26   D T 300      31.998  15.335  47.591  1.00 49.12     0.003 A 
ENDBRANCH   5  24
TORSDOF 5
ENDMDL
MODEL 5
REMARK VINA RESULT:      -7.7      3.839      6.796
REMARK  5 active torsions:
REMARK  status: ('A' for Active; 'I' for Inactive)
REMARK    1  A    between atoms: C8_6  and  C9_9 
REMARK    2  A    between atoms: C9_9  and  C10_10 
REMARK    3  A    between atoms: C14_14  and  C24_15 
REMARK    4  A    between atoms: C15_20  and  O16_21 
REMARK    5  A    between atoms: C18_23  and  O19_25 
ROOT
HETATM    1  C10   D T 300      28.919  14.358  43.248  1.00 47.60    -0.014 A 
HETATM    2  C11   D T 300      27.894  14.771  44.115  1.00 47.68     0.021 A 
HETATM    3  C27   D T 300      28.102  15.851  45.069  1.00 47.88    -0.000 C 
HETATM    4  C28   D T 300      27.190  16.137  46.000  1.00 48.21     0.003 C 
HETATM    5  C14   D T 300      25.913  15.356  46.112  1.00 48.48     0.143 C 
HETATM    6  O13   D T 300      25.678  14.480  44.999  1.00 47.94    -0.327 OA
HETATM    7  C12   D T 300      26.644  14.133  44.069  1.00 47.86     0.118 A 
HETATM    8  C15   D T 300      26.392  13.139  43.108  1.00 47.79     0.138 A 
HETATM    9  C18   D T 300      27.426  12.744  42.260  1.00 47.76     0.118 A 
HETATM   10  C21   D T 300      28.683  13.345  42.329  1.00 47.62     0.022 A 
ENDROOT
BRANCH   1  11
HETATM   11  C9    D T 300      30.279  15.004  43.289  1.00 47.36     0.058 C 
BRANCH  11  12
HETATM   12  C8    D T 300      31.322  14.143  43.963  1.00 46.87     0.040 A 
HETATM   13  C1    D T 300      31.331  13.920  45.310  1.00 46.83     0.117 A 
HETATM   14  N2    D T 300      32.350  13.140  45.897  1.00 46.74    -0.057 NA
HETATM   15  C3    D T 300      33.374  12.587  45.124  1.00 46.81     0.770 A 
HETATM   16  N4    D T 300      34.360  11.866  45.699  1.00 46.77     0.062 N 
HETATM   17  N5    D T 300      33.360  12.795  43.735  1.00 46.72    -0.037 NA
HETATM   18  C6    D T 300      32.342  13.559  43.154  1.00 46.73     0.200 A 
HETATM   19  N7    D T 300      32.417  13.683  41.813  1.00 46.67    -0.127 N 
ENDBRANCH  11  12
ENDBRANCH   1  11
BRANCH   9  20
HETATM   20  O19   D T 300      27.158  11.760  41.334  1.00 47.69    -0.326 OA
HETATM   21  C20   D T 300      28.288  11.197  40.680  1.00 47.37     0.181 C 
ENDBRANCH   9  20
BRANCH   8  22
HETATM   22  O16   D T 300      25.192  12.460  42.951  1.00 47.86    -0.324 OA
HETATM   23  C17   D T 300      24.777  11.466  43.886  1.00 47.81     0.182 C 
ENDBRANCH   8  22
BRANCH   5  24
HETATM   24  C24   D T 300      24.721  16.296  46.365  1.00 48.88     0.032 A 
HETATM   25  C25   D T 300      23.525  16.213  45.461  1.00 49.08     0.003 A 
HETATM   26  C26   D T 300      24.439  17.403  45.390  1.00 49.12     0.003 A 
ENDBRANCH   5  24
TORSDOF 5
ENDMDL
MODEL 6
REMARK VINA RESULT:      -7.7      2.072      4.408
REMARK  5 active torsions:
REMARK  status: ('A' for Active; 'I' for Inactive)
REMARK    1  A    between atoms: C8_6  and  C9_9 
REMARK    2  A    between atoms: C9_9  and  C10_10 
REMARK    3  A    between atoms: C14_14  and  C24_15 
REMARK    4  A    between atoms: C15_20  and  O16_21 
REMARK    5  A    between atoms: C18_23  and  O19_25 
ROOT
HETATM    1  C10   D T 300      27.960  13.979  43.513  1.00 47.60    -0.014 A 
HETATM    2  C11   D T 300      28.989  13.878  42.562  1.00 47.68     0.021 A 
HETATM    3  C27   D T 300      30.181  14.709  42.650  1.00 47.88    -0.000 C 
HETATM    4  C28   D T 300      31.083  14.733  41.667  1.00 48.21     0.003 C 
HETATM    5  C14   D T 300      30.906  13.912  40.422  1.00 48.48     0.143 C 
HETATM    6  O13   D T 300      29.844  12.951  40.516  1.00 47.94    -0.327 OA
HETATM    7  C12   D T 300      28.871  12.965  41.501  1.00 47.86     0.118 A 
HETATM    8  C15   D T 300      27.767  12.099  41.434  1.00 47.79     0.138 A 
HETATM    9  C18   D T 300      26.756  12.220  42.387  1.00 47.76     0.118 A 
HETATM   10  C21   D T 300      26.847  13.154  43.419  1.00 47.62     0.022 A 
ENDROOT
BRANCH   1  11
HETATM   11  C9    D T 300      28.043  14.966  44.647  1.00 47.36     0.058 C 
BRANCH  11  12
HETATM   12  C8    D T 300      26.717  15.617  44.962  1.00 46.87     0.040 A 
HETATM   13  C1    D T 300      25.545  14.918  44.993  1.00 46.83     0.117 A 
HETATM   14  N2    D T 300      24.327  15.580  45.254  1.00 46.74    -0.057 NA
HETATM   15  C3    D T 300      24.285  16.959  45.478  1.00 46.81     0.770 A 
HETATM   16  N4    D T 300      23.110  17.587  45.698  1.00 46.77     0.062 N 
HETATM   17  N5    D T 300      25.489  17.682  45.468  1.00 46.72    -0.037 NA
HETATM   18  C6    D T 300      26.698  17.021  45.221  1.00 46.73     0.200 A 
HETATM   19  N7    D T 300      27.793  17.807  45.249  1.00 46.67    -0.127 N 
ENDBRANCH  11  12
ENDBRANCH   1  11
BRANCH   9  20
HETATM   20  O19   D T 300      25.678  11.367  42.293  1.00 47.69    -0.326 OA
HETATM   21  C20   D T 300      24.590  11.641  43.167  1.00 47.37     0.181 C 
ENDBRANCH   9  20
BRANCH   8  22
HETATM   22  O16   D T 300      27.556  11.142  40.452  1.00 47.86    -0.324 OA
HETATM   23  C17   D T 300      27.914   9.777  40.659  1.00 47.81     0.182 C 
ENDBRANCH   8  22
BRANCH   5  24
HETATM   24  C24   D T 300      32.237  13.260  40.006  1.00 48.88     0.032 A 
HETATM   25  C25   D T 300      32.779  12.128  40.829  1.00 49.08     0.003 A 
HETATM   26  C26   D T 300      33.454  13.470  40.862  1.00 49.12     0.003 A 
ENDBRANCH   5  24
TORSDOF 5
ENDMDL
MODEL 7
REMARK VINA RESULT:      -7.6      2.171      4.971
REMARK  5 active torsions:
REMARK  status: ('A' for Active; 'I' for Inactive)
REMARK    1  A    between atoms: C8_6  and  C9_9 
REMARK    2  A    between atoms: C9_9  and  C10_10 
REMARK    3  A    between atoms: C14_14  and  C24_15 
REMARK    4  A    between atoms: C15_20  and  O16_21 
REMARK    5  A    between atoms: C18_23  and  O19_25 
ROOT
HETATM    1  C10   D T 300      28.297  15.257  45.542  1.00 47.60    -0.014 A 
HETATM    2  C11   D T 300      29.646  14.916  45.736  1.00 47.68     0.021 A 
HETATM    3  C27   D T 300      30.333  15.236  46.980  1.00 47.88    -0.000 C 
HETATM    4  C28   D T 300      31.649  15.060  47.108  1.00 48.21     0.003 C 
HETATM    5  C14   D T 300      32.484  14.534  45.976  1.00 48.48     0.143 C 
HETATM    6  O13   D T 300      31.707  14.023  44.882  1.00 47.94    -0.327 OA
HETATM    7  C12   D T 300      30.353  14.259  44.717  1.00 47.86     0.118 A 
HETATM    8  C15   D T 300      29.695  13.872  43.537  1.00 47.79     0.138 A 
HETATM    9  C18   D T 300      28.357  14.224  43.364  1.00 47.76     0.118 A 
HETATM   10  C21   D T 300      27.661  14.915  44.356  1.00 47.62     0.022 A 
ENDROOT
BRANCH   1  11
HETATM   11  C9    D T 300      27.518  15.986  46.605  1.00 47.36     0.058 C 
BRANCH  11  12
HETATM   12  C8    D T 300      26.638  17.080  46.047  1.00 46.87     0.040 A 
HETATM   13  C1    D T 300      27.129  18.298  45.672  1.00 46.83     0.117 A 
HETATM   14  N2    D T 300      26.259  19.300  45.194  1.00 46.74    -0.057 NA
HETATM   15  C3    D T 300      24.883  19.081  45.100  1.00 46.81     0.770 A 
HETATM   16  N4    D T 300      24.055  20.056  44.668  1.00 46.77     0.062 N 
HETATM   17  N5    D T 300      24.372  17.823  45.464  1.00 46.72    -0.037 NA
HETATM   18  C6    D T 300      25.239  16.826  45.927  1.00 46.73     0.200 A 
HETATM   19  N7    D T 300      24.647  15.655  46.235  1.00 46.67    -0.127 N 
ENDBRANCH  11  12
ENDBRANCH   1  11
BRANCH   9  20
HETATM   20  O19   D T 300      27.737  13.844  42.194  1.00 47.69    -0.326 OA
HETATM   21  C20   D T 300      26.772  12.806  42.310  1.00 47.37     0.181 C 
ENDBRANCH   9  20
BRANCH   8  22
HETATM   22  O16   D T 300      30.281  13.197  42.475  1.00 47.86    -0.324 OA
HETATM   23  C17   D T 300      30.477  11.784  42.514  1.00 47.81     0.182 C 
ENDBRANCH   8  22
BRANCH   5  24
HETATM   24  C24   D T 300      33.506  13.504  46.487  1.00 48.88     0.032 A 
HETATM   25  C25   D T 300      33.179  12.042  46.384  1.00 49.08     0.003 A 
HETATM   26  C26   D T 300      33.195  12.715  47.728  1.00 49.12     0.003 A 
ENDBRANCH   5  24
TORSDOF 5
ENDMDL
MODEL 8
REMARK VINA RESULT:      -7.6      4.087      7.157
REMARK  5 active torsions:
REMARK  status: ('A' for Active; 'I' for Inactive)
REMARK    1  A    between atoms: C8_6  and  C9_9 
REMARK    2  A    between atoms: C9_9  and  C10_10 
REMARK    3  A    between atoms: C14_14  and  C24_15 
REMARK    4  A    between atoms: C15_20  and  O16_21 
REMARK    5  A    between atoms: C18_23  and  O19_25 
ROOT
HETATM    1  C10   D T 300      28.866  14.333  43.199  1.00 47.60    -0.014 A 
HETATM    2  C11   D T 300      27.859  14.758  44.081  1.00 47.68     0.021 A 
HETATM    3  C27   D T 300      28.093  15.843  45.025  1.00 47.88    -0.000 C 
HETATM    4  C28   D T 300      27.199  16.142  45.970  1.00 48.21     0.003 C 
HETATM    5  C14   D T 300      25.919  15.371  46.110  1.00 48.48     0.143 C 
HETATM    6  O13   D T 300      25.658  14.488  45.008  1.00 47.94    -0.327 OA
HETATM    7  C12   D T 300      26.604  14.129  44.063  1.00 47.86     0.118 A 
HETATM    8  C15   D T 300      26.328  13.131  43.113  1.00 47.79     0.138 A 
HETATM    9  C18   D T 300      27.343  12.722  42.249  1.00 47.76     0.118 A 
HETATM   10  C21   D T 300      28.606  13.314  42.291  1.00 47.62     0.022 A 
ENDROOT
BRANCH   1  11
HETATM   11  C9    D T 300      30.231  14.969  43.211  1.00 47.36     0.058 C 
BRANCH  11  12
HETATM   12  C8    D T 300      31.221  14.262  42.315  1.00 46.87     0.040 A 
HETATM   13  C1    D T 300      31.301  14.507  40.974  1.00 46.83     0.117 A 
HETATM   14  N2    D T 300      32.217  13.791  40.173  1.00 46.74    -0.057 NA
HETATM   15  C3    D T 300      33.052  12.815  40.723  1.00 46.81     0.770 A 
HETATM   16  N4    D T 300      33.903  12.116  39.943  1.00 46.77     0.062 N 
HETATM   17  N5    D T 300      32.989  12.572  42.105  1.00 46.72    -0.037 NA
HETATM   18  C6    D T 300      32.088  13.292  42.899  1.00 46.73     0.200 A 
HETATM   19  N7    D T 300      32.121  12.990  44.214  1.00 46.67    -0.127 N 
ENDBRANCH  11  12
ENDBRANCH   1  11
BRANCH   9  20
HETATM   20  O19   D T 300      27.052  11.734  41.335  1.00 47.69    -0.326 OA
HETATM   21  C20   D T 300      28.164  11.173  40.649  1.00 47.37     0.181 C 
ENDBRANCH   9  20
BRANCH   8  22
HETATM   22  O16   D T 300      25.121  12.459  42.983  1.00 47.86    -0.324 OA
HETATM   23  C17   D T 300      24.728  11.455  43.917  1.00 47.81     0.182 C 
ENDBRANCH   8  22
BRANCH   5  24
HETATM   24  C24   D T 300      24.739  16.320  46.379  1.00 48.88     0.032 A 
HETATM   25  C25   D T 300      23.521  16.231  45.506  1.00 49.08     0.003 A 
HETATM   26  C26   D T 300      24.440  17.415  45.395  1.00 49.12     0.003 A 
ENDBRANCH   5  24
TORSDOF 5
ENDMDL
MODEL 9
REMARK VINA RESULT:      -7.5      2.747      6.499
REMARK  5 active torsions:
REMARK  status: ('A' for Active; 'I' for Inactive)
REMARK    1  A    between atoms: C8_6  and  C9_9 
REMARK    2  A    between atoms: C9_9  and  C10_10 
REMARK    3  A    between atoms: C14_14  and  C24_15 
REMARK    4  A    between atoms: C15_20  and  O16_21 
REMARK    5  A    between atoms: C18_23  and  O19_25 
ROOT
HETATM    1  C10   D T 300      29.500  14.099  43.386  1.00 47.60    -0.014 A 
HETATM    2  C11   D T 300      28.772  14.862  44.314  1.00 47.68     0.021 A 
HETATM    3  C27   D T 300      27.493  15.461  43.961  1.00 47.88    -0.000 C 
HETATM    4  C28   D T 300      26.879  16.315  44.781  1.00 48.21     0.003 C 
HETATM    5  C14   D T 300      27.481  16.706  46.100  1.00 48.48     0.143 C 
HETATM    6  O13   D T 300      28.607  15.899  46.476  1.00 47.94    -0.327 OA
HETATM    7  C12   D T 300      29.284  15.060  45.607  1.00 47.86     0.118 A 
HETATM    8  C15   D T 300      30.478  14.432  45.998  1.00 47.79     0.138 A 
HETATM    9  C18   D T 300      31.185  13.682  45.059  1.00 47.76     0.118 A 
HETATM   10  C21   D T 300      30.704  13.517  43.760  1.00 47.62     0.022 A 
ENDROOT
BRANCH   1  11
HETATM   11  C9    D T 300      28.992  13.890  41.983  1.00 47.36     0.058 C 
BRANCH  11  12
HETATM   12  C8    D T 300      28.694  12.443  41.672  1.00 46.87     0.040 A 
HETATM   13  C1    D T 300      29.644  11.582  41.202  1.00 46.83     0.117 A 
HETATM   14  N2    D T 300      29.306  10.249  40.888  1.00 46.74    -0.057 NA
HETATM   15  C3    D T 300      27.999   9.778  41.039  1.00 46.81     0.770 A 
HETATM   16  N4    D T 300      27.680   8.509  40.709  1.00 46.77     0.062 N 
HETATM   17  N5    D T 300      27.020  10.652  41.542  1.00 46.72    -0.037 NA
HETATM   18  C6    D T 300      27.361  11.971  41.863  1.00 46.73     0.200 A 
HETATM   19  N7    D T 300      26.349  12.718  42.350  1.00 46.67    -0.127 N 
ENDBRANCH  11  12
ENDBRANCH   1  11
BRANCH   9  20
HETATM   20  O19   D T 300      32.359  13.086  45.463  1.00 47.69    -0.326 OA
HETATM   21  C20   D T 300      32.745  11.921  44.745  1.00 47.37     0.181 C 
ENDBRANCH   9  20
BRANCH   8  22
HETATM   22  O16   D T 300      31.065  14.532  47.252  1.00 47.86    -0.324 OA
HETATM   23  C17   D T 300      32.026  15.546  47.541  1.00 47.81     0.182 C 
ENDBRANCH   8  22
BRANCH   5  24
HETATM   24  C24   D T 300      26.405  16.740  47.200  1.00 48.88     0.032 A 
HETATM   25  C25   D T 300      24.969  16.527  46.818  1.00 49.08     0.003 A 
HETATM   26  C26   D T 300      25.438  17.890  47.244  1.00 49.12     0.003 A 
ENDBRANCH   5  24
TORSDOF 5
ENDMDL
