MODEL 1
REMARK VINA RESULT:    -8.252      0.000      0.000
REMARK INTER + INTRA:         -11.288
REMARK INTER:                 -10.664
REMARK INTRA:                  -0.624
REMARK UNBOUND:                -0.624
REMARK  5 active torsions:
REMARK  status: ('A' for Active; 'I' for Inactive)
REMARK    1  A    between atoms: C8_6  and  C9_9 
REMARK    2  A    between atoms: C9_9  and  C10_10 
REMARK    3  A    between atoms: C14_14  and  C24_15 
REMARK    4  A    between atoms: C15_20  and  O16_21 
REMARK    5  A    between atoms: C18_23  and  O19_25 
ROOT
HETATM    1  C10   D T 300      28.114  14.094  43.232  1.00 47.60    -0.014 A 
HETATM    2  C11   D T 300      28.052  12.800  42.690  1.00 47.68     0.021 A 
HETATM    3  C27   D T 300      26.874  12.341  41.967  1.00 47.88    -0.000 C 
HETATM    4  C28   D T 300      26.745  11.067  41.591  1.00 48.21     0.003 C 
HETATM    5  C14   D T 300      27.801  10.047  41.904  1.00 48.48     0.143 C 
HETATM    6  O13   D T 300      29.021  10.620  42.398  1.00 47.94    -0.327 OA
HETATM    7  C12   D T 300      29.139  11.924  42.847  1.00 47.86     0.118 A 
HETATM    8  C15   D T 300      30.316  12.366  43.475  1.00 47.79     0.138 A 
HETATM    9  C18   D T 300      30.354  13.653  44.009  1.00 47.76     0.118 A 
HETATM   10  C21   D T 300      29.261  14.513  43.893  1.00 47.62     0.022 A 
ENDROOT
BRANCH   1  11
HETATM   11  C9    D T 300      26.956  15.047  43.105  1.00 47.36     0.058 C 
BRANCH  11  12
HETATM   12  C8    D T 300      26.555  15.671  44.421  1.00 46.87     0.040 A 
HETATM   13  C1    D T 300      27.205  16.750  44.949  1.00 46.83     0.117 A 
HETATM   14  N2    D T 300      26.817  17.272  46.202  1.00 46.74    -0.057 NA
HETATM   15  C3    D T 300      25.774  16.699  46.934  1.00 46.81     0.770 A 
HETATM   16  N4    D T 300      25.431  17.188  48.145  1.00 46.77     0.062 N 
HETATM   17  N5    D T 300      25.088  15.601  46.388  1.00 46.72    -0.037 NA
HETATM   18  C6    D T 300      25.467  15.093  45.140  1.00 46.73     0.200 A 
HETATM   19  N7    D T 300      24.733  14.049  44.704  1.00 46.67    -0.127 N 
ENDBRANCH  11  12
ENDBRANCH   1  11
BRANCH   9  20
HETATM   20  O19   D T 300      31.515  14.059  44.630  1.00 47.69    -0.326 OA
HETATM   21  C20   D T 300      31.421  14.299  46.028  1.00 47.37     0.181 C 
ENDBRANCH   9  20
BRANCH   8  22
HETATM   22  O16   D T 300      31.459  11.602  43.664  1.00 47.86    -0.324 OA
HETATM   23  C17   D T 300      32.401  11.406  42.610  1.00 47.81     0.182 C 
ENDBRANCH   8  22
BRANCH   5  24
HETATM   24  C24   D T 300      28.046   9.129  40.694  1.00 48.88     0.032 A 
HETATM   25  C25   D T 300      26.951   8.954  39.681  1.00 49.08     0.003 A 
HETATM   26  C26   D T 300      27.309   7.823  40.603  1.00 49.12     0.003 A 
ENDBRANCH   5  24
TORSDOF 5
ENDMDL
MODEL 2
REMARK VINA RESULT:    -7.944      2.492      5.247
REMARK INTER + INTRA:         -10.890
REMARK INTER:                 -10.137
REMARK INTRA:                  -0.753
REMARK UNBOUND:                -0.624
REMARK  5 active torsions:
REMARK  status: ('A' for Active; 'I' for Inactive)
REMARK    1  A    between atoms: C8_6  and  C9_9 
REMARK    2  A    between atoms: C9_9  and  C10_10 
REMARK    3  A    between atoms: C14_14  and  C24_15 
REMARK    4  A    between atoms: C15_20  and  O16_21 
REMARK    5  A    between atoms: C18_23  and  O19_25 
ROOT
HETATM    1  C10   D T 300      29.458  12.591  41.290  1.00 47.60    -0.014 A 
HETATM    2  C11   D T 300      30.853  12.455  41.199  1.00 47.68     0.021 A 
HETATM    3  C27   D T 300      31.719  13.621  41.086  1.00 47.88    -0.000 C 
HETATM    4  C28   D T 300      33.023  13.492  40.839  1.00 48.21     0.003 C 
HETATM    5  C14   D T 300      33.657  12.144  40.655  1.00 48.48     0.143 C 
HETATM    6  O13   D T 300      32.796  11.053  41.015  1.00 47.94    -0.327 OA
HETATM    7  C12   D T 300      31.431  11.175  41.210  1.00 47.86     0.118 A 
HETATM    8  C15   D T 300      30.626  10.038  41.393  1.00 47.79     0.138 A 
HETATM    9  C18   D T 300      29.244  10.197  41.478  1.00 47.76     0.118 A 
HETATM   10  C21   D T 300      28.660  11.463  41.424  1.00 47.62     0.022 A 
ENDROOT
BRANCH   1  11
HETATM   11  C9    D T 300      28.805  13.948  41.254  1.00 47.36     0.058 C 
BRANCH  11  12
HETATM   12  C8    D T 300      27.965  14.233  42.477  1.00 46.87     0.040 A 
HETATM   13  C1    D T 300      26.613  14.047  42.498  1.00 46.83     0.117 A 
HETATM   14  N2    D T 300      25.868  14.365  43.653  1.00 46.74    -0.057 NA
HETATM   15  C3    D T 300      26.485  14.884  44.794  1.00 46.81     0.770 A 
HETATM   16  N4    D T 300      25.759  15.213  45.883  1.00 46.77     0.062 N 
HETATM   17  N5    D T 300      27.880  15.060  44.786  1.00 46.72    -0.037 NA
HETATM   18  C6    D T 300      28.618  14.732  43.644  1.00 46.73     0.200 A 
HETATM   19  N7    D T 300      29.948  14.925  43.750  1.00 46.67    -0.127 N 
ENDBRANCH  11  12
ENDBRANCH   1  11
BRANCH   9  20
HETATM   20  O19   D T 300      28.475   9.066  41.645  1.00 47.69    -0.326 OA
HETATM   21  C20   D T 300      27.478   8.840  40.656  1.00 47.37     0.181 C 
ENDBRANCH   9  20
BRANCH   8  22
HETATM   22  O16   D T 300      31.085   8.730  41.447  1.00 47.86    -0.324 OA
HETATM   23  C17   D T 300      31.601   8.176  42.656  1.00 47.81     0.182 C 
ENDBRANCH   8  22
BRANCH   5  24
HETATM   24  C24   D T 300      35.010  12.075  41.385  1.00 48.88     0.032 A 
HETATM   25  C25   D T 300      35.760  13.348  41.647  1.00 49.08     0.003 A 
HETATM   26  C26   D T 300      36.270  12.373  40.624  1.00 49.12     0.003 A 
ENDBRANCH   5  24
TORSDOF 5
ENDMDL
MODEL 3
REMARK VINA RESULT:    -7.896      3.510      5.061
REMARK INTER + INTRA:         -10.827
REMARK INTER:                 -10.184
REMARK INTRA:                  -0.643
REMARK UNBOUND:                -0.624
REMARK  5 active torsions:
REMARK  status: ('A' for Active; 'I' for Inactive)
REMARK    1  A    between atoms: C8_6  and  C9_9 
REMARK    2  A    between atoms: C9_9  and  C10_10 
REMARK    3  A    between atoms: C14_14  and  C24_15 
REMARK    4  A    between atoms: C15_20  and  O16_21 
REMARK    5  A    between atoms: C18_23  and  O19_25 
ROOT
HETATM    1  C10   D T 300      29.581  14.203  43.447  1.00 47.60    -0.014 A 
HETATM    2  C11   D T 300      28.955  13.161  42.744  1.00 47.68     0.021 A 
HETATM    3  C27   D T 300      29.730  12.083  42.145  1.00 47.88    -0.000 C 
HETATM    4  C28   D T 300      29.159  11.182  41.344  1.00 48.21     0.003 C 
HETATM    5  C14   D T 300      27.696  11.242  41.015  1.00 48.48     0.143 C 
HETATM    6  O13   D T 300      26.965  12.176  41.824  1.00 47.94    -0.327 OA
HETATM    7  C12   D T 300      27.558  13.152  42.607  1.00 47.86     0.118 A 
HETATM    8  C15   D T 300      26.780  14.139  43.237  1.00 47.79     0.138 A 
HETATM    9  C18   D T 300      27.423  15.166  43.926  1.00 47.76     0.118 A 
HETATM   10  C21   D T 300      28.814  15.203  44.030  1.00 47.62     0.022 A 
ENDROOT
BRANCH   1  11
HETATM   11  C9    D T 300      31.079  14.256  43.589  1.00 47.36     0.058 C 
BRANCH  11  12
HETATM   12  C8    D T 300      31.557  13.863  44.967  1.00 46.87     0.040 A 
HETATM   13  C1    D T 300      31.213  14.561  46.089  1.00 46.83     0.117 A 
HETATM   14  N2    D T 300      31.718  14.176  47.350  1.00 46.74    -0.057 NA
HETATM   15  C3    D T 300      32.582  13.086  47.483  1.00 46.81     0.770 A 
HETATM   16  N4    D T 300      33.082  12.745  48.689  1.00 46.77     0.062 N 
HETATM   17  N5    D T 300      32.923  12.351  46.335  1.00 46.72    -0.037 NA
HETATM   18  C6    D T 300      32.412  12.727  45.088  1.00 46.73     0.200 A 
HETATM   19  N7    D T 300      32.792  11.945  44.057  1.00 46.67    -0.127 N 
ENDBRANCH  11  12
ENDBRANCH   1  11
BRANCH   9  20
HETATM   20  O19   D T 300      26.640  16.128  44.526  1.00 47.69    -0.326 OA
HETATM   21  C20   D T 300      27.334  17.125  45.263  1.00 47.37     0.181 C 
ENDBRANCH   9  20
BRANCH   8  22
HETATM   22  O16   D T 300      25.395  14.218  43.194  1.00 47.86    -0.324 OA
HETATM   23  C17   D T 300      24.582  13.431  44.062  1.00 47.81     0.182 C 
ENDBRANCH   8  22
BRANCH   5  24
HETATM   24  C24   D T 300      27.071   9.836  41.054  1.00 48.88     0.032 A 
HETATM   25  C25   D T 300      27.956   8.642  40.841  1.00 49.08     0.003 A 
HETATM   26  C26   D T 300      26.969   9.044  39.781  1.00 49.12     0.003 A 
ENDBRANCH   5  24
TORSDOF 5
ENDMDL
MODEL 4
REMARK VINA RESULT:    -7.790      3.774      6.826
REMARK INTER + INTRA:         -10.690
REMARK INTER:                  -9.667
REMARK INTRA:                  -1.023
REMARK UNBOUND:                -0.624
REMARK  5 active torsions:
REMARK  status: ('A' for Active; 'I' for Inactive)
REMARK    1  A    between atoms: C8_6  and  C9_9 
REMARK    2  A    between atoms: C9_9  and  C10_10 
REMARK    3  A    between atoms: C14_14  and  C24_15 
REMARK    4  A    between atoms: C15_20  and  O16_21 
REMARK    5  A    between atoms: C18_23  and  O19_25 
ROOT
HETATM    1  C10   D T 300      28.805  14.366  43.256  1.00 47.60    -0.014 A 
HETATM    2  C11   D T 300      27.797  14.794  44.136  1.00 47.68     0.021 A 
HETATM    3  C27   D T 300      28.024  15.890  45.067  1.00 47.88    -0.000 C 
HETATM    4  C28   D T 300      27.130  16.193  46.011  1.00 48.21     0.003 C 
HETATM    5  C14   D T 300      25.856  15.413  46.163  1.00 48.48     0.143 C 
HETATM    6  O13   D T 300      25.600  14.517  45.070  1.00 47.94    -0.327 OA
HETATM    7  C12   D T 300      26.547  14.155  44.127  1.00 47.86     0.118 A 
HETATM    8  C15   D T 300      26.276  13.145  43.188  1.00 47.79     0.138 A 
HETATM    9  C18   D T 300      27.293  12.735  42.327  1.00 47.76     0.118 A 
HETATM   10  C21   D T 300      28.551  13.337  42.360  1.00 47.62     0.022 A 
ENDROOT
BRANCH   1  11
HETATM   11  C9    D T 300      30.165  15.013  43.259  1.00 47.36     0.058 C 
BRANCH  11  12
HETATM   12  C8    D T 300      31.218  14.172  43.942  1.00 46.87     0.040 A 
HETATM   13  C1    D T 300      31.226  13.960  45.291  1.00 46.83     0.117 A 
HETATM   14  N2    D T 300      32.254  13.199  45.886  1.00 46.74    -0.057 NA
HETATM   15  C3    D T 300      33.288  12.654  45.121  1.00 46.81     0.770 A 
HETATM   16  N4    D T 300      34.283  11.952  45.705  1.00 46.77     0.062 N 
HETATM   17  N5    D T 300      33.275  12.851  43.730  1.00 46.72    -0.037 NA
HETATM   18  C6    D T 300      32.248  13.596  43.140  1.00 46.73     0.200 A 
HETATM   19  N7    D T 300      32.325  13.710  41.799  1.00 46.67    -0.127 N 
ENDBRANCH  11  12
ENDBRANCH   1  11
BRANCH   9  20
HETATM   20  O19   D T 300      27.006  11.735  41.424  1.00 47.69    -0.326 OA
HETATM   21  C20   D T 300      28.119  11.188  40.727  1.00 47.37     0.181 C 
ENDBRANCH   9  20
BRANCH   8  22
HETATM   22  O16   D T 300      25.074  12.462  43.068  1.00 47.86    -0.324 OA
HETATM   23  C17   D T 300      24.690  11.466  44.014  1.00 47.81     0.182 C 
ENDBRANCH   8  22
BRANCH   5  24
HETATM   24  C24   D T 300      24.669  16.357  46.424  1.00 48.88     0.032 A 
HETATM   25  C25   D T 300      23.492  16.319  45.493  1.00 49.08     0.003 A 
HETATM   26  C26   D T 300      24.421  17.500  45.482  1.00 49.12     0.003 A 
ENDBRANCH   5  24
TORSDOF 5
ENDMDL
MODEL 5
REMARK VINA RESULT:    -7.674      2.371      5.052
REMARK INTER + INTRA:         -10.541
REMARK INTER:                  -9.728
REMARK INTRA:                  -0.813
REMARK UNBOUND:                -0.624
REMARK  5 active torsions:
REMARK  status: ('A' for Active; 'I' for Inactive)
REMARK    1  A    between atoms: C8_6  and  C9_9 
REMARK    2  A    between atoms: C9_9  and  C10_10 
REMARK    3  A    between atoms: C14_14  and  C24_15 
REMARK    4  A    between atoms: C15_20  and  O16_21 
REMARK    5  A    between atoms: C18_23  and  O19_25 
ROOT
HETATM    1  C10   D T 300      28.258  15.289  45.551  1.00 47.60    -0.014 A 
HETATM    2  C11   D T 300      29.603  14.930  45.732  1.00 47.68     0.021 A 
HETATM    3  C27   D T 300      30.312  15.253  46.962  1.00 47.88    -0.000 C 
HETATM    4  C28   D T 300      31.627  15.059  47.075  1.00 48.21     0.003 C 
HETATM    5  C14   D T 300      32.438  14.508  45.938  1.00 48.48     0.143 C 
HETATM    6  O13   D T 300      31.640  13.997  44.860  1.00 47.94    -0.327 OA
HETATM    7  C12   D T 300      30.287  14.252  44.710  1.00 47.86     0.118 A 
HETATM    8  C15   D T 300      29.607  13.862  43.543  1.00 47.79     0.138 A 
HETATM    9  C18   D T 300      28.273  14.232  43.384  1.00 47.76     0.118 A 
HETATM   10  C21   D T 300      27.600  14.944  44.378  1.00 47.62     0.022 A 
ENDROOT
BRANCH   1  11
HETATM   11  C9    D T 300      27.504  16.040  46.617  1.00 47.36     0.058 C 
BRANCH  11  12
HETATM   12  C8    D T 300      26.601  17.114  46.056  1.00 46.87     0.040 A 
HETATM   13  C1    D T 300      27.070  18.333  45.658  1.00 46.83     0.117 A 
HETATM   14  N2    D T 300      26.180  19.317  45.178  1.00 46.74    -0.057 NA
HETATM   15  C3    D T 300      24.806  19.078  45.106  1.00 46.81     0.770 A 
HETATM   16  N4    D T 300      23.960  20.036  44.672  1.00 46.77     0.062 N 
HETATM   17  N5    D T 300      24.318  17.819  45.495  1.00 46.72    -0.037 NA
HETATM   18  C6    D T 300      25.204  16.840  45.960  1.00 46.73     0.200 A 
HETATM   19  N7    D T 300      24.632  15.665  46.292  1.00 46.67    -0.127 N 
ENDBRANCH  11  12
ENDBRANCH   1  11
BRANCH   9  20
HETATM   20  O19   D T 300      27.632  13.849  42.227  1.00 47.69    -0.326 OA
HETATM   21  C20   D T 300      26.620  12.860  42.373  1.00 47.37     0.181 C 
ENDBRANCH   9  20
BRANCH   8  22
HETATM   22  O16   D T 300      30.170  13.168  42.481  1.00 47.86    -0.324 OA
HETATM   23  C17   D T 300      31.067  13.804  41.573  1.00 47.81     0.182 C 
ENDBRANCH   8  22
BRANCH   5  24
HETATM   24  C24   D T 300      33.452  13.469  46.446  1.00 48.88     0.032 A 
HETATM   25  C25   D T 300      33.232  12.020  46.122  1.00 49.08     0.003 A 
HETATM   26  C26   D T 300      33.040  12.511  47.529  1.00 49.12     0.003 A 
ENDBRANCH   5  24
TORSDOF 5
ENDMDL
MODEL 6
REMARK VINA RESULT:    -7.573      3.461      6.262
REMARK INTER + INTRA:         -10.410
REMARK INTER:                  -9.620
REMARK INTRA:                  -0.790
REMARK UNBOUND:                -0.624
REMARK  5 active torsions:
REMARK  status: ('A' for Active; 'I' for Inactive)
REMARK    1  A    between atoms: C8_6  and  C9_9 
REMARK    2  A    between atoms: C9_9  and  C10_10 
REMARK    3  A    between atoms: C14_14  and  C24_15 
REMARK    4  A    between atoms: C15_20  and  O16_21 
REMARK    5  A    between atoms: C18_23  and  O19_25 
ROOT
HETATM    1  C10   D T 300      31.739  14.170  42.349  1.00 47.60    -0.014 A 
HETATM    2  C11   D T 300      32.946  13.529  42.024  1.00 47.68     0.021 A 
HETATM    3  C27   D T 300      33.221  13.085  40.664  1.00 47.88    -0.000 C 
HETATM    4  C28   D T 300      34.290  12.337  40.384  1.00 48.21     0.003 C 
HETATM    5  C14   D T 300      35.251  11.910  41.456  1.00 48.48     0.143 C 
HETATM    6  O13   D T 300      35.045  12.579  42.709  1.00 47.94    -0.327 OA
HETATM    7  C12   D T 300      33.907  13.304  43.022  1.00 47.86     0.118 A 
HETATM    8  C15   D T 300      33.699  13.788  44.325  1.00 47.79     0.138 A 
HETATM    9  C18   D T 300      32.493  14.418  44.626  1.00 47.76     0.118 A 
HETATM   10  C21   D T 300      31.516  14.607  43.648  1.00 47.62     0.022 A 
ENDROOT
BRANCH   1  11
HETATM   11  C9    D T 300      30.677  14.403  41.307  1.00 47.36     0.058 C 
BRANCH  11  12
HETATM   12  C8    D T 300      29.606  13.338  41.307  1.00 46.87     0.040 A 
HETATM   13  C1    D T 300      29.739  12.163  40.624  1.00 46.83     0.117 A 
HETATM   14  N2    D T 300      28.693  11.216  40.623  1.00 46.74    -0.057 NA
HETATM   15  C3    D T 300      27.498  11.456  41.308  1.00 46.81     0.770 A 
HETATM   16  N4    D T 300      26.492  10.556  41.277  1.00 46.77     0.062 N 
HETATM   17  N5    D T 300      27.362  12.653  42.031  1.00 46.72    -0.037 NA
HETATM   18  C6    D T 300      28.406  13.585  42.039  1.00 46.73     0.200 A 
HETATM   19  N7    D T 300      28.175  14.692  42.775  1.00 46.67    -0.127 N 
ENDBRANCH  11  12
ENDBRANCH   1  11
BRANCH   9  20
HETATM   20  O19   D T 300      32.308  14.874  45.913  1.00 47.69    -0.326 OA
HETATM   21  C20   D T 300      31.027  14.630  46.481  1.00 47.37     0.181 C 
ENDBRANCH   9  20
BRANCH   8  22
HETATM   22  O16   D T 300      34.586  13.649  45.384  1.00 47.86    -0.324 OA
HETATM   23  C17   D T 300      34.666  12.434  46.127  1.00 47.81     0.182 C 
ENDBRANCH   8  22
BRANCH   5  24
HETATM   24  C24   D T 300      36.704  12.039  40.966  1.00 48.88     0.032 A 
HETATM   25  C25   D T 300      37.096  11.385  39.673  1.00 49.08     0.003 A 
HETATM   26  C26   D T 300      37.592  10.828  40.978  1.00 49.12     0.003 A 
ENDBRANCH   5  24
TORSDOF 5
ENDMDL
MODEL 7
REMARK VINA RESULT:    -7.501      4.051      7.238
REMARK INTER + INTRA:         -10.317
REMARK INTER:                  -9.754
REMARK INTRA:                  -0.562
REMARK UNBOUND:                -0.624
REMARK  5 active torsions:
REMARK  status: ('A' for Active; 'I' for Inactive)
REMARK    1  A    between atoms: C8_6  and  C9_9 
REMARK    2  A    between atoms: C9_9  and  C10_10 
REMARK    3  A    between atoms: C14_14  and  C24_15 
REMARK    4  A    between atoms: C15_20  and  O16_21 
REMARK    5  A    between atoms: C18_23  and  O19_25 
ROOT
HETATM    1  C10   D T 300      28.791  14.428  43.268  1.00 47.60    -0.014 A 
HETATM    2  C11   D T 300      27.819  14.834  44.197  1.00 47.68     0.021 A 
HETATM    3  C27   D T 300      28.083  15.911  45.142  1.00 47.88    -0.000 C 
HETATM    4  C28   D T 300      27.228  16.191  46.127  1.00 48.21     0.003 C 
HETATM    5  C14   D T 300      25.962  15.406  46.314  1.00 48.48     0.143 C 
HETATM    6  O13   D T 300      25.663  14.534  45.214  1.00 47.94    -0.327 OA
HETATM    7  C12   D T 300      26.570  14.193  44.226  1.00 47.86     0.118 A 
HETATM    8  C15   D T 300      26.263  13.203  43.277  1.00 47.79     0.138 A 
HETATM    9  C18   D T 300      27.244  12.813  42.367  1.00 47.76     0.118 A 
HETATM   10  C21   D T 300      28.502  13.417  42.361  1.00 47.62     0.022 A 
ENDROOT
BRANCH   1  11
HETATM   11  C9    D T 300      30.149  15.077  43.229  1.00 47.36     0.058 C 
BRANCH  11  12
HETATM   12  C8    D T 300      31.118  14.366  42.313  1.00 46.87     0.040 A 
HETATM   13  C1    D T 300      31.156  14.593  40.967  1.00 46.83     0.117 A 
HETATM   14  N2    D T 300      32.053  13.875  40.149  1.00 46.74    -0.057 NA
HETATM   15  C3    D T 300      32.913  12.913  40.686  1.00 46.81     0.770 A 
HETATM   16  N4    D T 300      33.747  12.211  39.889  1.00 46.77     0.062 N 
HETATM   17  N5    D T 300      32.893  12.689  42.073  1.00 46.72    -0.037 NA
HETATM   18  C6    D T 300      32.011  13.411  42.884  1.00 46.73     0.200 A 
HETATM   19  N7    D T 300      32.086  13.127  44.200  1.00 46.67    -0.127 N 
ENDBRANCH  11  12
ENDBRANCH   1  11
BRANCH   9  20
HETATM   20  O19   D T 300      26.922  11.832  41.455  1.00 47.69    -0.326 OA
HETATM   21  C20   D T 300      28.020  11.150  40.861  1.00 47.37     0.181 C 
ENDBRANCH   9  20
BRANCH   8  22
HETATM   22  O16   D T 300      25.057  12.521  43.191  1.00 47.86    -0.324 OA
HETATM   23  C17   D T 300      24.726  11.483  44.113  1.00 47.81     0.182 C 
ENDBRANCH   8  22
BRANCH   5  24
HETATM   24  C24   D T 300      24.786  16.342  46.644  1.00 48.88     0.032 A 
HETATM   25  C25   D T 300      24.297  17.293  45.591  1.00 49.08     0.003 A 
HETATM   26  C26   D T 300      25.039  17.816  46.788  1.00 49.12     0.003 A 
ENDBRANCH   5  24
TORSDOF 5
ENDMDL
MODEL 8
REMARK VINA RESULT:    -7.460      3.958      6.471
REMARK INTER + INTRA:         -10.264
REMARK INTER:                  -9.394
REMARK INTRA:                  -0.869
REMARK UNBOUND:                -0.624
REMARK  5 active torsions:
REMARK  status: ('A' for Active; 'I' for Inactive)
REMARK    1  A    between atoms: C8_6  and  C9_9 
REMARK    2  A    between atoms: C9_9  and  C10_10 
REMARK    3  A    between atoms: C14_14  and  C24_15 
REMARK    4  A    between atoms: C15_20  and  O16_21 
REMARK    5  A    between atoms: C18_23  and  O19_25 
ROOT
HETATM    1  C10   D T 300      30.448  13.428  42.620  1.00 47.60    -0.014 A 
HETATM    2  C11   D T 300      29.140  13.763  43.005  1.00 47.68     0.021 A 
HETATM    3  C27   D T 300      28.845  15.036  43.648  1.00 47.88    -0.000 C 
HETATM    4  C28   D T 300      27.638  15.290  44.158  1.00 48.21     0.003 C 
HETATM    5  C14   D T 300      26.533  14.275  44.101  1.00 48.48     0.143 C 
HETATM    6  O13   D T 300      26.827  13.157  43.250  1.00 47.94    -0.327 OA
HETATM    7  C12   D T 300      28.091  12.858  42.773  1.00 47.86     0.118 A 
HETATM    8  C15   D T 300      28.336  11.655  42.087  1.00 47.79     0.138 A 
HETATM    9  C18   D T 300      29.643  11.343  41.718  1.00 47.76     0.118 A 
HETATM   10  C21   D T 300      30.695  12.219  41.985  1.00 47.62     0.022 A 
ENDROOT
BRANCH   1  11
HETATM   11  C9    D T 300      31.599  14.365  42.879  1.00 47.36     0.058 C 
BRANCH  11  12
HETATM   12  C8    D T 300      32.589  13.822  43.882  1.00 46.87     0.040 A 
HETATM   13  C1    D T 300      32.280  13.653  45.201  1.00 46.83     0.117 A 
HETATM   14  N2    D T 300      33.254  13.179  46.106  1.00 46.74    -0.057 NA
HETATM   15  C3    D T 300      34.552  12.881  45.684  1.00 46.81     0.770 A 
HETATM   16  N4    D T 300      35.484  12.456  46.563  1.00 46.77     0.062 N 
HETATM   17  N5    D T 300      34.871  13.033  44.324  1.00 46.72    -0.037 NA
HETATM   18  C6    D T 300      33.901  13.493  43.426  1.00 46.73     0.200 A 
HETATM   19  N7    D T 300      34.310  13.588  42.145  1.00 46.67    -0.127 N 
ENDBRANCH  11  12
ENDBRANCH   1  11
BRANCH   9  20
HETATM   20  O19   D T 300      29.858  10.153  41.058  1.00 47.69    -0.326 OA
HETATM   21  C20   D T 300      30.704   9.219  41.717  1.00 47.37     0.181 C 
ENDBRANCH   9  20
BRANCH   8  22
HETATM   22  O16   D T 300      27.378  10.699  41.778  1.00 47.86    -0.324 OA
HETATM   23  C17   D T 300      26.568  10.813  40.610  1.00 47.81     0.182 C 
ENDBRANCH   8  22
BRANCH   5  24
HETATM   24  C24   D T 300      25.198  14.945  43.731  1.00 48.88     0.032 A 
HETATM   25  C25   D T 300      24.138  15.084  44.785  1.00 49.08     0.003 A 
HETATM   26  C26   D T 300      23.953  14.107  43.658  1.00 49.12     0.003 A 
ENDBRANCH   5  24
TORSDOF 5
ENDMDL
MODEL 9
REMARK VINA RESULT:    -7.457      6.347      8.868
REMARK INTER + INTRA:         -10.260
REMARK INTER:                  -9.554
REMARK INTRA:                  -0.705
REMARK UNBOUND:                -0.624
REMARK  5 active torsions:
REMARK  status: ('A' for Active; 'I' for Inactive)
REMARK    1  A    between atoms: C8_6  and  C9_9 
REMARK    2  A    between atoms: C9_9  and  C10_10 
REMARK    3  A    between atoms: C14_14  and  C24_15 
REMARK    4  A    between atoms: C15_20  and  O16_21 
REMARK    5  A    between atoms: C18_23  and  O19_25 
ROOT
HETATM    1  C10   D T 300      34.796  13.065  42.012  1.00 47.60    -0.014 A 
HETATM    2  C11   D T 300      33.454  13.254  41.644  1.00 47.68     0.021 A 
HETATM    3  C27   D T 300      33.072  13.439  40.251  1.00 47.88    -0.000 C 
HETATM    4  C28   D T 300      31.827  13.778  39.914  1.00 48.21     0.003 C 
HETATM    5  C14   D T 300      30.764  13.994  40.953  1.00 48.48     0.143 C 
HETATM    6  O13   D T 300      31.153  13.563  42.266  1.00 47.94    -0.327 OA
HETATM    7  C12   D T 300      32.456  13.272  42.633  1.00 47.86     0.118 A 
HETATM    8  C15   D T 300      32.787  13.022  43.975  1.00 47.79     0.138 A 
HETATM    9  C18   D T 300      34.126  12.840  44.317  1.00 47.76     0.118 A 
HETATM   10  C21   D T 300      35.127  12.865  43.346  1.00 47.62     0.022 A 
ENDROOT
BRANCH   1  11
HETATM   11  C9    D T 300      35.893  13.068  40.980  1.00 47.36     0.058 C 
BRANCH  11  12
HETATM   12  C8    D T 300      36.540  11.715  40.802  1.00 46.87     0.040 A 
HETATM   13  C1    D T 300      37.464  11.222  41.679  1.00 46.83     0.117 A 
HETATM   14  N2    D T 300      38.070   9.969  41.447  1.00 46.74    -0.057 NA
HETATM   15  C3    D T 300      37.751   9.208  40.319  1.00 46.81     0.770 A 
HETATM   16  N4    D T 300      38.358   8.024  40.092  1.00 46.77     0.062 N 
HETATM   17  N5    D T 300      36.786   9.699  39.423  1.00 46.72    -0.037 NA
HETATM   18  C6    D T 300      36.179  10.937  39.662  1.00 46.73     0.200 A 
HETATM   19  N7    D T 300      35.258  11.305  38.748  1.00 46.67    -0.127 N 
ENDBRANCH  11  12
ENDBRANCH   1  11
BRANCH   9  20
HETATM   20  O19   D T 300      34.426  12.609  45.642  1.00 47.69    -0.326 OA
HETATM   21  C20   D T 300      35.776  12.258  45.922  1.00 47.37     0.181 C 
ENDBRANCH   9  20
BRANCH   8  22
HETATM   22  O16   D T 300      31.887  12.989  45.031  1.00 47.86    -0.324 OA
HETATM   23  C17   D T 300      31.304  14.185  45.545  1.00 47.81     0.182 C 
ENDBRANCH   8  22
BRANCH   5  24
HETATM   24  C24   D T 300      29.434  13.361  40.510  1.00 48.88     0.032 A 
HETATM   25  C25   D T 300      28.541  12.745  41.548  1.00 49.08     0.003 A 
HETATM   26  C26   D T 300      29.275  11.868  40.573  1.00 49.12     0.003 A 
ENDBRANCH   5  24
TORSDOF 5
ENDMDL
