MODEL 1
REMARK VINA RESULT:    -8.322      0.000      0.000
REMARK INTER + INTRA:          -9.817
REMARK INTER:                  -9.295
REMARK INTRA:                  -0.522
REMARK UNBOUND:                -0.522
REMARK  2 active torsions:
REMARK  status: ('A' for Active; 'I' for Inactive)
REMARK    1  A    between atoms: C22_10  and  C19_16 
REMARK    2  A    between atoms: C12_12  and  C18_15 
ROOT
HETATM    1  C5    D T9000       8.519   2.511  -7.752  1.00 15.43     0.031 A 
HETATM    2  C6    D T9000       9.680   2.489  -6.932  1.00 14.10     0.021 A 
HETATM    3  C7    D T9000       7.650   0.445  -6.679  1.00 15.14     0.031 A 
HETATM    4  C15   D T9000       7.522   1.500  -7.620  1.00 15.55     0.140 A 
HETATM    5  C17   D T9000       8.815   0.426  -5.861  1.00 14.45     0.025 A 
HETATM    6  C20   D T9000       9.315  -0.479  -4.792  1.00 13.45     0.061 A 
HETATM    7  C21   D T9000      10.644   0.091  -4.340  1.00 13.66     0.279 A 
HETATM    8  C12   D T9000       8.615  -1.568  -4.402  1.00 15.97     0.024 C 
HETATM    9  C16   D T9000       9.800   1.442  -6.004  1.00 12.00     0.085 A 
HETATM   10  N24   D T9000      10.851   1.233  -5.114  1.00 11.43    -0.208 NA
HETATM   11  O27   D T9000      11.380  -0.350  -3.483  1.00 15.23    -0.265 OA
HETATM   12  F29   D T9000       6.434   1.551  -8.407  1.00 17.21    -0.204 F 
ENDROOT
BRANCH   8  13
HETATM   13  C18   D T9000       8.878  -2.591  -3.433  1.00 15.83     0.077 A 
HETATM   14  C13   D T9000       9.408  -3.874  -3.600  1.00 17.58     0.001 A 
HETATM   15  C3    D T9000       9.833  -4.490  -4.900  1.00 18.30     0.033 C 
HETATM   16  C19   D T9000       9.482  -4.502  -2.295  1.00 17.94     0.064 A 
HETATM   17  C14   D T9000       8.988  -3.573  -1.387  1.00 17.03     0.063 A 
HETATM   18  C4    D T9000       8.804  -3.605   0.090  1.00 17.32     0.052 C 
HETATM   19  N23   D T9000       8.633  -2.445  -2.089  1.00 14.09    -0.250 NA
BRANCH  16  20
HETATM   20  C22   D T9000       9.986  -5.857  -1.993  1.00 21.63     0.267 C 
HETATM   21  N25   D T9000       9.199  -6.897  -2.459  1.00 24.57    -0.057 NA
HETATM   22  O28   D T9000      11.035  -6.028  -1.364  1.00 26.27    -0.271 OA
ENDBRANCH  16  20
ENDBRANCH   8  13
TORSDOF 2
ENDMDL
MODEL 2
REMARK VINA RESULT:    -8.318      1.604      2.561
REMARK INTER + INTRA:          -9.813
REMARK INTER:                  -9.202
REMARK INTRA:                  -0.611
REMARK UNBOUND:                -0.522
REMARK  2 active torsions:
REMARK  status: ('A' for Active; 'I' for Inactive)
REMARK    1  A    between atoms: C22_10  and  C19_16 
REMARK    2  A    between atoms: C12_12  and  C18_15 
ROOT
HETATM    1  C5    D T9000       7.124   3.552  -8.753  1.00 15.43     0.031 A 
HETATM    2  C6    D T9000       8.385   3.556  -8.096  1.00 14.10     0.021 A 
HETATM    3  C7    D T9000       6.569   1.325  -7.801  1.00 15.14     0.031 A 
HETATM    4  C15   D T9000       6.234   2.448  -8.602  1.00 15.55     0.140 A 
HETATM    5  C17   D T9000       7.833   1.332  -7.146  1.00 14.45     0.025 A 
HETATM    6  C20   D T9000       8.541   0.379  -6.250  1.00 13.45     0.061 A 
HETATM    7  C21   D T9000       9.872   1.020  -5.915  1.00 13.66     0.279 A 
HETATM    8  C12   D T9000       7.984  -0.800  -5.891  1.00 15.97     0.024 C 
HETATM    9  C16   D T9000       8.710   2.441  -7.306  1.00 12.00     0.085 A 
HETATM   10  N24   D T9000       9.885   2.243  -6.585  1.00 11.43    -0.208 NA
HETATM   11  O27   D T9000      10.749   0.566  -5.210  1.00 15.23    -0.265 OA
HETATM   12  F29   D T9000       5.049   2.476  -9.233  1.00 17.21    -0.204 F 
ENDROOT
BRANCH   8  13
HETATM   13  C18   D T9000       8.453  -1.883  -5.076  1.00 15.83     0.077 A 
HETATM   14  C13   D T9000       8.749  -1.918  -3.710  1.00 17.58     0.001 A 
HETATM   15  C3    D T9000       8.639  -0.767  -2.754  1.00 18.30     0.033 C 
HETATM   16  C19   D T9000       9.174  -3.263  -3.378  1.00 17.94     0.064 A 
HETATM   17  C14   D T9000       9.124  -3.991  -4.561  1.00 17.03     0.063 A 
HETATM   18  C4    D T9000       9.430  -5.411  -4.886  1.00 17.32     0.052 C 
HETATM   19  N23   D T9000       8.693  -3.147  -5.557  1.00 14.09    -0.250 NA
BRANCH  16  20
HETATM   20  C22   D T9000       9.578  -3.760  -2.047  1.00 21.63     0.267 C 
HETATM   21  N25   D T9000       8.660  -4.589  -1.423  1.00 24.57    -0.057 NA
HETATM   22  O28   D T9000      10.658  -3.444  -1.541  1.00 26.27    -0.271 OA
ENDBRANCH  16  20
ENDBRANCH   8  13
TORSDOF 2
ENDMDL
MODEL 3
REMARK VINA RESULT:    -7.905      1.999      2.387
REMARK INTER + INTRA:          -9.351
REMARK INTER:                  -8.846
REMARK INTRA:                  -0.505
REMARK UNBOUND:                -0.522
REMARK  2 active torsions:
REMARK  status: ('A' for Active; 'I' for Inactive)
REMARK    1  A    between atoms: C22_10  and  C19_16 
REMARK    2  A    between atoms: C12_12  and  C18_15 
ROOT
HETATM    1  C5    D T9000       7.656   2.104  -8.432  1.00 15.43     0.031 A 
HETATM    2  C6    D T9000       7.095   0.801  -8.526  1.00 14.10     0.021 A 
HETATM    3  C7    D T9000       8.771   1.535  -6.286  1.00 15.14     0.031 A 
HETATM    4  C15   D T9000       8.481   2.459  -7.325  1.00 15.55     0.140 A 
HETATM    5  C17   D T9000       8.207   0.232  -6.382  1.00 14.45     0.025 A 
HETATM    6  C20   D T9000       8.260  -0.986  -5.530  1.00 13.45     0.061 A 
HETATM    7  C21   D T9000       7.419  -2.033  -6.231  1.00 13.66     0.279 A 
HETATM    8  C12   D T9000       8.962  -1.010  -4.374  1.00 15.97     0.024 C 
HETATM    9  C16   D T9000       7.386  -0.106  -7.494  1.00 12.00     0.085 A 
HETATM   10  N24   D T9000       6.939  -1.421  -7.390  1.00 11.43    -0.208 NA
HETATM   11  O27   D T9000       7.202  -3.168  -5.864  1.00 15.23    -0.265 OA
HETATM   12  F29   D T9000       8.999   3.696  -7.267  1.00 17.21    -0.204 F 
ENDROOT
BRANCH   8  13
HETATM   13  C18   D T9000       9.154  -2.026  -3.380  1.00 15.83     0.077 A 
HETATM   14  C13   D T9000       9.749  -3.286  -3.486  1.00 17.58     0.001 A 
HETATM   15  C3    D T9000      10.341  -3.880  -4.730  1.00 18.30     0.033 C 
HETATM   16  C19   D T9000       9.701  -3.915  -2.180  1.00 17.94     0.064 A 
HETATM   17  C14   D T9000       9.072  -3.010  -1.335  1.00 17.03     0.063 A 
HETATM   18  C4    D T9000       8.724  -3.054   0.112  1.00 17.32     0.052 C 
HETATM   19  N23   D T9000       8.754  -1.894  -2.073  1.00 14.09    -0.250 NA
BRANCH  16  20
HETATM   20  C22   D T9000      10.220  -5.251  -1.822  1.00 21.63     0.267 C 
HETATM   21  N25   D T9000       9.565  -6.318  -2.414  1.00 24.57    -0.057 NA
HETATM   22  O28   D T9000      11.170  -5.385  -1.045  1.00 26.27    -0.271 OA
ENDBRANCH  16  20
ENDBRANCH   8  13
TORSDOF 2
ENDMDL
MODEL 4
REMARK VINA RESULT:    -7.434      2.524      2.964
REMARK INTER + INTRA:          -8.825
REMARK INTER:                  -8.333
REMARK INTRA:                  -0.492
REMARK UNBOUND:                -0.522
REMARK  2 active torsions:
REMARK  status: ('A' for Active; 'I' for Inactive)
REMARK    1  A    between atoms: C22_10  and  C19_16 
REMARK    2  A    between atoms: C12_12  and  C18_15 
ROOT
HETATM    1  C5    D T9000       7.655   1.715  -8.102  1.00 15.43     0.031 A 
HETATM    2  C6    D T9000       7.254   0.356  -7.988  1.00 14.10     0.021 A 
HETATM    3  C7    D T9000       8.845   1.609  -5.923  1.00 15.14     0.031 A 
HETATM    4  C15   D T9000       8.440   2.326  -7.080  1.00 15.55     0.140 A 
HETATM    5  C17   D T9000       8.440   0.249  -5.812  1.00 14.45     0.025 A 
HETATM    6  C20   D T9000       8.644  -0.812  -4.790  1.00 13.45     0.061 A 
HETATM    7  C21   D T9000       7.930  -2.043  -5.307  1.00 13.66     0.279 A 
HETATM    8  C12   D T9000       9.352  -0.580  -3.661  1.00 15.97     0.024 C 
HETATM    9  C16   D T9000       7.658  -0.346  -6.840  1.00 12.00     0.085 A 
HETATM   10  N24   D T9000       7.373  -1.674  -6.531  1.00 11.43    -0.208 NA
HETATM   11  O27   D T9000       7.852  -3.129  -4.770  1.00 15.23    -0.265 OA
HETATM   12  F29   D T9000       8.806   3.610  -7.219  1.00 17.21    -0.204 F 
ENDROOT
BRANCH   8  13
HETATM   13  C18   D T9000       9.671  -1.405  -2.532  1.00 15.83     0.077 A 
HETATM   14  C13   D T9000      10.912  -1.735  -1.982  1.00 17.58     0.001 A 
HETATM   15  C3    D T9000      12.250  -1.277  -2.484  1.00 18.30     0.033 C 
HETATM   16  C19   D T9000      10.681  -2.592  -0.836  1.00 17.94     0.064 A 
HETATM   17  C14   D T9000       9.304  -2.751  -0.740  1.00 17.03     0.063 A 
HETATM   18  C4    D T9000       8.438  -3.502   0.211  1.00 17.32     0.052 C 
HETATM   19  N23   D T9000       8.725  -2.037  -1.762  1.00 14.09    -0.250 NA
BRANCH  16  20
HETATM   20  C22   D T9000      11.706  -3.176   0.054  1.00 21.63     0.267 C 
HETATM   21  N25   D T9000      11.905  -4.539  -0.089  1.00 24.57    -0.057 NA
HETATM   22  O28   D T9000      12.327  -2.481   0.863  1.00 26.27    -0.271 OA
ENDBRANCH  16  20
ENDBRANCH   8  13
TORSDOF 2
ENDMDL
MODEL 5
REMARK VINA RESULT:    -7.231      2.498      3.180
REMARK INTER + INTRA:          -8.599
REMARK INTER:                  -8.389
REMARK INTRA:                  -0.210
REMARK UNBOUND:                -0.522
REMARK  2 active torsions:
REMARK  status: ('A' for Active; 'I' for Inactive)
REMARK    1  A    between atoms: C22_10  and  C19_16 
REMARK    2  A    between atoms: C12_12  and  C18_15 
ROOT
HETATM    1  C5    D T9000       7.482   2.293  -8.560  1.00 15.43     0.031 A 
HETATM    2  C6    D T9000       7.096   0.940  -8.355  1.00 14.10     0.021 A 
HETATM    3  C7    D T9000       8.944   2.242  -6.552  1.00 15.14     0.031 A 
HETATM    4  C15   D T9000       8.394   2.928  -7.667  1.00 15.55     0.140 A 
HETATM    5  C17   D T9000       8.555   0.888  -6.349  1.00 14.45     0.025 A 
HETATM    6  C20   D T9000       8.888  -0.145  -5.332  1.00 13.45     0.061 A 
HETATM    7  C21   D T9000       8.109  -1.386  -5.716  1.00 13.66     0.279 A 
HETATM    8  C12   D T9000       9.737   0.116  -4.312  1.00 15.97     0.024 C 
HETATM    9  C16   D T9000       7.644   0.268  -7.249  1.00 12.00     0.085 A 
HETATM   10  N24   D T9000       7.399  -1.048  -6.867  1.00 11.43    -0.208 NA
HETATM   11  O27   D T9000       8.100  -2.455  -5.142  1.00 15.23    -0.265 OA
HETATM   12  F29   D T9000       8.742   4.205  -7.890  1.00 17.21    -0.204 F 
ENDROOT
BRANCH   8  13
HETATM   13  C18   D T9000      10.198  -0.679  -3.211  1.00 15.83     0.077 A 
HETATM   14  C13   D T9000       9.474  -1.395  -2.253  1.00 17.58     0.001 A 
HETATM   15  C3    D T9000       7.979  -1.485  -2.162  1.00 18.30     0.033 C 
HETATM   16  C19   D T9000      10.422  -2.040  -1.365  1.00 17.94     0.064 A 
HETATM   17  C14   D T9000      11.686  -1.685  -1.820  1.00 17.03     0.063 A 
HETATM   18  C4    D T9000      13.058  -2.019  -1.350  1.00 17.32     0.052 C 
HETATM   19  N23   D T9000      11.526  -0.873  -2.918  1.00 14.09    -0.250 NA
BRANCH  16  20
HETATM   20  C22   D T9000      10.105  -2.906  -0.211  1.00 21.63     0.267 C 
HETATM   21  N25   D T9000       9.520  -4.121  -0.527  1.00 24.57    -0.057 NA
HETATM   22  O28   D T9000      10.347  -2.550   0.946  1.00 26.27    -0.271 OA
ENDBRANCH  16  20
ENDBRANCH   8  13
TORSDOF 2
ENDMDL
MODEL 6
REMARK VINA RESULT:    -7.179      2.440      3.131
REMARK INTER + INTRA:          -8.541
REMARK INTER:                  -8.268
REMARK INTRA:                  -0.273
REMARK UNBOUND:                -0.522
REMARK  2 active torsions:
REMARK  status: ('A' for Active; 'I' for Inactive)
REMARK    1  A    between atoms: C22_10  and  C19_16 
REMARK    2  A    between atoms: C12_12  and  C18_15 
ROOT
HETATM    1  C5    D T9000       7.613   2.180  -8.400  1.00 15.43     0.031 A 
HETATM    2  C6    D T9000       6.999   0.901  -8.504  1.00 14.10     0.021 A 
HETATM    3  C7    D T9000       8.845   1.489  -6.357  1.00 15.14     0.031 A 
HETATM    4  C15   D T9000       8.522   2.462  -7.339  1.00 15.55     0.140 A 
HETATM    5  C17   D T9000       8.228   0.210  -6.463  1.00 14.45     0.025 A 
HETATM    6  C20   D T9000       8.293  -1.041  -5.662  1.00 13.45     0.061 A 
HETATM    7  C21   D T9000       7.369  -2.030  -6.342  1.00 13.66     0.279 A 
HETATM    8  C12   D T9000       9.069  -1.134  -4.557  1.00 15.97     0.024 C 
HETATM    9  C16   D T9000       7.323  -0.056  -7.528  1.00 12.00     0.085 A 
HETATM   10  N24   D T9000       6.837  -1.358  -7.442  1.00 11.43    -0.208 NA
HETATM   11  O27   D T9000       7.135  -3.171  -6.003  1.00 15.23    -0.265 OA
HETATM   12  F29   D T9000       9.088   3.678  -7.271  1.00 17.21    -0.204 F 
ENDROOT
BRANCH   8  13
HETATM   13  C18   D T9000       9.289  -2.194  -3.617  1.00 15.83     0.077 A 
HETATM   14  C13   D T9000       9.437  -2.148  -2.228  1.00 17.58     0.001 A 
HETATM   15  C3    D T9000       9.403  -0.911  -1.378  1.00 18.30     0.033 C 
HETATM   16  C19   D T9000       9.624  -3.504  -1.751  1.00 17.94     0.064 A 
HETATM   17  C14   D T9000       9.585  -4.320  -2.875  1.00 17.03     0.063 A 
HETATM   18  C4    D T9000       9.709  -5.793  -3.057  1.00 17.32     0.052 C 
HETATM   19  N23   D T9000       9.386  -3.517  -3.973  1.00 14.09    -0.250 NA
BRANCH  16  20
HETATM   20  C22   D T9000       9.813  -3.931  -0.350  1.00 21.63     0.267 C 
HETATM   21  N25   D T9000      11.105  -4.301  -0.015  1.00 24.57    -0.057 NA
HETATM   22  O28   D T9000       8.873  -3.953   0.449  1.00 26.27    -0.271 OA
ENDBRANCH  16  20
ENDBRANCH   8  13
TORSDOF 2
ENDMDL
MODEL 7
REMARK VINA RESULT:    -7.101      3.433      7.369
REMARK INTER + INTRA:          -8.453
REMARK INTER:                  -7.931
REMARK INTRA:                  -0.523
REMARK UNBOUND:                -0.522
REMARK  2 active torsions:
REMARK  status: ('A' for Active; 'I' for Inactive)
REMARK    1  A    between atoms: C22_10  and  C19_16 
REMARK    2  A    between atoms: C12_12  and  C18_15 
ROOT
HETATM    1  C5    D T9000       9.562  -5.551  -0.098  1.00 15.43     0.031 A 
HETATM    2  C6    D T9000       9.860  -5.960  -1.426  1.00 14.10     0.021 A 
HETATM    3  C7    D T9000       8.836  -3.309  -0.887  1.00 15.14     0.031 A 
HETATM    4  C15   D T9000       9.057  -4.243   0.161  1.00 15.55     0.140 A 
HETATM    5  C17   D T9000       9.137  -3.722  -2.215  1.00 14.45     0.025 A 
HETATM    6  C20   D T9000       9.054  -3.065  -3.547  1.00 13.45     0.061 A 
HETATM    7  C21   D T9000       9.541  -4.086  -4.555  1.00 13.66     0.279 A 
HETATM    8  C12   D T9000       8.614  -1.794  -3.683  1.00 15.97     0.024 C 
HETATM    9  C16   D T9000       9.640  -5.030  -2.457  1.00 12.00     0.085 A 
HETATM   10  N24   D T9000       9.867  -5.224  -3.817  1.00 11.43    -0.208 NA
HETATM   11  O27   D T9000       9.632  -3.948  -5.757  1.00 15.23    -0.265 OA
HETATM   12  F29   D T9000       8.782  -3.888   1.426  1.00 17.21    -0.204 F 
ENDROOT
BRANCH   8  13
HETATM   13  C18   D T9000       8.461  -0.940  -4.825  1.00 15.83     0.077 A 
HETATM   14  C13   D T9000       7.674  -1.099  -5.969  1.00 17.58     0.001 A 
HETATM   15  C3    D T9000       6.776  -2.264  -6.265  1.00 18.30     0.033 C 
HETATM   16  C19   D T9000       7.872   0.061  -6.814  1.00 17.94     0.064 A 
HETATM   17  C14   D T9000       8.778   0.878  -6.149  1.00 17.03     0.063 A 
HETATM   18  C4    D T9000       9.381   2.198  -6.483  1.00 17.32     0.052 C 
HETATM   19  N23   D T9000       9.115   0.260  -4.969  1.00 14.09    -0.250 NA
BRANCH  16  20
HETATM   20  C22   D T9000       7.234   0.323  -8.121  1.00 21.63     0.267 C 
HETATM   21  N25   D T9000       6.276   1.323  -8.121  1.00 24.57    -0.057 NA
HETATM   22  O28   D T9000       7.544  -0.319  -9.129  1.00 26.27    -0.271 OA
ENDBRANCH  16  20
ENDBRANCH   8  13
TORSDOF 2
ENDMDL
MODEL 8
REMARK VINA RESULT:    -6.946      2.656      3.453
REMARK INTER + INTRA:          -8.280
REMARK INTER:                  -7.729
REMARK INTRA:                  -0.551
REMARK UNBOUND:                -0.522
REMARK  2 active torsions:
REMARK  status: ('A' for Active; 'I' for Inactive)
REMARK    1  A    between atoms: C22_10  and  C19_16 
REMARK    2  A    between atoms: C12_12  and  C18_15 
ROOT
HETATM    1  C5    D T9000       6.873  -0.006  -8.133  1.00 15.43     0.031 A 
HETATM    2  C6    D T9000       7.589   1.080  -7.559  1.00 14.10     0.021 A 
HETATM    3  C7    D T9000       7.727  -1.563  -6.395  1.00 15.14     0.031 A 
HETATM    4  C15   D T9000       6.947  -1.307  -7.553  1.00 15.55     0.140 A 
HETATM    5  C17   D T9000       8.443  -0.473  -5.824  1.00 14.45     0.025 A 
HETATM    6  C20   D T9000       9.348  -0.328  -4.653  1.00 13.45     0.061 A 
HETATM    7  C21   D T9000       9.769   1.126  -4.619  1.00 13.66     0.279 A 
HETATM    8  C12   D T9000       9.653  -1.381  -3.860  1.00 15.97     0.024 C 
HETATM    9  C16   D T9000       8.359   0.818  -6.414  1.00 12.00     0.085 A 
HETATM   10  N24   D T9000       9.133   1.732  -5.702  1.00 11.43    -0.208 NA
HETATM   11  O27   D T9000      10.509   1.660  -3.818  1.00 15.23    -0.265 OA
HETATM   12  F29   D T9000       6.257  -2.312  -8.116  1.00 17.21    -0.204 F 
ENDROOT
BRANCH   8  13
HETATM   13  C18   D T9000      10.498  -1.512  -2.708  1.00 15.83     0.077 A 
HETATM   14  C13   D T9000      10.182  -1.885  -1.399  1.00 17.58     0.001 A 
HETATM   15  C3    D T9000       8.817  -2.242  -0.889  1.00 18.30     0.033 C 
HETATM   16  C19   D T9000      11.406  -1.873  -0.622  1.00 17.94     0.064 A 
HETATM   17  C14   D T9000      12.417  -1.487  -1.493  1.00 17.03     0.063 A 
HETATM   18  C4    D T9000      13.881  -1.290  -1.315  1.00 17.32     0.052 C 
HETATM   19  N23   D T9000      11.851  -1.276  -2.729  1.00 14.09    -0.250 NA
BRANCH  16  20
HETATM   20  C22   D T9000      11.548  -2.208   0.810  1.00 21.63     0.267 C 
HETATM   21  N25   D T9000      11.405  -1.142   1.683  1.00 24.57    -0.057 NA
HETATM   22  O28   D T9000      11.782  -3.361   1.181  1.00 26.27    -0.271 OA
ENDBRANCH  16  20
ENDBRANCH   8  13
TORSDOF 2
ENDMDL
MODEL 9
REMARK VINA RESULT:    -6.581      2.800      3.891
REMARK INTER + INTRA:          -7.873
REMARK INTER:                  -7.340
REMARK INTRA:                  -0.533
REMARK UNBOUND:                -0.522
REMARK  2 active torsions:
REMARK  status: ('A' for Active; 'I' for Inactive)
REMARK    1  A    between atoms: C22_10  and  C19_16 
REMARK    2  A    between atoms: C12_12  and  C18_15 
ROOT
HETATM    1  C5    D T9000       9.215   1.338  -6.235  1.00 15.43     0.031 A 
HETATM    2  C6    D T9000       8.189   0.409  -5.907  1.00 14.10     0.021 A 
HETATM    3  C7    D T9000      10.694   0.419  -4.463  1.00 15.14     0.031 A 
HETATM    4  C15   D T9000      10.448   1.336  -5.518  1.00 15.55     0.140 A 
HETATM    5  C17   D T9000       9.665  -0.509  -4.137  1.00 14.45     0.025 A 
HETATM    6  C20   D T9000       9.529  -1.594  -3.129  1.00 13.45     0.061 A 
HETATM    7  C21   D T9000       8.152  -2.192  -3.332  1.00 13.66     0.279 A 
HETATM    8  C12   D T9000      10.524  -1.879  -2.259  1.00 15.97     0.024 C 
HETATM    9  C16   D T9000       8.441  -0.495  -4.862  1.00 12.00     0.085 A 
HETATM   10  N24   D T9000       7.578  -1.477  -4.382  1.00 11.43    -0.208 NA
HETATM   11  O27   D T9000       7.647  -3.103  -2.710  1.00 15.23    -0.265 OA
HETATM   12  F29   D T9000      11.398   2.224  -5.853  1.00 17.21    -0.204 F 
ENDROOT
BRANCH   8  13
HETATM   13  C18   D T9000      10.636  -2.838  -1.198  1.00 15.83     0.077 A 
HETATM   14  C13   D T9000      10.850  -2.646   0.169  1.00 17.58     0.001 A 
HETATM   15  C3    D T9000      11.025  -1.324   0.857  1.00 18.30     0.033 C 
HETATM   16  C19   D T9000      10.868  -3.948   0.807  1.00 17.94     0.064 A 
HETATM   17  C14   D T9000      10.667  -4.880  -0.203  1.00 17.03     0.063 A 
HETATM   18  C4    D T9000      10.578  -6.366  -0.202  1.00 17.32     0.052 C 
HETATM   19  N23   D T9000      10.534  -4.195  -1.388  1.00 14.09    -0.250 NA
BRANCH  16  20
HETATM   20  C22   D T9000      11.058  -4.225   2.246  1.00 21.63     0.267 C 
HETATM   21  N25   D T9000       9.892  -4.395   2.973  1.00 24.57    -0.057 NA
HETATM   22  O28   D T9000      12.185  -4.292   2.746  1.00 26.27    -0.271 OA
ENDBRANCH  16  20
ENDBRANCH   8  13
TORSDOF 2
ENDMDL
