MODEL 1
REMARK VINA RESULT:    -7.917      0.000      0.000
REMARK INTER + INTRA:          -9.400
REMARK INTER:                  -8.843
REMARK INTRA:                  -0.557
REMARK UNBOUND:                -0.557
REMARK  2 active torsions:
REMARK  status: ('A' for Active; 'I' for Inactive)
REMARK    1  A    between atoms: C22_10  and  C19_16 
REMARK    2  A    between atoms: C12_12  and  C18_15 
ROOT
HETATM    1  C5    D T9000       1.253  -3.558 -10.407  1.00 15.43     0.031 A 
HETATM    2  C6    D T9000       0.560  -4.340 -11.372  1.00 14.10     0.021 A 
HETATM    3  C7    D T9000      -0.688  -2.025 -10.172  1.00 15.14     0.031 A 
HETATM    4  C15   D T9000       0.631  -2.417  -9.820  1.00 15.55     0.140 A 
HETATM    5  C17   D T9000      -1.378  -2.809 -11.139  1.00 14.45     0.025 A 
HETATM    6  C20   D T9000      -2.725  -2.735 -11.763  1.00 13.45     0.061 A 
HETATM    7  C21   D T9000      -2.812  -3.900 -12.727  1.00 13.66     0.279 A 
HETATM    8  C12   D T9000      -3.602  -1.758 -11.441  1.00 15.97     0.024 C 
HETATM    9  C16   D T9000      -0.743  -3.944 -11.715  1.00 12.00     0.085 A 
HETATM   10  N24   D T9000      -1.588  -4.563 -12.632  1.00 11.43    -0.208 NA
HETATM   11  O27   D T9000      -3.747  -4.198 -13.440  1.00 15.23    -0.265 OA
HETATM   12  F29   D T9000       1.309  -1.700  -8.909  1.00 17.21    -0.204 F 
ENDROOT
BRANCH   8  13
HETATM   13  C18   D T9000      -4.925  -1.453 -11.901  1.00 15.83     0.077 A 
HETATM   14  C13   D T9000      -6.097  -2.212 -11.838  1.00 17.58     0.001 A 
HETATM   15  C3    D T9000      -6.226  -3.585 -11.250  1.00 18.30     0.033 C 
HETATM   16  C19   D T9000      -7.166  -1.435 -12.436  1.00 17.94     0.064 A 
HETATM   17  C14   D T9000      -6.597  -0.236 -12.841  1.00 17.03     0.063 A 
HETATM   18  C4    D T9000      -7.155   0.971 -13.510  1.00 17.32     0.052 C 
HETATM   19  N23   D T9000      -5.262  -0.271 -12.515  1.00 14.09    -0.250 NA
BRANCH  16  20
HETATM   20  C22   D T9000      -8.580  -1.842 -12.578  1.00 21.63     0.267 C 
HETATM   21  N25   D T9000      -9.419  -1.433 -11.557  1.00 24.57    -0.057 NA
HETATM   22  O28   D T9000      -8.962  -2.505 -13.547  1.00 26.27    -0.271 OA
ENDBRANCH  16  20
ENDBRANCH   8  13
TORSDOF 2
ENDMDL
MODEL 2
REMARK VINA RESULT:    -7.851      1.942      2.239
REMARK INTER + INTRA:          -9.327
REMARK INTER:                  -8.744
REMARK INTRA:                  -0.583
REMARK UNBOUND:                -0.557
REMARK  2 active torsions:
REMARK  status: ('A' for Active; 'I' for Inactive)
REMARK    1  A    between atoms: C22_10  and  C19_16 
REMARK    2  A    between atoms: C12_12  and  C18_15 
ROOT
HETATM    1  C5    D T9000       1.554  -3.975 -10.144  1.00 15.43     0.031 A 
HETATM    2  C6    D T9000       0.575  -4.516 -11.023  1.00 14.10     0.021 A 
HETATM    3  C7    D T9000       0.340  -1.810 -10.031  1.00 15.14     0.031 A 
HETATM    4  C15   D T9000       1.431  -2.640  -9.659  1.00 15.55     0.140 A 
HETATM    5  C17   D T9000      -0.637  -2.354 -10.912  1.00 14.45     0.025 A 
HETATM    6  C20   D T9000      -1.886  -1.830 -11.524  1.00 13.45     0.061 A 
HETATM    7  C21   D T9000      -2.447  -2.952 -12.373  1.00 13.66     0.279 A 
HETATM    8  C12   D T9000      -2.318  -0.571 -11.284  1.00 15.97     0.024 C 
HETATM    9  C16   D T9000      -0.500  -3.688 -11.386  1.00 12.00     0.085 A 
HETATM   10  N24   D T9000      -1.557  -4.017 -12.231  1.00 11.43    -0.208 NA
HETATM   11  O27   D T9000      -3.458  -2.933 -13.044  1.00 15.23    -0.265 OA
HETATM   12  F29   D T9000       2.369  -2.159  -8.828  1.00 17.21    -0.204 F 
ENDROOT
BRANCH   8  13
HETATM   13  C18   D T9000      -3.451   0.170 -11.755  1.00 15.83     0.077 A 
HETATM   14  C13   D T9000      -4.817  -0.072 -11.589  1.00 17.58     0.001 A 
HETATM   15  C3    D T9000      -5.424  -1.226 -10.847  1.00 18.30     0.033 C 
HETATM   16  C19   D T9000      -5.545   0.993 -12.254  1.00 17.94     0.064 A 
HETATM   17  C14   D T9000      -4.587   1.836 -12.801  1.00 17.03     0.063 A 
HETATM   18  C4    D T9000      -4.684   3.092 -13.593  1.00 17.32     0.052 C 
HETATM   19  N23   D T9000      -3.349   1.325 -12.493  1.00 14.09    -0.250 NA
BRANCH  16  20
HETATM   20  C22   D T9000      -7.013   1.146 -12.328  1.00 21.63     0.267 C 
HETATM   21  N25   D T9000      -7.633   0.424 -13.331  1.00 24.57    -0.057 NA
HETATM   22  O28   D T9000      -7.622   1.879 -11.542  1.00 26.27    -0.271 OA
ENDBRANCH  16  20
ENDBRANCH   8  13
TORSDOF 2
ENDMDL
MODEL 3
REMARK VINA RESULT:    -7.690      4.175      6.263
REMARK INTER + INTRA:          -9.146
REMARK INTER:                  -8.584
REMARK INTRA:                  -0.562
REMARK UNBOUND:                -0.557
REMARK  2 active torsions:
REMARK  status: ('A' for Active; 'I' for Inactive)
REMARK    1  A    between atoms: C22_10  and  C19_16 
REMARK    2  A    between atoms: C12_12  and  C18_15 
ROOT
HETATM    1  C5    D T9000       0.576   4.669 -10.189  1.00 15.43     0.031 A 
HETATM    2  C6    D T9000       0.549   3.740  -9.113  1.00 14.10     0.021 A 
HETATM    3  C7    D T9000      -0.166   2.922 -11.793  1.00 15.14     0.031 A 
HETATM    4  C15   D T9000       0.222   4.259 -11.509  1.00 15.55     0.140 A 
HETATM    5  C17   D T9000      -0.190   1.994 -10.714  1.00 14.45     0.025 A 
HETATM    6  C20   D T9000      -0.524   0.551 -10.597  1.00 13.45     0.061 A 
HETATM    7  C21   D T9000      -0.335   0.187  -9.139  1.00 13.66     0.279 A 
HETATM    8  C12   D T9000      -0.903  -0.178 -11.671  1.00 15.97     0.024 C 
HETATM    9  C16   D T9000       0.165   2.420  -9.404  1.00 12.00     0.085 A 
HETATM   10  N24   D T9000       0.075   1.360  -8.505  1.00 11.43    -0.208 NA
HETATM   11  O27   D T9000      -0.502  -0.898  -8.622  1.00 15.23    -0.265 OA
HETATM   12  F29   D T9000       0.254   5.160 -12.503  1.00 17.21    -0.204 F 
ENDROOT
BRANCH   8  13
HETATM   13  C18   D T9000      -1.251  -1.560 -11.830  1.00 15.83     0.077 A 
HETATM   14  C13   D T9000      -2.476  -2.147 -12.156  1.00 17.58     0.001 A 
HETATM   15  C3    D T9000      -3.761  -1.420 -12.417  1.00 18.30     0.033 C 
HETATM   16  C19   D T9000      -2.284  -3.585 -12.205  1.00 17.94     0.064 A 
HETATM   17  C14   D T9000      -0.948  -3.810 -11.901  1.00 17.03     0.063 A 
HETATM   18  C4    D T9000      -0.134  -5.050 -11.792  1.00 17.32     0.052 C 
HETATM   19  N23   D T9000      -0.354  -2.590 -11.680  1.00 14.09    -0.250 NA
BRANCH  16  20
HETATM   20  C22   D T9000      -3.309  -4.602 -12.520  1.00 21.63     0.267 C 
HETATM   21  N25   D T9000      -3.540  -4.812 -13.867  1.00 24.57    -0.057 NA
HETATM   22  O28   D T9000      -3.909  -5.207 -11.626  1.00 26.27    -0.271 OA
ENDBRANCH  16  20
ENDBRANCH   8  13
TORSDOF 2
ENDMDL
MODEL 4
REMARK VINA RESULT:    -7.578      2.379      3.124
REMARK INTER + INTRA:          -9.021
REMARK INTER:                  -8.388
REMARK INTRA:                  -0.634
REMARK UNBOUND:                -0.557
REMARK  2 active torsions:
REMARK  status: ('A' for Active; 'I' for Inactive)
REMARK    1  A    between atoms: C22_10  and  C19_16 
REMARK    2  A    between atoms: C12_12  and  C18_15 
ROOT
HETATM    1  C5    D T9000       0.703  -4.125 -10.899  1.00 15.43     0.031 A 
HETATM    2  C6    D T9000       0.365  -2.934 -10.200  1.00 14.10     0.021 A 
HETATM    3  C7    D T9000      -1.472  -4.108 -12.099  1.00 15.14     0.031 A 
HETATM    4  C15   D T9000      -0.208  -4.698 -11.835  1.00 15.55     0.140 A 
HETATM    5  C17   D T9000      -1.809  -2.917 -11.396  1.00 14.45     0.025 A 
HETATM    6  C20   D T9000      -2.995  -2.022 -11.383  1.00 13.45     0.061 A 
HETATM    7  C21   D T9000      -2.687  -0.922 -10.389  1.00 13.66     0.279 A 
HETATM    8  C12   D T9000      -4.075  -2.266 -12.159  1.00 15.97     0.024 C 
HETATM    9  C16   D T9000      -0.888  -2.358 -10.466  1.00 12.00     0.085 A 
HETATM   10  N24   D T9000      -1.414  -1.203  -9.893  1.00 11.43    -0.208 NA
HETATM   11  O27   D T9000      -3.397   0.012 -10.080  1.00 15.23    -0.265 OA
HETATM   12  F29   D T9000       0.142  -5.821 -12.482  1.00 17.21    -0.204 F 
ENDROOT
BRANCH   8  13
HETATM   13  C18   D T9000      -5.328  -1.588 -12.316  1.00 15.83     0.077 A 
HETATM   14  C13   D T9000      -5.616  -0.351 -12.899  1.00 17.58     0.001 A 
HETATM   15  C3    D T9000      -4.620   0.585 -13.514  1.00 18.30     0.033 C 
HETATM   16  C19   D T9000      -7.048  -0.137 -12.812  1.00 17.94     0.064 A 
HETATM   17  C14   D T9000      -7.571  -1.253 -12.173  1.00 17.03     0.063 A 
HETATM   18  C4    D T9000      -8.955  -1.640 -11.790  1.00 17.32     0.052 C 
HETATM   19  N23   D T9000      -6.528  -2.102 -11.886  1.00 14.09    -0.250 NA
BRANCH  16  20
HETATM   20  C22   D T9000      -7.797   1.036 -13.309  1.00 21.63     0.267 C 
HETATM   21  N25   D T9000      -7.711   2.170 -12.520  1.00 24.57    -0.057 NA
HETATM   22  O28   D T9000      -8.453   0.984 -14.354  1.00 26.27    -0.271 OA
ENDBRANCH  16  20
ENDBRANCH   8  13
TORSDOF 2
ENDMDL
MODEL 5
REMARK VINA RESULT:    -7.514      4.393      6.379
REMARK INTER + INTRA:          -8.949
REMARK INTER:                  -8.384
REMARK INTRA:                  -0.565
REMARK UNBOUND:                -0.557
REMARK  2 active torsions:
REMARK  status: ('A' for Active; 'I' for Inactive)
REMARK    1  A    between atoms: C22_10  and  C19_16 
REMARK    2  A    between atoms: C12_12  and  C18_15 
ROOT
HETATM    1  C5    D T9000      -2.461  -5.663 -12.448  1.00 15.43     0.031 A 
HETATM    2  C6    D T9000      -3.480  -4.682 -12.595  1.00 14.10     0.021 A 
HETATM    3  C7    D T9000      -0.794  -3.924 -11.838  1.00 15.14     0.031 A 
HETATM    4  C15   D T9000      -1.138  -5.282 -12.074  1.00 15.55     0.140 A 
HETATM    5  C17   D T9000      -1.816  -2.945 -11.987  1.00 14.45     0.025 A 
HETATM    6  C20   D T9000      -1.862  -1.467 -11.840  1.00 13.45     0.061 A 
HETATM    7  C21   D T9000      -3.286  -1.053 -12.153  1.00 13.66     0.279 A 
HETATM    8  C12   D T9000      -0.767  -0.754 -11.493  1.00 15.97     0.024 C 
HETATM    9  C16   D T9000      -3.130  -3.341 -12.361  1.00 12.00     0.085 A 
HETATM   10  N24   D T9000      -3.967  -2.233 -12.451  1.00 11.43    -0.208 NA
HETATM   11  O27   D T9000      -3.744   0.070 -12.150  1.00 15.23    -0.265 OA
HETATM   12  F29   D T9000      -0.199  -6.232 -11.940  1.00 17.21    -0.204 F 
ENDROOT
BRANCH   8  13
HETATM   13  C18   D T9000      -0.543   0.650 -11.309  1.00 15.83     0.077 A 
HETATM   14  C13   D T9000      -0.275   1.373 -10.144  1.00 17.58     0.001 A 
HETATM   15  C3    D T9000      -0.165   0.806  -8.760  1.00 18.30     0.033 C 
HETATM   16  C19   D T9000      -0.114   2.768 -10.509  1.00 17.94     0.064 A 
HETATM   17  C14   D T9000      -0.297   2.834 -11.884  1.00 17.03     0.063 A 
HETATM   18  C4    D T9000      -0.259   3.962 -12.854  1.00 17.32     0.052 C 
HETATM   19  N23   D T9000      -0.553   1.562 -12.337  1.00 14.09    -0.250 NA
BRANCH  16  20
HETATM   20  C22   D T9000       0.187   3.891  -9.597  1.00 21.63     0.267 C 
HETATM   21  N25   D T9000      -0.908   4.636  -9.195  1.00 24.57    -0.057 NA
HETATM   22  O28   D T9000       1.342   4.133  -9.236  1.00 26.27    -0.271 OA
ENDBRANCH  16  20
ENDBRANCH   8  13
TORSDOF 2
ENDMDL
MODEL 6
REMARK VINA RESULT:    -7.454      2.291      2.640
REMARK INTER + INTRA:          -8.883
REMARK INTER:                  -8.364
REMARK INTRA:                  -0.519
REMARK UNBOUND:                -0.557
REMARK  2 active torsions:
REMARK  status: ('A' for Active; 'I' for Inactive)
REMARK    1  A    between atoms: C22_10  and  C19_16 
REMARK    2  A    between atoms: C12_12  and  C18_15 
ROOT
HETATM    1  C5    D T9000       0.693  -4.323 -10.736  1.00 15.43     0.031 A 
HETATM    2  C6    D T9000       0.401  -3.151  -9.985  1.00 14.10     0.021 A 
HETATM    3  C7    D T9000      -1.359  -4.027 -12.105  1.00 15.14     0.031 A 
HETATM    4  C15   D T9000      -0.180  -4.749 -11.781  1.00 15.55     0.140 A 
HETATM    5  C17   D T9000      -1.650  -2.856 -11.350  1.00 14.45     0.025 A 
HETATM    6  C20   D T9000      -2.750  -1.857 -11.371  1.00 13.45     0.061 A 
HETATM    7  C21   D T9000      -2.435  -0.855 -10.280  1.00 13.66     0.279 A 
HETATM    8  C12   D T9000      -3.775  -1.950 -12.247  1.00 15.97     0.024 C 
HETATM    9  C16   D T9000      -0.769  -2.445 -10.311  1.00 12.00     0.085 A 
HETATM   10  N24   D T9000      -1.239  -1.284  -9.703  1.00 11.43    -0.208 NA
HETATM   11  O27   D T9000      -3.084   0.120  -9.965  1.00 15.23    -0.265 OA
HETATM   12  F29   D T9000       0.125  -5.856 -12.475  1.00 17.21    -0.204 F 
ENDROOT
BRANCH   8  13
HETATM   13  C18   D T9000      -4.946  -1.150 -12.457  1.00 15.83     0.077 A 
HETATM   14  C13   D T9000      -6.297  -1.499 -12.396  1.00 17.58     0.001 A 
HETATM   15  C3    D T9000      -6.843  -2.860 -12.085  1.00 18.30     0.033 C 
HETATM   16  C19   D T9000      -7.080  -0.310 -12.677  1.00 17.94     0.064 A 
HETATM   17  C14   D T9000      -6.168   0.712 -12.903  1.00 17.03     0.063 A 
HETATM   18  C4    D T9000      -6.330   2.154 -13.235  1.00 17.32     0.052 C 
HETATM   19  N23   D T9000      -4.905   0.188 -12.770  1.00 14.09    -0.250 NA
BRANCH  16  20
HETATM   20  C22   D T9000      -8.554  -0.210 -12.712  1.00 21.63     0.267 C 
HETATM   21  N25   D T9000      -9.151  -0.677 -13.870  1.00 24.57    -0.057 NA
HETATM   22  O28   D T9000      -9.188   0.264 -11.765  1.00 26.27    -0.271 OA
ENDBRANCH  16  20
ENDBRANCH   8  13
TORSDOF 2
ENDMDL
MODEL 7
REMARK VINA RESULT:    -7.364      4.697      6.675
REMARK INTER + INTRA:          -8.782
REMARK INTER:                  -8.202
REMARK INTRA:                  -0.580
REMARK UNBOUND:                -0.557
REMARK  2 active torsions:
REMARK  status: ('A' for Active; 'I' for Inactive)
REMARK    1  A    between atoms: C22_10  and  C19_16 
REMARK    2  A    between atoms: C12_12  and  C18_15 
ROOT
HETATM    1  C5    D T9000      -3.217  -5.423 -12.771  1.00 15.43     0.031 A 
HETATM    2  C6    D T9000      -1.907  -5.346 -12.223  1.00 14.10     0.021 A 
HETATM    3  C7    D T9000      -3.437  -2.949 -12.744  1.00 15.14     0.031 A 
HETATM    4  C15   D T9000      -3.966  -4.236 -13.026  1.00 15.55     0.140 A 
HETATM    5  C17   D T9000      -2.127  -2.875 -12.193  1.00 14.45     0.025 A 
HETATM    6  C20   D T9000      -1.244  -1.758 -11.767  1.00 13.45     0.061 A 
HETATM    7  C21   D T9000       0.035  -2.395 -11.264  1.00 13.66     0.279 A 
HETATM    8  C12   D T9000      -1.637  -0.468 -11.862  1.00 15.97     0.024 C 
HETATM    9  C16   D T9000      -1.393  -4.068 -11.946  1.00 12.00     0.085 A 
HETATM   10  N24   D T9000      -0.144  -3.771 -11.408  1.00 11.43    -0.208 NA
HETATM   11  O27   D T9000       1.015  -1.831 -10.823  1.00 15.23    -0.265 OA
HETATM   12  F29   D T9000      -5.198  -4.341 -13.548  1.00 17.21    -0.204 F 
ENDROOT
BRANCH   8  13
HETATM   13  C18   D T9000      -1.001   0.768 -11.510  1.00 15.83     0.077 A 
HETATM   14  C13   D T9000      -0.580   1.239 -10.264  1.00 17.58     0.001 A 
HETATM   15  C3    D T9000      -0.715   0.517  -8.956  1.00 18.30     0.033 C 
HETATM   16  C19   D T9000       0.019   2.546 -10.459  1.00 17.94     0.064 A 
HETATM   17  C14   D T9000      -0.069   2.816 -11.818  1.00 17.03     0.063 A 
HETATM   18  C4    D T9000       0.359   3.976 -12.645  1.00 17.32     0.052 C 
HETATM   19  N23   D T9000      -0.682   1.745 -12.422  1.00 14.09    -0.250 NA
BRANCH  16  20
HETATM   20  C22   D T9000       0.607   3.413  -9.416  1.00 21.63     0.267 C 
HETATM   21  N25   D T9000       1.985   3.529  -9.451  1.00 24.57    -0.057 NA
HETATM   22  O28   D T9000      -0.101   3.979  -8.577  1.00 26.27    -0.271 OA
ENDBRANCH  16  20
ENDBRANCH   8  13
TORSDOF 2
ENDMDL
MODEL 8
REMARK VINA RESULT:    -7.277      5.318      6.210
REMARK INTER + INTRA:          -8.685
REMARK INTER:                  -8.056
REMARK INTRA:                  -0.630
REMARK UNBOUND:                -0.557
REMARK  2 active torsions:
REMARK  status: ('A' for Active; 'I' for Inactive)
REMARK    1  A    between atoms: C22_10  and  C19_16 
REMARK    2  A    between atoms: C12_12  and  C18_15 
ROOT
HETATM    1  C5    D T9000       0.745  -4.300 -11.042  1.00 15.43     0.031 A 
HETATM    2  C6    D T9000       0.960  -3.585  -9.832  1.00 14.10     0.021 A 
HETATM    3  C7    D T9000      -0.182  -2.274 -12.142  1.00 15.14     0.031 A 
HETATM    4  C15   D T9000       0.182  -3.647 -12.178  1.00 15.55     0.140 A 
HETATM    5  C17   D T9000       0.032  -1.562 -10.929  1.00 14.45     0.025 A 
HETATM    6  C20   D T9000      -0.208  -0.162 -10.494  1.00 13.45     0.061 A 
HETATM    7  C21   D T9000       0.255  -0.078  -9.054  1.00 13.66     0.279 A 
HETATM    8  C12   D T9000      -0.749   0.756 -11.327  1.00 15.97     0.024 C 
HETATM    9  C16   D T9000       0.596  -2.228  -9.806  1.00 12.00     0.085 A 
HETATM   10  N24   D T9000       0.717  -1.353  -8.730  1.00 11.43    -0.208 NA
HETATM   11  O27   D T9000       0.229   0.893  -8.327  1.00 15.23    -0.265 OA
HETATM   12  F29   D T9000      -0.006  -4.348 -13.308  1.00 17.21    -0.204 F 
ENDROOT
BRANCH   8  13
HETATM   13  C18   D T9000      -1.096   2.136 -11.154  1.00 15.83     0.077 A 
HETATM   14  C13   D T9000      -2.204   2.713 -10.528  1.00 17.58     0.001 A 
HETATM   15  C3    D T9000      -3.332   1.972  -9.873  1.00 18.30     0.033 C 
HETATM   16  C19   D T9000      -2.068   4.155 -10.617  1.00 17.94     0.064 A 
HETATM   17  C14   D T9000      -0.883   4.393 -11.298  1.00 17.03     0.063 A 
HETATM   18  C4    D T9000      -0.187   5.644 -11.704  1.00 17.32     0.052 C 
HETATM   19  N23   D T9000      -0.323   3.177 -11.610  1.00 14.09    -0.250 NA
BRANCH  16  20
HETATM   20  C22   D T9000      -3.006   5.165 -10.083  1.00 21.63     0.267 C 
HETATM   21  N25   D T9000      -4.003   5.566 -10.954  1.00 24.57    -0.057 NA
HETATM   22  O28   D T9000      -2.886   5.611  -8.938  1.00 26.27    -0.271 OA
ENDBRANCH  16  20
ENDBRANCH   8  13
TORSDOF 2
ENDMDL
MODEL 9
REMARK VINA RESULT:    -7.161      4.735      6.930
REMARK INTER + INTRA:          -8.555
REMARK INTER:                  -7.990
REMARK INTRA:                  -0.565
REMARK UNBOUND:                -0.557
REMARK  2 active torsions:
REMARK  status: ('A' for Active; 'I' for Inactive)
REMARK    1  A    between atoms: C22_10  and  C19_16 
REMARK    2  A    between atoms: C12_12  and  C18_15 
ROOT
HETATM    1  C5    D T9000      -5.743  -3.949 -11.845  1.00 15.43     0.031 A 
HETATM    2  C6    D T9000      -4.356  -4.210 -12.018  1.00 14.10     0.021 A 
HETATM    3  C7    D T9000      -5.303  -1.529 -11.493  1.00 15.14     0.031 A 
HETATM    4  C15   D T9000      -6.203  -2.624 -11.587  1.00 15.55     0.140 A 
HETATM    5  C17   D T9000      -3.915  -1.794 -11.664  1.00 14.45     0.025 A 
HETATM    6  C20   D T9000      -2.690  -0.955 -11.637  1.00 13.45     0.061 A 
HETATM    7  C21   D T9000      -1.527  -1.890 -11.897  1.00 13.66     0.279 A 
HETATM    8  C12   D T9000      -2.748   0.377 -11.409  1.00 15.97     0.024 C 
HETATM    9  C16   D T9000      -3.473  -3.122 -11.922  1.00 12.00     0.085 A 
HETATM   10  N24   D T9000      -2.088  -3.158 -12.054  1.00 11.43    -0.208 NA
HETATM   11  O27   D T9000      -0.350  -1.604 -11.954  1.00 15.23    -0.265 OA
HETATM   12  F29   D T9000      -7.519  -2.409 -11.433  1.00 17.21    -0.204 F 
ENDROOT
BRANCH   8  13
HETATM   13  C18   D T9000      -1.737   1.389 -11.312  1.00 15.83     0.077 A 
HETATM   14  C13   D T9000      -1.396   2.408 -12.205  1.00 17.58     0.001 A 
HETATM   15  C3    D T9000      -2.045   2.673 -13.530  1.00 18.30     0.033 C 
HETATM   16  C19   D T9000      -0.308   3.169 -11.620  1.00 17.94     0.064 A 
HETATM   17  C14   D T9000      -0.030   2.575 -10.396  1.00 17.03     0.063 A 
HETATM   18  C4    D T9000       0.960   2.880  -9.329  1.00 17.32     0.052 C 
HETATM   19  N23   D T9000      -0.892   1.517 -10.236  1.00 14.09    -0.250 NA
BRANCH  16  20
HETATM   20  C22   D T9000       0.366   4.344 -12.212  1.00 21.63     0.267 C 
HETATM   21  N25   D T9000      -0.016   5.568 -11.693  1.00 24.57    -0.057 NA
HETATM   22  O28   D T9000       1.203   4.220 -13.110  1.00 26.27    -0.271 OA
ENDBRANCH  16  20
ENDBRANCH   8  13
TORSDOF 2
ENDMDL
