MODEL 1
REMARK VINA RESULT:    -7.878      0.000      0.000
REMARK INTER + INTRA:          -9.313
REMARK INTER:                  -8.800
REMARK INTRA:                  -0.513
REMARK UNBOUND:                -0.513
REMARK  2 active torsions:
REMARK  status: ('A' for Active; 'I' for Inactive)
REMARK    1  A    between atoms: C22_10  and  C19_16 
REMARK    2  A    between atoms: C12_12  and  C18_15 
ROOT
HETATM    1  C5    D T9000       5.656   3.220  -9.519  1.00 15.43     0.031 A 
HETATM    2  C6    D T9000       6.416   4.304  -9.002  1.00 14.10     0.021 A 
HETATM    3  C7    D T9000       6.220   1.811  -7.552  1.00 15.14     0.031 A 
HETATM    4  C15   D T9000       5.563   1.992  -8.798  1.00 15.55     0.140 A 
HETATM    5  C17   D T9000       6.982   2.897  -7.040  1.00 14.45     0.025 A 
HETATM    6  C20   D T9000       7.797   3.102  -5.813  1.00 13.45     0.061 A 
HETATM    7  C21   D T9000       8.344   4.512  -5.897  1.00 13.66     0.279 A 
HETATM    8  C12   D T9000       7.940   2.128  -4.886  1.00 15.97     0.024 C 
HETATM    9  C16   D T9000       7.064   4.114  -7.770  1.00 12.00     0.085 A 
HETATM   10  N24   D T9000       7.856   5.037  -7.093  1.00 11.43    -0.208 NA
HETATM   11  O27   D T9000       9.060   5.073  -5.095  1.00 15.23    -0.265 OA
HETATM   12  F29   D T9000       4.834   0.990  -9.311  1.00 17.21    -0.204 F 
ENDROOT
BRANCH   8  13
HETATM   13  C18   D T9000       8.671   2.063  -3.654  1.00 15.83     0.077 A 
HETATM   14  C13   D T9000       9.914   1.488  -3.375  1.00 17.58     0.001 A 
HETATM   15  C3    D T9000      10.794   0.772  -4.356  1.00 18.30     0.033 C 
HETATM   16  C19   D T9000      10.205   1.713  -1.972  1.00 17.94     0.064 A 
HETATM   17  C14   D T9000       9.123   2.412  -1.456  1.00 17.03     0.063 A 
HETATM   18  C4    D T9000       8.816   2.938  -0.098  1.00 17.32     0.052 C 
HETATM   19  N23   D T9000       8.221   2.606  -2.475  1.00 14.09    -0.250 NA
BRANCH  16  20
HETATM   20  C22   D T9000      11.417   1.284  -1.243  1.00 21.63     0.267 C 
HETATM   21  N25   D T9000      12.223   2.309  -0.780  1.00 24.57    -0.057 NA
HETATM   22  O28   D T9000      11.676   0.088  -1.074  1.00 26.27    -0.271 OA
ENDBRANCH  16  20
ENDBRANCH   8  13
TORSDOF 2
ENDMDL
MODEL 2
REMARK VINA RESULT:    -7.791      1.389      1.994
REMARK INTER + INTRA:          -9.215
REMARK INTER:                  -8.575
REMARK INTRA:                  -0.640
REMARK UNBOUND:                -0.513
REMARK  2 active torsions:
REMARK  status: ('A' for Active; 'I' for Inactive)
REMARK    1  A    between atoms: C22_10  and  C19_16 
REMARK    2  A    between atoms: C12_12  and  C18_15 
ROOT
HETATM    1  C5    D T9000       5.664   3.347  -9.522  1.00 15.43     0.031 A 
HETATM    2  C6    D T9000       6.419   4.434  -9.002  1.00 14.10     0.021 A 
HETATM    3  C7    D T9000       6.308   1.906  -7.603  1.00 15.14     0.031 A 
HETATM    4  C15   D T9000       5.613   2.103  -8.826  1.00 15.55     0.140 A 
HETATM    5  C17   D T9000       7.065   2.994  -7.087  1.00 14.45     0.025 A 
HETATM    6  C20   D T9000       7.911   3.188  -5.880  1.00 13.45     0.061 A 
HETATM    7  C21   D T9000       8.430   4.609  -5.947  1.00 13.66     0.279 A 
HETATM    8  C12   D T9000       8.096   2.196  -4.979  1.00 15.97     0.024 C 
HETATM    9  C16   D T9000       7.105   4.229  -7.793  1.00 12.00     0.085 A 
HETATM   10  N24   D T9000       7.899   5.151  -7.117  1.00 11.43    -0.208 NA
HETATM   11  O27   D T9000       9.158   5.165  -5.153  1.00 15.23    -0.265 OA
HETATM   12  F29   D T9000       4.888   1.098  -9.340  1.00 17.21    -0.204 F 
ENDROOT
BRANCH   8  13
HETATM   13  C18   D T9000       8.863   2.118  -3.770  1.00 15.83     0.077 A 
HETATM   14  C13   D T9000       8.701   2.793  -2.557  1.00 17.58     0.001 A 
HETATM   15  C3    D T9000       7.637   3.804  -2.246  1.00 18.30     0.033 C 
HETATM   16  C19   D T9000       9.737   2.339  -1.650  1.00 17.94     0.064 A 
HETATM   17  C14   D T9000      10.490   1.408  -2.353  1.00 17.03     0.063 A 
HETATM   18  C4    D T9000      11.677   0.587  -1.988  1.00 17.32     0.052 C 
HETATM   19  N23   D T9000       9.952   1.295  -3.613  1.00 14.09    -0.250 NA
BRANCH  16  20
HETATM   20  C22   D T9000       9.945   2.779  -0.255  1.00 21.63     0.267 C 
HETATM   21  N25   D T9000       9.375   1.971   0.712  1.00 24.57    -0.057 NA
HETATM   22  O28   D T9000      10.581   3.806   0.007  1.00 26.27    -0.271 OA
ENDBRANCH  16  20
ENDBRANCH   8  13
TORSDOF 2
ENDMDL
MODEL 3
REMARK VINA RESULT:    -7.777      2.385      3.083
REMARK INTER + INTRA:          -9.200
REMARK INTER:                  -8.639
REMARK INTRA:                  -0.560
REMARK UNBOUND:                -0.513
REMARK  2 active torsions:
REMARK  status: ('A' for Active; 'I' for Inactive)
REMARK    1  A    between atoms: C22_10  and  C19_16 
REMARK    2  A    between atoms: C12_12  and  C18_15 
ROOT
HETATM    1  C5    D T9000       5.982   3.835  -9.275  1.00 15.43     0.031 A 
HETATM    2  C6    D T9000       5.812   2.528  -8.739  1.00 14.10     0.021 A 
HETATM    3  C7    D T9000       7.444   4.486  -7.375  1.00 15.14     0.031 A 
HETATM    4  C15   D T9000       6.789   4.795  -8.597  1.00 15.55     0.140 A 
HETATM    5  C17   D T9000       7.269   3.180  -6.841  1.00 14.45     0.025 A 
HETATM    6  C20   D T9000       7.763   2.484  -5.623  1.00 13.45     0.061 A 
HETATM    7  C21   D T9000       7.184   1.085  -5.668  1.00 13.66     0.279 A 
HETATM    8  C12   D T9000       8.566   3.106  -4.730  1.00 15.97     0.024 C 
HETATM    9  C16   D T9000       6.461   2.233  -7.530  1.00 12.00     0.085 A 
HETATM   10  N24   D T9000       6.425   1.026  -6.837  1.00 11.43    -0.208 NA
HETATM   11  O27   D T9000       7.344   0.196  -4.858  1.00 15.23    -0.265 OA
HETATM   12  F29   D T9000       6.933   6.018  -9.131  1.00 17.21    -0.204 F 
ENDROOT
BRANCH   8  13
HETATM   13  C18   D T9000       9.151   2.678  -3.492  1.00 15.83     0.077 A 
HETATM   14  C13   D T9000       8.834   3.031  -2.178  1.00 17.58     0.001 A 
HETATM   15  C3    D T9000       7.759   3.989  -1.758  1.00 18.30     0.033 C 
HETATM   16  C19   D T9000       9.720   2.301  -1.292  1.00 17.94     0.064 A 
HETATM   17  C14   D T9000      10.544   1.537  -2.108  1.00 17.03     0.063 A 
HETATM   18  C4    D T9000      11.649   0.583  -1.816  1.00 17.32     0.052 C 
HETATM   19  N23   D T9000      10.188   1.780  -3.413  1.00 14.09    -0.250 NA
BRANCH  16  20
HETATM   20  C22   D T9000       9.738   2.360   0.184  1.00 21.63     0.267 C 
HETATM   21  N25   D T9000       9.206   1.255   0.827  1.00 24.57    -0.057 NA
HETATM   22  O28   D T9000      10.194   3.339   0.784  1.00 26.27    -0.271 OA
ENDBRANCH  16  20
ENDBRANCH   8  13
TORSDOF 2
ENDMDL
MODEL 4
REMARK VINA RESULT:    -7.606      2.140      2.489
REMARK INTER + INTRA:          -9.008
REMARK INTER:                  -8.388
REMARK INTRA:                  -0.620
REMARK UNBOUND:                -0.513
REMARK  2 active torsions:
REMARK  status: ('A' for Active; 'I' for Inactive)
REMARK    1  A    between atoms: C22_10  and  C19_16 
REMARK    2  A    between atoms: C12_12  and  C18_15 
ROOT
HETATM    1  C5    D T9000       4.932   2.931  -9.780  1.00 15.43     0.031 A 
HETATM    2  C6    D T9000       5.335   1.683  -9.231  1.00 14.10     0.021 A 
HETATM    3  C7    D T9000       5.970   4.163  -7.888  1.00 15.14     0.031 A 
HETATM    4  C15   D T9000       5.249   4.151  -9.112  1.00 15.55     0.140 A 
HETATM    5  C17   D T9000       6.368   2.912  -7.341  1.00 14.45     0.025 A 
HETATM    6  C20   D T9000       7.109   2.505  -6.117  1.00 13.45     0.061 A 
HETATM    7  C21   D T9000       7.184   0.993  -6.148  1.00 13.66     0.279 A 
HETATM    8  C12   D T9000       7.567   3.419  -5.231  1.00 15.97     0.024 C 
HETATM    9  C16   D T9000       6.045   1.704  -8.019  1.00 12.00     0.085 A 
HETATM   10  N24   D T9000       6.527   0.605  -7.315  1.00 11.43    -0.208 NA
HETATM   11  O27   D T9000       7.706   0.265  -5.330  1.00 15.23    -0.265 OA
HETATM   12  F29   D T9000       4.858   5.313  -9.657  1.00 17.21    -0.204 F 
ENDROOT
BRANCH   8  13
HETATM   13  C18   D T9000       8.276   3.293  -3.990  1.00 15.83     0.077 A 
HETATM   14  C13   D T9000       9.572   2.837  -3.737  1.00 17.58     0.001 A 
HETATM   15  C3    D T9000      10.551   2.349  -4.763  1.00 18.30     0.033 C 
HETATM   16  C19   D T9000       9.806   2.926  -2.309  1.00 17.94     0.064 A 
HETATM   17  C14   D T9000       8.638   3.429  -1.752  1.00 17.03     0.063 A 
HETATM   18  C4    D T9000       8.244   3.752  -0.354  1.00 17.32     0.052 C 
HETATM   19  N23   D T9000       7.740   3.638  -2.773  1.00 14.09    -0.250 NA
BRANCH  16  20
HETATM   20  C22   D T9000      11.045   2.557  -1.593  1.00 21.63     0.267 C 
HETATM   21  N25   D T9000      11.261   1.198  -1.446  1.00 24.57    -0.057 NA
HETATM   22  O28   D T9000      11.817   3.418  -1.158  1.00 26.27    -0.271 OA
ENDBRANCH  16  20
ENDBRANCH   8  13
TORSDOF 2
ENDMDL
MODEL 5
REMARK VINA RESULT:    -7.375      3.156      7.484
REMARK INTER + INTRA:          -8.751
REMARK INTER:                  -8.433
REMARK INTRA:                  -0.318
REMARK UNBOUND:                -0.513
REMARK  2 active torsions:
REMARK  status: ('A' for Active; 'I' for Inactive)
REMARK    1  A    between atoms: C22_10  and  C19_16 
REMARK    2  A    between atoms: C12_12  and  C18_15 
ROOT
HETATM    1  C5    D T9000      10.891   1.160  -2.049  1.00 15.43     0.031 A 
HETATM    2  C6    D T9000       9.784   2.032  -1.857  1.00 14.10     0.021 A 
HETATM    3  C7    D T9000      10.191   0.693  -4.387  1.00 15.14     0.031 A 
HETATM    4  C15   D T9000      11.086   0.504  -3.300  1.00 15.55     0.140 A 
HETATM    5  C17   D T9000       9.084   1.564  -4.190  1.00 14.45     0.025 A 
HETATM    6  C20   D T9000       7.953   2.011  -5.046  1.00 13.45     0.061 A 
HETATM    7  C21   D T9000       7.124   2.952  -4.197  1.00 13.66     0.279 A 
HETATM    8  C12   D T9000       7.814   1.576  -6.319  1.00 15.97     0.024 C 
HETATM    9  C16   D T9000       8.903   2.211  -2.936  1.00 12.00     0.085 A 
HETATM   10  N24   D T9000       7.764   3.011  -2.960  1.00 11.43    -0.208 NA
HETATM   11  O27   D T9000       6.110   3.534  -4.520  1.00 15.23    -0.265 OA
HETATM   12  F29   D T9000      12.143  -0.309  -3.451  1.00 17.21    -0.204 F 
ENDROOT
BRANCH   8  13
HETATM   13  C18   D T9000       6.826   1.831  -7.326  1.00 15.83     0.077 A 
HETATM   14  C13   D T9000       6.495   3.020  -7.982  1.00 17.58     0.001 A 
HETATM   15  C3    D T9000       7.135   4.358  -7.756  1.00 18.30     0.033 C 
HETATM   16  C19   D T9000       5.433   2.730  -8.925  1.00 17.94     0.064 A 
HETATM   17  C14   D T9000       5.157   1.376  -8.798  1.00 17.03     0.063 A 
HETATM   18  C4    D T9000       4.187   0.475  -9.479  1.00 17.32     0.052 C 
HETATM   19  N23   D T9000       5.997   0.862  -7.839  1.00 14.09    -0.250 NA
BRANCH  16  20
HETATM   20  C22   D T9000       4.778   3.690  -9.838  1.00 21.63     0.267 C 
HETATM   21  N25   D T9000       4.337   4.862  -9.250  1.00 24.57    -0.057 NA
HETATM   22  O28   D T9000       4.637   3.440 -11.040  1.00 26.27    -0.271 OA
ENDBRANCH  16  20
ENDBRANCH   8  13
TORSDOF 2
ENDMDL
MODEL 6
REMARK VINA RESULT:    -7.313      2.439      3.319
REMARK INTER + INTRA:          -8.681
REMARK INTER:                  -8.178
REMARK INTRA:                  -0.503
REMARK UNBOUND:                -0.513
REMARK  2 active torsions:
REMARK  status: ('A' for Active; 'I' for Inactive)
REMARK    1  A    between atoms: C22_10  and  C19_16 
REMARK    2  A    between atoms: C12_12  and  C18_15 
ROOT
HETATM    1  C5    D T9000       5.802   1.207  -9.019  1.00 15.43     0.031 A 
HETATM    2  C6    D T9000       6.530   0.326  -8.173  1.00 14.10     0.021 A 
HETATM    3  C7    D T9000       6.254   3.126  -7.507  1.00 15.14     0.031 A 
HETATM    4  C15   D T9000       5.670   2.587  -8.685  1.00 15.55     0.140 A 
HETATM    5  C17   D T9000       6.980   2.241  -6.662  1.00 14.45     0.025 A 
HETATM    6  C20   D T9000       7.713   2.404  -5.379  1.00 13.45     0.061 A 
HETATM    7  C21   D T9000       8.258   1.036  -5.025  1.00 13.66     0.279 A 
HETATM    8  C12   D T9000       7.794   3.602  -4.756  1.00 15.97     0.024 C 
HETATM    9  C16   D T9000       7.102   0.868  -7.010  1.00 12.00     0.085 A 
HETATM   10  N24   D T9000       7.846   0.186  -6.051  1.00 11.43    -0.208 NA
HETATM   11  O27   D T9000       8.915   0.735  -4.051  1.00 15.23    -0.265 OA
HETATM   12  F29   D T9000       4.980   3.393  -9.506  1.00 17.21    -0.204 F 
ENDROOT
BRANCH   8  13
HETATM   13  C18   D T9000       8.407   4.015  -3.528  1.00 15.83     0.077 A 
HETATM   14  C13   D T9000       9.367   5.003  -3.290  1.00 17.58     0.001 A 
HETATM   15  C3    D T9000       9.999   5.885  -4.325  1.00 18.30     0.033 C 
HETATM   16  C19   D T9000       9.638   5.029  -1.865  1.00 17.94     0.064 A 
HETATM   17  C14   D T9000       8.833   4.050  -1.297  1.00 17.03     0.063 A 
HETATM   18  C4    D T9000       8.645   3.587   0.105  1.00 17.32     0.052 C 
HETATM   19  N23   D T9000       8.112   3.459  -2.307  1.00 14.09    -0.250 NA
BRANCH  16  20
HETATM   20  C22   D T9000      10.581   5.923  -1.163  1.00 21.63     0.267 C 
HETATM   21  N25   D T9000      11.744   5.322  -0.715  1.00 24.57    -0.057 NA
HETATM   22  O28   D T9000      10.327   7.120  -0.992  1.00 26.27    -0.271 OA
ENDBRANCH  16  20
ENDBRANCH   8  13
TORSDOF 2
ENDMDL
MODEL 7
REMARK VINA RESULT:    -7.218      3.542      7.036
REMARK INTER + INTRA:          -8.575
REMARK INTER:                  -8.036
REMARK INTRA:                  -0.539
REMARK UNBOUND:                -0.513
REMARK  2 active torsions:
REMARK  status: ('A' for Active; 'I' for Inactive)
REMARK    1  A    between atoms: C22_10  and  C19_16 
REMARK    2  A    between atoms: C12_12  and  C18_15 
ROOT
HETATM    1  C5    D T9000       9.682   4.689  -0.261  1.00 15.43     0.031 A 
HETATM    2  C6    D T9000      10.280   5.182  -1.453  1.00 14.10     0.021 A 
HETATM    3  C7    D T9000       7.990   3.420  -1.565  1.00 15.14     0.031 A 
HETATM    4  C15   D T9000       8.553   3.819  -0.323  1.00 15.55     0.140 A 
HETATM    5  C17   D T9000       8.589   3.917  -2.755  1.00 14.45     0.025 A 
HETATM    6  C20   D T9000       8.307   3.747  -4.205  1.00 13.45     0.061 A 
HETATM    7  C21   D T9000       9.345   4.570  -4.939  1.00 13.66     0.279 A 
HETATM    8  C12   D T9000       7.284   2.977  -4.642  1.00 15.97     0.024 C 
HETATM    9  C16   D T9000       9.715   4.782  -2.676  1.00 12.00     0.085 A 
HETATM   10  N24   D T9000      10.139   5.149  -3.950  1.00 11.43    -0.208 NA
HETATM   11  O27   D T9000       9.465   4.702  -6.139  1.00 15.23    -0.265 OA
HETATM   12  F29   D T9000       8.014   3.368   0.820  1.00 17.21    -0.204 F 
ENDROOT
BRANCH   8  13
HETATM   13  C18   D T9000       6.796   2.671  -5.955  1.00 15.83     0.077 A 
HETATM   14  C13   D T9000       6.739   1.449  -6.631  1.00 17.58     0.001 A 
HETATM   15  C3    D T9000       7.206   0.126  -6.101  1.00 18.30     0.033 C 
HETATM   16  C19   D T9000       6.140   1.684  -7.930  1.00 17.94     0.064 A 
HETATM   17  C14   D T9000       5.863   3.043  -7.992  1.00 17.03     0.063 A 
HETATM   18  C4    D T9000       5.252   3.901  -9.044  1.00 17.32     0.052 C 
HETATM   19  N23   D T9000       6.264   3.610  -6.806  1.00 14.09    -0.250 NA
BRANCH  16  20
HETATM   20  C22   D T9000       5.876   0.674  -8.976  1.00 21.63     0.267 C 
HETATM   21  N25   D T9000       4.546   0.335  -9.150  1.00 24.57    -0.057 NA
HETATM   22  O28   D T9000       6.795   0.175  -9.634  1.00 26.27    -0.271 OA
ENDBRANCH  16  20
ENDBRANCH   8  13
TORSDOF 2
ENDMDL
MODEL 8
REMARK VINA RESULT:    -6.826      3.596      7.222
REMARK INTER + INTRA:          -8.137
REMARK INTER:                  -7.780
REMARK INTRA:                  -0.358
REMARK UNBOUND:                -0.513
REMARK  2 active torsions:
REMARK  status: ('A' for Active; 'I' for Inactive)
REMARK    1  A    between atoms: C22_10  and  C19_16 
REMARK    2  A    between atoms: C12_12  and  C18_15 
ROOT
HETATM    1  C5    D T9000       9.758   4.894   0.195  1.00 15.43     0.031 A 
HETATM    2  C6    D T9000      10.282   5.495  -0.982  1.00 14.10     0.021 A 
HETATM    3  C7    D T9000       8.285   3.412  -1.150  1.00 15.14     0.031 A 
HETATM    4  C15   D T9000       8.773   3.866   0.104  1.00 15.55     0.140 A 
HETATM    5  C17   D T9000       8.810   4.018  -2.325  1.00 14.45     0.025 A 
HETATM    6  C20   D T9000       8.567   3.838  -3.781  1.00 13.45     0.061 A 
HETATM    7  C21   D T9000       9.475   4.822  -4.488  1.00 13.66     0.279 A 
HETATM    8  C12   D T9000       7.675   2.932  -4.243  1.00 15.97     0.024 C 
HETATM    9  C16   D T9000       9.792   5.041  -2.218  1.00 12.00     0.085 A 
HETATM   10  N24   D T9000      10.166   5.493  -3.480  1.00 11.43    -0.208 NA
HETATM   11  O27   D T9000       9.581   4.996  -5.684  1.00 15.23    -0.265 OA
HETATM   12  F29   D T9000       8.301   3.315   1.233  1.00 17.21    -0.204 F 
ENDROOT
BRANCH   8  13
HETATM   13  C18   D T9000       7.247   2.583  -5.566  1.00 15.83     0.077 A 
HETATM   14  C13   D T9000       6.522   3.325  -6.502  1.00 17.58     0.001 A 
HETATM   15  C3    D T9000       6.003   4.719  -6.311  1.00 18.30     0.033 C 
HETATM   16  C19   D T9000       6.367   2.513  -7.694  1.00 17.94     0.064 A 
HETATM   17  C14   D T9000       7.002   1.307  -7.429  1.00 17.03     0.063 A 
HETATM   18  C4    D T9000       7.197   0.071  -8.235  1.00 17.32     0.052 C 
HETATM   19  N23   D T9000       7.516   1.371  -6.155  1.00 14.09    -0.250 NA
BRANCH  16  20
HETATM   20  C22   D T9000       5.674   2.898  -8.941  1.00 21.63     0.267 C 
HETATM   21  N25   D T9000       6.045   4.121  -9.471  1.00 24.57    -0.057 NA
HETATM   22  O28   D T9000       4.821   2.167  -9.454  1.00 26.27    -0.271 OA
ENDBRANCH  16  20
ENDBRANCH   8  13
TORSDOF 2
ENDMDL
MODEL 9
REMARK VINA RESULT:    -6.739      1.927      2.431
REMARK INTER + INTRA:          -8.040
REMARK INTER:                  -8.075
REMARK INTRA:                   0.035
REMARK UNBOUND:                -0.513
REMARK  2 active torsions:
REMARK  status: ('A' for Active; 'I' for Inactive)
REMARK    1  A    between atoms: C22_10  and  C19_16 
REMARK    2  A    between atoms: C12_12  and  C18_15 
ROOT
HETATM    1  C5    D T9000       4.646   2.287  -9.998  1.00 15.43     0.031 A 
HETATM    2  C6    D T9000       5.000   3.656  -9.850  1.00 14.10     0.021 A 
HETATM    3  C7    D T9000       5.879   1.684  -7.927  1.00 15.14     0.031 A 
HETATM    4  C15   D T9000       5.083   1.319  -9.046  1.00 15.55     0.140 A 
HETATM    5  C17   D T9000       6.233   3.054  -7.783  1.00 14.45     0.025 A 
HETATM    6  C20   D T9000       7.031   3.818  -6.788  1.00 13.45     0.061 A 
HETATM    7  C21   D T9000       7.008   5.262  -7.244  1.00 13.66     0.279 A 
HETATM    8  C12   D T9000       7.612   3.210  -5.729  1.00 15.97     0.024 C 
HETATM    9  C16   D T9000       5.789   4.006  -8.742  1.00 12.00     0.085 A 
HETATM   10  N24   D T9000       6.247   5.279  -8.412  1.00 11.43    -0.208 NA
HETATM   11  O27   D T9000       7.542   6.211  -6.710  1.00 15.23    -0.265 OA
HETATM   12  F29   D T9000       4.728   0.036  -9.212  1.00 17.21    -0.204 F 
ENDROOT
BRANCH   8  13
HETATM   13  C18   D T9000       8.431   3.702  -4.660  1.00 15.83     0.077 A 
HETATM   14  C13   D T9000       8.799   3.095  -3.456  1.00 17.58     0.001 A 
HETATM   15  C3    D T9000       8.387   1.728  -2.997  1.00 18.30     0.033 C 
HETATM   16  C19   D T9000       9.654   4.016  -2.734  1.00 17.94     0.064 A 
HETATM   17  C14   D T9000       9.766   5.149  -3.528  1.00 17.03     0.063 A 
HETATM   18  C4    D T9000      10.497   6.435  -3.356  1.00 17.32     0.052 C 
HETATM   19  N23   D T9000       9.028   4.939  -4.669  1.00 14.09    -0.250 NA
BRANCH  16  20
HETATM   20  C22   D T9000      10.282   3.789  -1.415  1.00 21.63     0.267 C 
HETATM   21  N25   D T9000       9.502   4.125  -0.323  1.00 24.57    -0.057 NA
HETATM   22  O28   D T9000      11.427   3.336  -1.318  1.00 26.27    -0.271 OA
ENDBRANCH  16  20
ENDBRANCH   8  13
TORSDOF 2
ENDMDL
