MODEL 1
REMARK VINA RESULT:    -7.438      0.000      0.000
REMARK INTER + INTRA:          -8.833
REMARK INTER:                  -8.307
REMARK INTRA:                  -0.526
REMARK UNBOUND:                -0.526
REMARK  2 active torsions:
REMARK  status: ('A' for Active; 'I' for Inactive)
REMARK    1  A    between atoms: C5_4  and  O7_13 
REMARK    2  A    between atoms: C8_10  and  O7_13 
ROOT
HETATM    1  O7    D T 371       5.693   1.439  -7.613  1.00 19.13    -0.304 OA
ENDROOT
BRANCH   1   2
HETATM    2  C5    D T 371       5.733   1.592  -8.974  1.00 24.01     0.125 A 
HETATM    3  C6    D T 371       6.683   2.546  -9.599  1.00 25.08     0.154 A 
HETATM    4  C1    D T 371       6.697   2.675 -10.981  1.00 24.96     0.041 A 
HETATM    5  O17   D T 371       7.530   3.283  -8.827  1.00 32.11    -0.188 OA
HETATM    6  C2    D T 371       5.828   1.918 -11.759  1.00 25.04     0.060 A 
HETATM    7  C3    D T 371       4.937   1.023 -11.172  1.00 27.50     0.014 A 
HETATM    8 CL14   D T 371       5.856   2.094 -13.546  1.00 23.09    -0.082 Cl
HETATM    9  C4    D T 371       4.886   0.857  -9.791  1.00 24.93     0.028 A 
ENDBRANCH   1   2
BRANCH   1  10
HETATM   10  C8    D T 371       4.656   1.976  -6.896  1.00 19.85     0.111 A 
HETATM   11  C9    D T 371       3.563   1.110  -6.389  1.00 17.43     0.081 A 
HETATM   12  C10   D T 371       2.528   1.685  -5.664  1.00 16.58     0.025 A 
HETATM   13 CL16   D T 371       3.579  -0.657  -6.707  1.00 28.15    -0.080 Cl
HETATM   14  C11   D T 371       2.526   3.057  -5.423  1.00 19.66     0.059 A 
HETATM   15  C12   D T 371       3.553   3.868  -5.901  1.00 21.08     0.013 A 
HETATM   16 CL15   D T 371       1.182   3.790  -4.486  1.00 21.08    -0.082 Cl
HETATM   17  C13   D T 371       4.613   3.339  -6.631  1.00 20.62     0.026 A 
ENDBRANCH   1  10
TORSDOF 2
ENDMDL
MODEL 2
REMARK VINA RESULT:    -7.400      1.666      6.179
REMARK INTER + INTRA:          -8.792
REMARK INTER:                  -8.257
REMARK INTRA:                  -0.534
REMARK UNBOUND:                -0.526
REMARK  2 active torsions:
REMARK  status: ('A' for Active; 'I' for Inactive)
REMARK    1  A    between atoms: C5_4  and  O7_13 
REMARK    2  A    between atoms: C8_10  and  O7_13 
ROOT
HETATM    1  O7    D T 371       5.576   1.345  -7.203  1.00 19.13    -0.304 OA
ENDROOT
BRANCH   1   2
HETATM    2  C5    D T 371       4.520   1.894  -6.524  1.00 24.01     0.125 A 
HETATM    3  C6    D T 371       3.477   1.027  -5.921  1.00 25.08     0.154 A 
HETATM    4  C1    D T 371       2.422   1.617  -5.239  1.00 24.96     0.041 A 
HETATM    5  O17   D T 371       3.556  -0.328  -6.033  1.00 32.11    -0.188 OA
HETATM    6  C2    D T 371       2.352   3.002  -5.131  1.00 25.04     0.060 A 
HETATM    7  C3    D T 371       3.330   3.815  -5.697  1.00 27.50     0.014 A 
HETATM    8 CL14   D T 371       0.981   3.753  -4.248  1.00 23.09    -0.082 Cl
HETATM    9  C4    D T 371       4.408   3.271  -6.389  1.00 24.93     0.028 A 
ENDBRANCH   1   2
BRANCH   1  10
HETATM   10  C8    D T 371       5.657   1.480  -8.565  1.00 19.85     0.111 A 
HETATM   11  C9    D T 371       6.640   2.411  -9.172  1.00 17.43     0.081 A 
HETATM   12  C10   D T 371       6.697   2.522 -10.554  1.00 16.58     0.025 A 
HETATM   13 CL16   D T 371       7.740   3.379  -8.134  1.00 28.15    -0.080 Cl
HETATM   14  C11   D T 371       5.839   1.767 -11.350  1.00 19.66     0.059 A 
HETATM   15  C12   D T 371       4.917   0.894 -10.777  1.00 21.08     0.013 A 
HETATM   16 CL15   D T 371       5.922   1.920 -13.136  1.00 21.08    -0.082 Cl
HETATM   17  C13   D T 371       4.822   0.746  -9.397  1.00 20.62     0.026 A 
ENDBRANCH   1  10
TORSDOF 2
ENDMDL
MODEL 3
REMARK VINA RESULT:    -7.371      1.399      6.016
REMARK INTER + INTRA:          -8.759
REMARK INTER:                  -8.388
REMARK INTRA:                  -0.371
REMARK UNBOUND:                -0.526
REMARK  2 active torsions:
REMARK  status: ('A' for Active; 'I' for Inactive)
REMARK    1  A    between atoms: C5_4  and  O7_13 
REMARK    2  A    between atoms: C8_10  and  O7_13 
ROOT
HETATM    1  O7    D T 371       4.867   0.752  -7.940  1.00 19.13    -0.304 OA
ENDROOT
BRANCH   1   2
HETATM    2  C5    D T 371       4.039   1.514  -7.157  1.00 24.01     0.125 A 
HETATM    3  C6    D T 371       3.030   0.874  -6.278  1.00 25.08     0.154 A 
HETATM    4  C1    D T 371       2.209   1.676  -5.499  1.00 24.96     0.041 A 
HETATM    5  O17   D T 371       2.912  -0.483  -6.235  1.00 32.11    -0.188 OA
HETATM    6  C2    D T 371       2.338   3.061  -5.550  1.00 25.04     0.060 A 
HETATM    7  C3    D T 371       3.285   3.661  -6.375  1.00 27.50     0.014 A 
HETATM    8 CL14   D T 371       1.269   4.088  -4.537  1.00 23.09    -0.082 Cl
HETATM    9  C4    D T 371       4.132   2.899  -7.175  1.00 24.93     0.028 A 
ENDBRANCH   1   2
BRANCH   1  10
HETATM   10  C8    D T 371       5.059   1.083  -9.255  1.00 19.85     0.111 A 
HETATM   11  C9    D T 371       3.964   0.913 -10.243  1.00 17.43     0.081 A 
HETATM   12  C10   D T 371       4.193   1.260 -11.567  1.00 16.58     0.025 A 
HETATM   13 CL16   D T 371       2.369   0.268  -9.732  1.00 28.15    -0.080 Cl
HETATM   14  C11   D T 371       5.434   1.759 -11.953  1.00 19.66     0.059 A 
HETATM   15  C12   D T 371       6.460   1.917 -11.024  1.00 21.08     0.013 A 
HETATM   16 CL15   D T 371       5.717   2.203 -13.668  1.00 21.08    -0.082 Cl
HETATM   17  C13   D T 371       6.281   1.586  -9.684  1.00 20.62     0.026 A 
ENDBRANCH   1  10
TORSDOF 2
ENDMDL
MODEL 4
REMARK VINA RESULT:    -7.116      2.090      2.303
REMARK INTER + INTRA:          -8.474
REMARK INTER:                  -7.950
REMARK INTRA:                  -0.524
REMARK UNBOUND:                -0.526
REMARK  2 active torsions:
REMARK  status: ('A' for Active; 'I' for Inactive)
REMARK    1  A    between atoms: C5_4  and  O7_13 
REMARK    2  A    between atoms: C8_10  and  O7_13 
ROOT
HETATM    1  O7    D T 371       2.732   1.779  -7.793  1.00 19.13    -0.304 OA
ENDROOT
BRANCH   1   2
HETATM    2  C5    D T 371       3.613   1.645  -8.834  1.00 24.01     0.125 A 
HETATM    3  C6    D T 371       3.602   2.609  -9.962  1.00 25.08     0.154 A 
HETATM    4  C1    D T 371       4.508   2.443 -11.000  1.00 24.96     0.041 A 
HETATM    5  O17   D T 371       2.715   3.643  -9.978  1.00 32.11    -0.188 OA
HETATM    6  C2    D T 371       5.409   1.383 -10.973  1.00 25.04     0.060 A 
HETATM    7  C3    D T 371       5.419   0.478  -9.915  1.00 27.50     0.014 A 
HETATM    8 CL14   D T 371       6.576   1.179 -12.322  1.00 23.09    -0.082 Cl
HETATM    9  C4    D T 371       4.531   0.603  -8.850  1.00 24.93     0.028 A 
ENDBRANCH   1   2
BRANCH   1  10
HETATM   10  C8    D T 371       3.163   2.281  -6.594  1.00 19.85     0.111 A 
HETATM   11  C9    D T 371       3.368   1.382  -5.430  1.00 17.43     0.081 A 
HETATM   12  C10   D T 371       3.807   1.923  -4.230  1.00 16.58     0.025 A 
HETATM   13 CL16   D T 371       3.054  -0.379  -5.574  1.00 28.15    -0.080 Cl
HETATM   14  C11   D T 371       4.049   3.291  -4.130  1.00 19.66     0.059 A 
HETATM   15  C12   D T 371       3.855   4.133  -5.223  1.00 21.08     0.013 A 
HETATM   16 CL15   D T 371       4.615   3.979  -2.572  1.00 21.08    -0.082 Cl
HETATM   17  C13   D T 371       3.418   3.639  -6.448  1.00 20.62     0.026 A 
ENDBRANCH   1  10
TORSDOF 2
ENDMDL
MODEL 5
REMARK VINA RESULT:    -7.028      3.327      5.875
REMARK INTER + INTRA:          -8.376
REMARK INTER:                  -8.405
REMARK INTRA:                   0.029
REMARK UNBOUND:                -0.526
REMARK  2 active torsions:
REMARK  status: ('A' for Active; 'I' for Inactive)
REMARK    1  A    between atoms: C5_4  and  O7_13 
REMARK    2  A    between atoms: C8_10  and  O7_13 
ROOT
HETATM    1  O7    D T 371       6.261   2.325  -7.460  1.00 19.13    -0.304 OA
ENDROOT
BRANCH   1   2
HETATM    2  C5    D T 371       7.474   2.240  -6.827  1.00 24.01     0.125 A 
HETATM    3  C6    D T 371       7.594   2.550  -5.381  1.00 25.08     0.154 A 
HETATM    4  C1    D T 371       8.837   2.454  -4.772  1.00 24.96     0.041 A 
HETATM    5  O17   D T 371       6.498   2.923  -4.661  1.00 32.11    -0.188 OA
HETATM    6  C2    D T 371       9.948   2.072  -5.517  1.00 25.04     0.060 A 
HETATM    7  C3    D T 371       9.835   1.782  -6.874  1.00 27.50     0.014 A 
HETATM    8 CL14   D T 371      11.551   1.952  -4.717  1.00 23.09    -0.082 Cl
HETATM    9  C4    D T 371       8.610   1.863  -7.529  1.00 24.93     0.028 A 
ENDBRANCH   1   2
BRANCH   1  10
HETATM   10  C8    D T 371       6.190   2.184  -8.821  1.00 19.85     0.111 A 
HETATM   11  C9    D T 371       5.419   1.067  -9.423  1.00 17.43     0.081 A 
HETATM   12  C10   D T 371       5.366   0.955 -10.806  1.00 16.58     0.025 A 
HETATM   13 CL16   D T 371       4.568  -0.119  -8.379  1.00 28.15    -0.080 Cl
HETATM   14  C11   D T 371       6.030   1.881 -11.606  1.00 19.66     0.059 A 
HETATM   15  C12   D T 371       6.753   2.928 -11.038  1.00 21.08     0.013 A 
HETATM   16 CL15   D T 371       5.954   1.724 -13.393  1.00 21.08    -0.082 Cl
HETATM   17  C13   D T 371       6.835   3.084  -9.658  1.00 20.62     0.026 A 
ENDBRANCH   1  10
TORSDOF 2
ENDMDL
MODEL 6
REMARK VINA RESULT:    -6.997      1.624      2.385
REMARK INTER + INTRA:          -8.341
REMARK INTER:                  -7.874
REMARK INTRA:                  -0.467
REMARK UNBOUND:                -0.526
REMARK  2 active torsions:
REMARK  status: ('A' for Active; 'I' for Inactive)
REMARK    1  A    between atoms: C5_4  and  O7_13 
REMARK    2  A    between atoms: C8_10  and  O7_13 
ROOT
HETATM    1  O7    D T 371       4.731   3.757  -7.571  1.00 19.13    -0.304 OA
ENDROOT
BRANCH   1   2
HETATM    2  C5    D T 371       4.901   3.319  -8.858  1.00 24.01     0.125 A 
HETATM    3  C6    D T 371       6.258   3.029  -9.384  1.00 25.08     0.154 A 
HETATM    4  C1    D T 371       6.394   2.586 -10.693  1.00 24.96     0.041 A 
HETATM    5  O17   D T 371       7.355   3.193  -8.593  1.00 32.11    -0.188 OA
HETATM    6  C2    D T 371       5.266   2.422 -11.491  1.00 25.04     0.060 A 
HETATM    7  C3    D T 371       3.993   2.695 -10.997  1.00 27.50     0.014 A 
HETATM    8 CL14   D T 371       5.455   1.849 -13.182  1.00 23.09    -0.082 Cl
HETATM    9  C4    D T 371       3.806   3.140  -9.692  1.00 24.93     0.028 A 
ENDBRANCH   1   2
BRANCH   1  10
HETATM   10  C8    D T 371       4.302   2.887  -6.604  1.00 19.85     0.111 A 
HETATM   11  C9    D T 371       3.068   3.171  -5.829  1.00 17.43     0.081 A 
HETATM   12  C10   D T 371       2.661   2.267  -4.857  1.00 16.58     0.025 A 
HETATM   13 CL16   D T 371       2.117   4.660  -6.145  1.00 28.15    -0.080 Cl
HETATM   14  C11   D T 371       3.406   1.115  -4.621  1.00 19.66     0.059 A 
HETATM   15  C12   D T 371       4.564   0.852  -5.349  1.00 21.08     0.013 A 
HETATM   16 CL15   D T 371       2.869  -0.045  -3.361  1.00 21.08    -0.082 Cl
HETATM   17  C13   D T 371       5.013   1.725  -6.335  1.00 20.62     0.026 A 
ENDBRANCH   1  10
TORSDOF 2
ENDMDL
MODEL 7
REMARK VINA RESULT:    -6.823      2.199      5.991
REMARK INTER + INTRA:          -8.147
REMARK INTER:                  -7.825
REMARK INTRA:                  -0.322
REMARK UNBOUND:                -0.526
REMARK  2 active torsions:
REMARK  status: ('A' for Active; 'I' for Inactive)
REMARK    1  A    between atoms: C5_4  and  O7_13 
REMARK    2  A    between atoms: C8_10  and  O7_13 
ROOT
HETATM    1  O7    D T 371       5.372   3.681  -7.488  1.00 19.13    -0.304 OA
ENDROOT
BRANCH   1   2
HETATM    2  C5    D T 371       4.832   2.851  -6.541  1.00 24.01     0.125 A 
HETATM    3  C6    D T 371       4.012   3.401  -5.434  1.00 25.08     0.154 A 
HETATM    4  C1    D T 371       3.480   2.531  -4.492  1.00 24.96     0.041 A 
HETATM    5  O17   D T 371       3.781   4.741  -5.345  1.00 32.11    -0.188 OA
HETATM    6  C2    D T 371       3.721   1.165  -4.593  1.00 25.04     0.060 A 
HETATM    7  C3    D T 371       4.492   0.649  -5.632  1.00 27.50     0.014 A 
HETATM    8 CL14   D T 371       3.029   0.050  -3.369  1.00 23.09    -0.082 Cl
HETATM    9  C4    D T 371       5.046   1.481  -6.602  1.00 24.93     0.028 A 
ENDBRANCH   1   2
BRANCH   1  10
HETATM   10  C8    D T 371       5.429   3.279  -8.797  1.00 19.85     0.111 A 
HETATM   11  C9    D T 371       4.253   3.445  -9.687  1.00 17.43     0.081 A 
HETATM   12  C10   D T 371       4.345   3.029 -11.008  1.00 16.58     0.025 A 
HETATM   13 CL16   D T 371       2.735   4.174  -9.066  1.00 28.15    -0.080 Cl
HETATM   14  C11   D T 371       5.527   2.464 -11.480  1.00 19.66     0.059 A 
HETATM   15  C12   D T 371       6.629   2.309 -10.642  1.00 21.08     0.013 A 
HETATM   16 CL15   D T 371       5.633   1.929 -13.190  1.00 21.08    -0.082 Cl
HETATM   17  C13   D T 371       6.588   2.712  -9.311  1.00 20.62     0.026 A 
ENDBRANCH   1  10
TORSDOF 2
ENDMDL
MODEL 8
REMARK VINA RESULT:    -6.803      2.454      6.094
REMARK INTER + INTRA:          -8.124
REMARK INTER:                  -7.589
REMARK INTRA:                  -0.535
REMARK UNBOUND:                -0.526
REMARK  2 active torsions:
REMARK  status: ('A' for Active; 'I' for Inactive)
REMARK    1  A    between atoms: C5_4  and  O7_13 
REMARK    2  A    between atoms: C8_10  and  O7_13 
ROOT
HETATM    1  O7    D T 371       2.742   2.133  -6.750  1.00 19.13    -0.304 OA
ENDROOT
BRANCH   1   2
HETATM    2  C5    D T 371       3.264   2.778  -5.660  1.00 24.01     0.125 A 
HETATM    3  C6    D T 371       2.855   4.166  -5.336  1.00 25.08     0.154 A 
HETATM    4  C1    D T 371       3.404   4.789  -4.223  1.00 24.96     0.041 A 
HETATM    5  O17   D T 371       1.951   4.820  -6.118  1.00 32.11    -0.188 OA
HETATM    6  C2    D T 371       4.326   4.111  -3.432  1.00 25.04     0.060 A 
HETATM    7  C3    D T 371       4.710   2.808  -3.737  1.00 27.50     0.014 A 
HETATM    8 CL14   D T 371       5.029   4.928  -1.996  1.00 23.09    -0.082 Cl
HETATM    9  C4    D T 371       4.187   2.141  -4.841  1.00 24.93     0.028 A 
ENDBRANCH   1   2
BRANCH   1  10
HETATM   10  C8    D T 371       3.526   1.907  -7.851  1.00 19.85     0.111 A 
HETATM   11  C9    D T 371       4.009   0.538  -8.163  1.00 17.43     0.081 A 
HETATM   12  C10   D T 371       4.800   0.344  -9.287  1.00 16.58     0.025 A 
HETATM   13 CL16   D T 371       3.576  -0.845  -7.104  1.00 28.15    -0.080 Cl
HETATM   14  C11   D T 371       5.130   1.423 -10.102  1.00 19.66     0.059 A 
HETATM   15  C12   D T 371       4.676   2.707  -9.806  1.00 21.08     0.013 A 
HETATM   16 CL15   D T 371       6.154   1.159 -11.552  1.00 21.08    -0.082 Cl
HETATM   17  C13   D T 371       3.879   2.953  -8.693  1.00 20.62     0.026 A 
ENDBRANCH   1  10
TORSDOF 2
ENDMDL
MODEL 9
REMARK VINA RESULT:    -6.774      2.145      2.610
REMARK INTER + INTRA:          -8.092
REMARK INTER:                  -7.836
REMARK INTRA:                  -0.256
REMARK UNBOUND:                -0.526
REMARK  2 active torsions:
REMARK  status: ('A' for Active; 'I' for Inactive)
REMARK    1  A    between atoms: C5_4  and  O7_13 
REMARK    2  A    between atoms: C8_10  and  O7_13 
ROOT
HETATM    1  O7    D T 371       5.079   3.704  -7.847  1.00 19.13    -0.304 OA
ENDROOT
BRANCH   1   2
HETATM    2  C5    D T 371       5.212   3.260  -9.137  1.00 24.01     0.125 A 
HETATM    3  C6    D T 371       4.087   3.381 -10.097  1.00 25.08     0.154 A 
HETATM    4  C1    D T 371       4.256   2.920 -11.395  1.00 24.96     0.041 A 
HETATM    5  O17   D T 371       2.905   3.937  -9.709  1.00 32.11    -0.188 OA
HETATM    6  C2    D T 371       5.466   2.354 -11.780  1.00 25.04     0.060 A 
HETATM    7  C3    D T 371       6.522   2.241 -10.879  1.00 27.50     0.014 A 
HETATM    8 CL14   D T 371       5.673   1.762 -13.462  1.00 23.09    -0.082 Cl
HETATM    9  C4    D T 371       6.402   2.688  -9.566  1.00 24.93     0.028 A 
ENDBRANCH   1   2
BRANCH   1  10
HETATM   10  C8    D T 371       4.556   2.876  -6.890  1.00 19.85     0.111 A 
HETATM   11  C9    D T 371       5.446   2.019  -6.066  1.00 17.43     0.081 A 
HETATM   12  C10   D T 371       4.883   1.193  -5.104  1.00 16.58     0.025 A 
HETATM   13 CL16   D T 371       7.224   2.052  -6.312  1.00 28.15    -0.080 Cl
HETATM   14  C11   D T 371       3.503   1.175  -4.922  1.00 19.66     0.059 A 
HETATM   15  C12   D T 371       2.669   1.980  -5.696  1.00 21.08     0.013 A 
HETATM   16 CL15   D T 371       2.786   0.102  -3.675  1.00 21.08    -0.082 Cl
HETATM   17  C13   D T 371       3.185   2.826  -6.673  1.00 20.62     0.026 A 
ENDBRANCH   1  10
TORSDOF 2
ENDMDL
