MODEL 1
REMARK VINA RESULT:    -7.751      0.000      0.000
REMARK INTER + INTRA:          -9.014
REMARK INTER:                  -8.657
REMARK INTRA:                  -0.357
REMARK UNBOUND:                -0.357
REMARK  2 active torsions:
REMARK  status: ('A' for Active; 'I' for Inactive)
REMARK    1  A    between atoms: C5_4  and  O7_13 
REMARK    2  A    between atoms: C8_10  and  O7_13 
ROOT
HETATM    1  O7    D T 371       5.873   0.219  -7.605  1.00 19.13    -0.304 OA
ENDROOT
BRANCH   1   2
HETATM    2  C5    D T 371       5.126   1.121  -6.893  1.00 24.01     0.125 A 
HETATM    3  C6    D T 371       4.027   0.660  -6.010  1.00 25.08     0.154 A 
HETATM    4  C1    D T 371       3.292   1.601  -5.304  1.00 24.96     0.041 A 
HETATM    5  O17   D T 371       3.746  -0.668  -5.893  1.00 32.11    -0.188 OA
HETATM    6  C2    D T 371       3.588   2.954  -5.431  1.00 25.04     0.060 A 
HETATM    7  C3    D T 371       4.620   3.386  -6.260  1.00 27.50     0.014 A 
HETATM    8 CL14   D T 371       2.628   4.162  -4.511  1.00 23.09    -0.082 Cl
HETATM    9  C4    D T 371       5.387   2.482  -6.989  1.00 24.93     0.028 A 
ENDBRANCH   1   2
BRANCH   1  10
HETATM   10  C8    D T 371       6.249   0.508  -8.891  1.00 19.85     0.111 A 
HETATM   11  C9    D T 371       5.253   0.486  -9.991  1.00 17.43     0.081 A 
HETATM   12  C10   D T 371       5.668   0.784 -11.282  1.00 16.58     0.025 A 
HETATM   13 CL16   D T 371       3.536   0.078  -9.657  1.00 28.15    -0.080 Cl
HETATM   14  C11   D T 371       7.001   1.099 -11.529  1.00 19.66     0.059 A 
HETATM   15  C12   D T 371       7.935   1.120 -10.496  1.00 21.08     0.013 A 
HETATM   16 CL15   D T 371       7.524   1.483 -13.202  1.00 21.08    -0.082 Cl
HETATM   17  C13   D T 371       7.568   0.828  -9.185  1.00 20.62     0.026 A 
ENDBRANCH   1  10
TORSDOF 2
ENDMDL
MODEL 2
REMARK VINA RESULT:    -7.540      1.205      5.789
REMARK INTER + INTRA:          -8.778
REMARK INTER:                  -8.488
REMARK INTRA:                  -0.291
REMARK UNBOUND:                -0.357
REMARK  2 active torsions:
REMARK  status: ('A' for Active; 'I' for Inactive)
REMARK    1  A    between atoms: C5_4  and  O7_13 
REMARK    2  A    between atoms: C8_10  and  O7_13 
ROOT
HETATM    1  O7    D T 371       6.138   0.356  -7.558  1.00 19.13    -0.304 OA
ENDROOT
BRANCH   1   2
HETATM    2  C5    D T 371       6.457   0.615  -8.865  1.00 24.01     0.125 A 
HETATM    3  C6    D T 371       5.432   0.498  -9.930  1.00 25.08     0.154 A 
HETATM    4  C1    D T 371       5.791   0.768 -11.243  1.00 24.96     0.041 A 
HETATM    5  O17   D T 371       4.156   0.131  -9.623  1.00 32.11    -0.188 OA
HETATM    6  C2    D T 371       7.096   1.142 -11.544  1.00 25.04     0.060 A 
HETATM    7  C3    D T 371       8.058   1.252 -10.544  1.00 27.50     0.014 A 
HETATM    8 CL14   D T 371       7.548   1.489 -13.248  1.00 23.09    -0.082 Cl
HETATM    9  C4    D T 371       7.748   0.992  -9.212  1.00 24.93     0.028 A 
ENDBRANCH   1   2
BRANCH   1  10
HETATM   10  C8    D T 371       5.335   1.225  -6.865  1.00 19.85     0.111 A 
HETATM   11  C9    D T 371       4.185   0.720  -6.074  1.00 17.43     0.081 A 
HETATM   12  C10   D T 371       3.394   1.628  -5.383  1.00 16.58     0.025 A 
HETATM   13 CL16   D T 371       3.822  -1.037  -6.012  1.00 28.15    -0.080 Cl
HETATM   14  C11   D T 371       3.684   2.988  -5.438  1.00 19.66     0.059 A 
HETATM   15  C12   D T 371       4.764   3.460  -6.181  1.00 21.08     0.013 A 
HETATM   16 CL15   D T 371       2.653   4.151  -4.541  1.00 21.08    -0.082 Cl
HETATM   17  C13   D T 371       5.588   2.589  -6.890  1.00 20.62     0.026 A 
ENDBRANCH   1  10
TORSDOF 2
ENDMDL
MODEL 3
REMARK VINA RESULT:    -7.399      2.564      3.099
REMARK INTER + INTRA:          -8.621
REMARK INTER:                  -8.271
REMARK INTRA:                  -0.350
REMARK UNBOUND:                -0.357
REMARK  2 active torsions:
REMARK  status: ('A' for Active; 'I' for Inactive)
REMARK    1  A    between atoms: C5_4  and  O7_13 
REMARK    2  A    between atoms: C8_10  and  O7_13 
ROOT
HETATM    1  O7    D T 371       5.058   3.420  -7.637  1.00 19.13    -0.304 OA
ENDROOT
BRANCH   1   2
HETATM    2  C5    D T 371       4.650   2.629  -6.594  1.00 24.01     0.125 A 
HETATM    3  C6    D T 371       4.774   3.102  -5.194  1.00 25.08     0.154 A 
HETATM    4  C1    D T 371       4.351   2.275  -4.164  1.00 24.96     0.041 A 
HETATM    5  O17   D T 371       5.293   4.333  -4.925  1.00 32.11    -0.188 OA
HETATM    6  C2    D T 371       3.823   1.021  -4.451  1.00 25.04     0.060 A 
HETATM    7  C3    D T 371       3.708   0.576  -5.765  1.00 27.50     0.014 A 
HETATM    8 CL14   D T 371       3.279  -0.041  -3.108  1.00 23.09    -0.082 Cl
HETATM    9  C4    D T 371       4.116   1.369  -6.834  1.00 24.93     0.028 A 
ENDBRANCH   1   2
BRANCH   1  10
HETATM   10  C8    D T 371       5.672   2.855  -8.724  1.00 19.85     0.111 A 
HETATM   11  C9    D T 371       7.097   2.448  -8.657  1.00 17.43     0.081 A 
HETATM   12  C10   D T 371       7.688   1.877  -9.777  1.00 16.58     0.025 A 
HETATM   13 CL16   D T 371       8.044   2.689  -7.151  1.00 28.15    -0.080 Cl
HETATM   14  C11   D T 371       6.944   1.694 -10.939  1.00 19.66     0.059 A 
HETATM   15  C12   D T 371       5.606   2.077 -11.000  1.00 21.08     0.013 A 
HETATM   16 CL15   D T 371       7.719   0.956 -12.380  1.00 21.08    -0.082 Cl
HETATM   17  C13   D T 371       4.969   2.653  -9.904  1.00 20.62     0.026 A 
ENDBRANCH   1  10
TORSDOF 2
ENDMDL
MODEL 4
REMARK VINA RESULT:    -7.315      1.526      1.938
REMARK INTER + INTRA:          -8.527
REMARK INTER:                  -8.225
REMARK INTRA:                  -0.303
REMARK UNBOUND:                -0.357
REMARK  2 active torsions:
REMARK  status: ('A' for Active; 'I' for Inactive)
REMARK    1  A    between atoms: C5_4  and  O7_13 
REMARK    2  A    between atoms: C8_10  and  O7_13 
ROOT
HETATM    1  O7    D T 371       5.328   0.304  -7.005  1.00 19.13    -0.304 OA
ENDROOT
BRANCH   1   2
HETATM    2  C5    D T 371       4.700   1.306  -6.313  1.00 24.01     0.125 A 
HETATM    3  C6    D T 371       3.847   0.994  -5.140  1.00 25.08     0.154 A 
HETATM    4  C1    D T 371       3.227   2.033  -4.463  1.00 24.96     0.041 A 
HETATM    5  O17   D T 371       3.678  -0.296  -4.733  1.00 32.11    -0.188 OA
HETATM    6  C2    D T 371       3.407   3.346  -4.887  1.00 25.04     0.060 A 
HETATM    7  C3    D T 371       4.207   3.638  -5.988  1.00 27.50     0.014 A 
HETATM    8 CL14   D T 371       2.598   4.683  -4.002  1.00 23.09    -0.082 Cl
HETATM    9  C4    D T 371       4.852   2.631  -6.700  1.00 24.93     0.028 A 
ENDBRANCH   1   2
BRANCH   1  10
HETATM   10  C8    D T 371       5.729   0.515  -8.299  1.00 19.85     0.111 A 
HETATM   11  C9    D T 371       7.128   0.910  -8.599  1.00 17.43     0.081 A 
HETATM   12  C10   D T 371       7.501   1.114  -9.920  1.00 16.58     0.025 A 
HETATM   13 CL16   D T 371       8.320   1.121  -7.273  1.00 28.15    -0.080 Cl
HETATM   14  C11   D T 371       6.568   0.948 -10.940  1.00 19.66     0.059 A 
HETATM   15  C12   D T 371       5.256   0.577 -10.657  1.00 21.08     0.013 A 
HETATM   16 CL15   D T 371       7.063   1.215 -12.645  1.00 21.08    -0.082 Cl
HETATM   17  C13   D T 371       4.834   0.360  -9.348  1.00 20.62     0.026 A 
ENDBRANCH   1  10
TORSDOF 2
ENDMDL
MODEL 5
REMARK VINA RESULT:    -7.186      2.450      6.251
REMARK INTER + INTRA:          -8.383
REMARK INTER:                  -7.890
REMARK INTRA:                  -0.493
REMARK UNBOUND:                -0.357
REMARK  2 active torsions:
REMARK  status: ('A' for Active; 'I' for Inactive)
REMARK    1  A    between atoms: C5_4  and  O7_13 
REMARK    2  A    between atoms: C8_10  and  O7_13 
ROOT
HETATM    1  O7    D T 371       3.983   1.769  -7.014  1.00 19.13    -0.304 OA
ENDROOT
BRANCH   1   2
HETATM    2  C5    D T 371       4.905   1.465  -7.982  1.00 24.01     0.125 A 
HETATM    3  C6    D T 371       5.231   2.443  -9.048  1.00 25.08     0.154 A 
HETATM    4  C1    D T 371       6.169   2.101 -10.011  1.00 24.96     0.041 A 
HETATM    5  O17   D T 371       4.618   3.659  -9.080  1.00 32.11    -0.188 OA
HETATM    6  C2    D T 371       6.788   0.856  -9.969  1.00 25.04     0.060 A 
HETATM    7  C3    D T 371       6.482  -0.062  -8.968  1.00 27.50     0.014 A 
HETATM    8 CL14   D T 371       8.001   0.425 -11.222  1.00 23.09    -0.082 Cl
HETATM    9  C4    D T 371       5.548   0.234  -7.978  1.00 24.93     0.028 A 
ENDBRANCH   1   2
BRANCH   1  10
HETATM   10  C8    D T 371       4.402   2.201  -5.783  1.00 19.85     0.111 A 
HETATM   11  C9    D T 371       4.403   1.277  -4.621  1.00 17.43     0.081 A 
HETATM   12  C10   D T 371       4.835   1.747  -3.388  1.00 16.58     0.025 A 
HETATM   13 CL16   D T 371       3.854  -0.422  -4.806  1.00 28.15    -0.080 Cl
HETATM   14  C11   D T 371       5.259   3.067  -3.255  1.00 19.66     0.059 A 
HETATM   15  C12   D T 371       5.257   3.932  -4.347  1.00 21.08     0.013 A 
HETATM   16 CL15   D T 371       5.814   3.662  -1.656  1.00 21.08    -0.082 Cl
HETATM   17  C13   D T 371       4.834   3.508  -5.604  1.00 20.62     0.026 A 
ENDBRANCH   1  10
TORSDOF 2
ENDMDL
MODEL 6
REMARK VINA RESULT:    -7.143      2.186      2.414
REMARK INTER + INTRA:          -8.335
REMARK INTER:                  -7.873
REMARK INTRA:                  -0.462
REMARK UNBOUND:                -0.357
REMARK  2 active torsions:
REMARK  status: ('A' for Active; 'I' for Inactive)
REMARK    1  A    between atoms: C5_4  and  O7_13 
REMARK    2  A    between atoms: C8_10  and  O7_13 
ROOT
HETATM    1  O7    D T 371       4.009   1.636  -7.012  1.00 19.13    -0.304 OA
ENDROOT
BRANCH   1   2
HETATM    2  C5    D T 371       4.412   2.071  -5.777  1.00 24.01     0.125 A 
HETATM    3  C6    D T 371       4.380   1.158  -4.608  1.00 25.08     0.154 A 
HETATM    4  C1    D T 371       4.795   1.633  -3.372  1.00 24.96     0.041 A 
HETATM    5  O17   D T 371       3.951  -0.127  -4.747  1.00 32.11    -0.188 OA
HETATM    6  C2    D T 371       5.230   2.947  -3.242  1.00 25.04     0.060 A 
HETATM    7  C3    D T 371       5.260   3.803  -4.339  1.00 27.50     0.014 A 
HETATM    8 CL14   D T 371       5.765   3.549  -1.636  1.00 23.09    -0.082 Cl
HETATM    9  C4    D T 371       4.855   3.375  -5.600  1.00 24.93     0.028 A 
ENDBRANCH   1   2
BRANCH   1  10
HETATM   10  C8    D T 371       4.942   1.367  -7.980  1.00 19.85     0.111 A 
HETATM   11  C9    D T 371       5.272   2.381  -9.011  1.00 17.43     0.081 A 
HETATM   12  C10   D T 371       6.222   2.077  -9.976  1.00 16.58     0.025 A 
HETATM   13 CL16   D T 371       4.453   3.980  -9.012  1.00 28.15    -0.080 Cl
HETATM   14  C11   D T 371       6.851   0.835  -9.965  1.00 19.66     0.059 A 
HETATM   15  C12   D T 371       6.540  -0.116  -8.997  1.00 21.08     0.013 A 
HETATM   16 CL15   D T 371       8.078   0.453 -11.218  1.00 21.08    -0.082 Cl
HETATM   17  C13   D T 371       5.595   0.142  -8.008  1.00 20.62     0.026 A 
ENDBRANCH   1  10
TORSDOF 2
ENDMDL
MODEL 7
REMARK VINA RESULT:    -6.981      2.440      2.966
REMARK INTER + INTRA:          -8.154
REMARK INTER:                  -7.782
REMARK INTRA:                  -0.372
REMARK UNBOUND:                -0.357
REMARK  2 active torsions:
REMARK  status: ('A' for Active; 'I' for Inactive)
REMARK    1  A    between atoms: C5_4  and  O7_13 
REMARK    2  A    between atoms: C8_10  and  O7_13 
ROOT
HETATM    1  O7    D T 371       6.325   0.818  -5.775  1.00 19.13    -0.304 OA
ENDROOT
BRANCH   1   2
HETATM    2  C5    D T 371       5.489   1.769  -5.251  1.00 24.01     0.125 A 
HETATM    3  C6    D T 371       5.918   2.600  -4.100  1.00 25.08     0.154 A 
HETATM    4  C1    D T 371       5.045   3.553  -3.595  1.00 24.96     0.041 A 
HETATM    5  O17   D T 371       7.152   2.431  -3.548  1.00 32.11    -0.188 OA
HETATM    6  C2    D T 371       3.788   3.717  -4.166  1.00 25.04     0.060 A 
HETATM    7  C3    D T 371       3.385   2.937  -5.247  1.00 27.50     0.014 A 
HETATM    8 CL14   D T 371       2.667   4.955  -3.503  1.00 23.09    -0.082 Cl
HETATM    9  C4    D T 371       4.224   1.968  -5.790  1.00 24.93     0.028 A 
ENDBRANCH   1   2
BRANCH   1  10
HETATM   10  C8    D T 371       6.596   0.812  -7.119  1.00 19.85     0.111 A 
HETATM   11  C9    D T 371       7.641   1.704  -7.681  1.00 17.43     0.081 A 
HETATM   12  C10   D T 371       7.890   1.672  -9.046  1.00 16.58     0.025 A 
HETATM   13 CL16   D T 371       8.569   2.807  -6.611  1.00 28.15    -0.080 Cl
HETATM   14  C11   D T 371       7.165   0.812  -9.866  1.00 19.66     0.059 A 
HETATM   15  C12   D T 371       6.184  -0.024  -9.337  1.00 21.08     0.013 A 
HETATM   16 CL15   D T 371       7.496   0.780 -11.630  1.00 21.08    -0.082 Cl
HETATM   17  C13   D T 371       5.898  -0.029  -7.975  1.00 20.62     0.026 A 
ENDBRANCH   1  10
TORSDOF 2
ENDMDL
MODEL 8
REMARK VINA RESULT:    -6.962      2.445      2.967
REMARK INTER + INTRA:          -8.132
REMARK INTER:                  -7.658
REMARK INTRA:                  -0.475
REMARK UNBOUND:                -0.357
REMARK  2 active torsions:
REMARK  status: ('A' for Active; 'I' for Inactive)
REMARK    1  A    between atoms: C5_4  and  O7_13 
REMARK    2  A    between atoms: C8_10  and  O7_13 
ROOT
HETATM    1  O7    D T 371       3.956   1.714  -6.768  1.00 19.13    -0.304 OA
ENDROOT
BRANCH   1   2
HETATM    2  C5    D T 371       4.348   2.216  -5.554  1.00 24.01     0.125 A 
HETATM    3  C6    D T 371       4.245   3.668  -5.270  1.00 25.08     0.154 A 
HETATM    4  C1    D T 371       4.651   4.142  -4.030  1.00 24.96     0.041 A 
HETATM    5  O17   D T 371       3.757   4.524  -6.211  1.00 32.11    -0.188 OA
HETATM    6  C2    D T 371       5.148   3.259  -3.077  1.00 25.04     0.060 A 
HETATM    7  C3    D T 371       5.245   1.896  -3.345  1.00 27.50     0.014 A 
HETATM    8 CL14   D T 371       5.671   3.885  -1.476  1.00 23.09    -0.082 Cl
HETATM    9  C4    D T 371       4.850   1.372  -4.573  1.00 24.93     0.028 A 
ENDBRANCH   1   2
BRANCH   1  10
HETATM   10  C8    D T 371       4.892   1.460  -7.737  1.00 19.85     0.111 A 
HETATM   11  C9    D T 371       5.392   0.081  -7.959  1.00 17.43     0.081 A 
HETATM   12  C10   D T 371       6.338  -0.141  -8.949  1.00 16.58     0.025 A 
HETATM   13 CL16   D T 371       4.782  -1.281  -6.960  1.00 28.15    -0.080 Cl
HETATM   14  C11   D T 371       6.804   0.923  -9.717  1.00 19.66     0.059 A 
HETATM   15  C12   D T 371       6.334   2.216  -9.508  1.00 21.08     0.013 A 
HETATM   16 CL15   D T 371       8.029   0.622 -10.995  1.00 21.08    -0.082 Cl
HETATM   17  C13   D T 371       5.384   2.490  -8.527  1.00 20.62     0.026 A 
ENDBRANCH   1  10
TORSDOF 2
ENDMDL
MODEL 9
REMARK VINA RESULT:    -6.828     10.293     11.740
REMARK INTER + INTRA:          -7.982
REMARK INTER:                  -7.498
REMARK INTRA:                  -0.485
REMARK UNBOUND:                -0.357
REMARK  2 active torsions:
REMARK  status: ('A' for Active; 'I' for Inactive)
REMARK    1  A    between atoms: C5_4  and  O7_13 
REMARK    2  A    between atoms: C8_10  and  O7_13 
ROOT
HETATM    1  O7    D T 371       6.819   7.585   2.252  1.00 19.13    -0.304 OA
ENDROOT
BRANCH   1   2
HETATM    2  C5    D T 371       7.085   6.279   2.568  1.00 24.01     0.125 A 
HETATM    3  C6    D T 371       6.096   5.467   3.319  1.00 25.08     0.154 A 
HETATM    4  C1    D T 371       6.399   4.147   3.621  1.00 24.96     0.041 A 
HETATM    5  O17   D T 371       4.907   6.009   3.703  1.00 32.11    -0.188 OA
HETATM    6  C2    D T 371       7.616   3.604   3.224  1.00 25.04     0.060 A 
HETATM    7  C3    D T 371       8.544   4.366   2.520  1.00 27.50     0.014 A 
HETATM    8 CL14   D T 371       7.997   1.894   3.622  1.00 23.09    -0.082 Cl
HETATM    9  C4    D T 371       8.287   5.695   2.191  1.00 24.93     0.028 A 
ENDBRANCH   1   2
BRANCH   1  10
HETATM   10  C8    D T 371       6.453   7.918   0.974  1.00 19.85     0.111 A 
HETATM   11  C9    D T 371       7.269   8.870   0.180  1.00 17.43     0.081 A 
HETATM   12  C10   D T 371       6.870   9.184  -1.112  1.00 16.58     0.025 A 
HETATM   13 CL16   D T 371       8.751   9.603   0.879  1.00 28.15    -0.080 Cl
HETATM   14  C11   D T 371       5.719   8.609  -1.644  1.00 19.66     0.059 A 
HETATM   15  C12   D T 371       4.954   7.717  -0.898  1.00 21.08     0.013 A 
HETATM   16 CL15   D T 371       5.214   9.024  -3.316  1.00 21.08    -0.082 Cl
HETATM   17  C13   D T 371       5.313   7.369   0.402  1.00 20.62     0.026 A 
ENDBRANCH   1  10
TORSDOF 2
ENDMDL
