MODEL 1
REMARK VINA RESULT:      -8.2      0.000      0.000
REMARK  2 active torsions:
REMARK  status: ('A' for Active; 'I' for Inactive)
REMARK    1  A    between atoms: C5_4  and  O7_13 
REMARK    2  A    between atoms: C8_10  and  O7_13 
ROOT
HETATM    1  O7    D T 371       6.799  30.479 -16.212  1.00 19.13    -0.304 OA
ENDROOT
BRANCH   1   2
HETATM    2  C5    D T 371       8.115  30.190 -16.459  1.00 24.01     0.125 A 
HETATM    3  C6    D T 371       9.056  31.258 -16.878  1.00 25.08     0.154 A 
HETATM    4  C1    D T 371      10.382  30.930 -17.120  1.00 24.96     0.041 A 
HETATM    5  O17   D T 371       8.624  32.542 -17.022  1.00 32.11    -0.188 OA
HETATM    6  C2    D T 371      10.813  29.616 -16.970  1.00 25.04     0.060 A 
HETATM    7  C3    D T 371       9.929  28.614 -16.577  1.00 27.50     0.014 A 
HETATM    8 CL14   D T 371      12.532  29.204 -17.286  1.00 23.09    -0.082 Cl
HETATM    9  C4    D T 371       8.589  28.893 -16.321  1.00 24.93     0.028 A 
ENDBRANCH   1   2
BRANCH   1  10
HETATM   10  C8    D T 371       6.284  30.305 -14.953  1.00 19.85     0.111 A 
HETATM   11  C9    D T 371       5.968  31.478 -14.100  1.00 17.43     0.081 A 
HETATM   12  C10   D T 371       5.448  31.267 -12.831  1.00 16.58     0.025 A 
HETATM   13 CL16   D T 371       6.255  33.145 -14.702  1.00 28.15    -0.080 Cl
HETATM   14  C11   D T 371       5.231  29.970 -12.374  1.00 19.66     0.059 A 
HETATM   15  C12   D T 371       5.528  28.871 -13.176  1.00 21.08     0.013 A 
HETATM   16 CL15   D T 371       4.557  29.710 -10.731  1.00 21.08    -0.082 Cl
HETATM   17  C13   D T 371       6.051  29.030 -14.456  1.00 20.62     0.026 A 
ENDBRANCH   1  10
TORSDOF 2
ENDMDL
MODEL 2
REMARK VINA RESULT:      -8.1      2.321      2.488
REMARK  2 active torsions:
REMARK  status: ('A' for Active; 'I' for Inactive)
REMARK    1  A    between atoms: C5_4  and  O7_13 
REMARK    2  A    between atoms: C8_10  and  O7_13 
ROOT
HETATM    1  O7    D T 371       7.604  31.328 -16.508  1.00 19.13    -0.304 OA
ENDROOT
BRANCH   1   2
HETATM    2  C5    D T 371       7.845  30.586 -17.635  1.00 24.01     0.125 A 
HETATM    3  C6    D T 371       9.226  30.434 -18.157  1.00 25.08     0.154 A 
HETATM    4  C1    D T 371       9.433  29.676 -19.301  1.00 24.96     0.041 A 
HETATM    5  O17   D T 371      10.274  31.029 -17.522  1.00 32.11    -0.188 OA
HETATM    6  C2    D T 371       8.355  29.073 -19.941  1.00 25.04     0.060 A 
HETATM    7  C3    D T 371       7.060  29.217 -19.450  1.00 27.50     0.014 A 
HETATM    8 CL14   D T 371       8.638  28.094 -21.420  1.00 23.09    -0.082 Cl
HETATM    9  C4    D T 371       6.800  29.966 -18.306  1.00 24.93     0.028 A 
ENDBRANCH   1   2
BRANCH   1  10
HETATM   10  C8    D T 371       7.176  30.711 -15.361  1.00 19.85     0.111 A 
HETATM   11  C9    D T 371       6.224  31.393 -14.449  1.00 17.43     0.081 A 
HETATM   12  C10   D T 371       5.811  30.740 -13.296  1.00 16.58     0.025 A 
HETATM   13 CL16   D T 371       5.616  33.039 -14.833  1.00 28.15    -0.080 Cl
HETATM   14  C11   D T 371       6.289  29.464 -13.010  1.00 19.66     0.059 A 
HETATM   15  C12   D T 371       7.183  28.826 -13.867  1.00 21.08     0.013 A 
HETATM   16 CL15   D T 371       5.747  28.630 -11.516  1.00 21.08    -0.082 Cl
HETATM   17  C13   D T 371       7.626  29.439 -15.035  1.00 20.62     0.026 A 
ENDBRANCH   1  10
TORSDOF 2
ENDMDL
MODEL 3
REMARK VINA RESULT:      -8.0     11.906     13.216
REMARK  2 active torsions:
REMARK  status: ('A' for Active; 'I' for Inactive)
REMARK    1  A    between atoms: C5_4  and  O7_13 
REMARK    2  A    between atoms: C8_10  and  O7_13 
ROOT
HETATM    1  O7    D T 371       2.216  22.777 -22.955  1.00 19.13    -0.304 OA
ENDROOT
BRANCH   1   2
HETATM    2  C5    D T 371       2.783  24.018 -23.080  1.00 24.01     0.125 A 
HETATM    3  C6    D T 371       1.940  25.238 -23.055  1.00 25.08     0.154 A 
HETATM    4  C1    D T 371       2.547  26.479 -23.184  1.00 24.96     0.041 A 
HETATM    5  O17   D T 371       0.589  25.142 -22.905  1.00 32.11    -0.188 OA
HETATM    6  C2    D T 371       3.928  26.566 -23.336  1.00 25.04     0.060 A 
HETATM    7  C3    D T 371       4.718  25.420 -23.360  1.00 27.50     0.014 A 
HETATM    8 CL14   D T 371       4.701  28.178 -23.502  1.00 23.09    -0.082 Cl
HETATM    9  C4    D T 371       4.156  24.152 -23.234  1.00 24.93     0.028 A 
ENDBRANCH   1   2
BRANCH   1  10
HETATM   10  C8    D T 371       2.581  21.768 -23.809  1.00 19.85     0.111 A 
HETATM   11  C9    D T 371       2.363  21.904 -25.271  1.00 17.43     0.081 A 
HETATM   12  C10   D T 371       2.745  20.864 -26.107  1.00 16.58     0.025 A 
HETATM   13 CL16   D T 371       1.618  23.391 -25.947  1.00 28.15    -0.080 Cl
HETATM   14  C11   D T 371       3.322  19.716 -25.572  1.00 19.66     0.059 A 
HETATM   15  C12   D T 371       3.525  19.591 -24.200  1.00 21.08     0.013 A 
HETATM   16 CL15   D T 371       3.811  18.378 -26.665  1.00 21.08    -0.082 Cl
HETATM   17  C13   D T 371       3.160  20.605 -23.320  1.00 20.62     0.026 A 
ENDBRANCH   1  10
TORSDOF 2
ENDMDL
MODEL 4
REMARK VINA RESULT:      -8.0      2.450      5.917
REMARK  2 active torsions:
REMARK  status: ('A' for Active; 'I' for Inactive)
REMARK    1  A    between atoms: C5_4  and  O7_13 
REMARK    2  A    between atoms: C8_10  and  O7_13 
ROOT
HETATM    1  O7    D T 371       7.708  31.152 -16.653  1.00 19.13    -0.304 OA
ENDROOT
BRANCH   1   2
HETATM    2  C5    D T 371       7.260  30.593 -15.485  1.00 24.01     0.125 A 
HETATM    3  C6    D T 371       6.257  31.296 -14.648  1.00 25.08     0.154 A 
HETATM    4  C1    D T 371       5.825  30.701 -13.471  1.00 24.96     0.041 A 
HETATM    5  O17   D T 371       5.766  32.508 -15.030  1.00 32.11    -0.188 OA
HETATM    6  C2    D T 371       6.334  29.463 -13.091  1.00 25.04     0.060 A 
HETATM    7  C3    D T 371       7.276  28.804 -13.877  1.00 27.50     0.014 A 
HETATM    8 CL14   D T 371       5.767  28.703 -11.566  1.00 23.09    -0.082 Cl
HETATM    9  C4    D T 371       7.739  29.359 -15.066  1.00 24.93     0.028 A 
ENDBRANCH   1   2
BRANCH   1  10
HETATM   10  C8    D T 371       7.933  30.360 -17.749  1.00 19.85     0.111 A 
HETATM   11  C9    D T 371       9.316  29.979 -18.131  1.00 17.43     0.081 A 
HETATM   12  C10   D T 371       9.509  29.176 -19.246  1.00 16.58     0.025 A 
HETATM   13 CL16   D T 371      10.718  30.549 -17.164  1.00 28.15    -0.080 Cl
HETATM   14  C11   D T 371       8.415  28.740 -19.988  1.00 19.66     0.059 A 
HETATM   15  C12   D T 371       7.118  29.099 -19.627  1.00 21.08     0.013 A 
HETATM   16 CL15   D T 371       8.678  27.701 -21.428  1.00 21.08    -0.082 Cl
HETATM   17  C13   D T 371       6.873  29.902 -18.518  1.00 20.62     0.026 A 
ENDBRANCH   1  10
TORSDOF 2
ENDMDL
MODEL 5
REMARK VINA RESULT:      -7.9      1.658      5.978
REMARK  2 active torsions:
REMARK  status: ('A' for Active; 'I' for Inactive)
REMARK    1  A    between atoms: C5_4  and  O7_13 
REMARK    2  A    between atoms: C8_10  and  O7_13 
ROOT
HETATM    1  O7    D T 371       7.149  30.528 -16.423  1.00 19.13    -0.304 OA
ENDROOT
BRANCH   1   2
HETATM    2  C5    D T 371       6.693  30.368 -15.141  1.00 24.01     0.125 A 
HETATM    3  C6    D T 371       5.999  31.478 -14.443  1.00 25.08     0.154 A 
HETATM    4  C1    D T 371       5.550  31.281 -13.145  1.00 24.96     0.041 A 
HETATM    5  O17   D T 371       5.805  32.673 -15.068  1.00 32.11    -0.188 OA
HETATM    6  C2    D T 371       5.754  30.057 -12.516  1.00 25.04     0.060 A 
HETATM    7  C3    D T 371       6.405  29.015 -13.172  1.00 27.50     0.014 A 
HETATM    8 CL14   D T 371       5.167  29.814 -10.837  1.00 23.09    -0.082 Cl
HETATM    9  C4    D T 371       6.873  29.163 -14.475  1.00 24.93     0.028 A 
ENDBRANCH   1   2
BRANCH   1  10
HETATM   10  C8    D T 371       8.401  30.085 -16.764  1.00 19.85     0.111 A 
HETATM   11  C9    D T 371       8.574  28.795 -17.478  1.00 17.43     0.081 A 
HETATM   12  C10   D T 371       9.856  28.377 -17.809  1.00 16.58     0.025 A 
HETATM   13 CL16   D T 371       7.148  27.792 -17.906  1.00 28.15    -0.080 Cl
HETATM   14  C11   D T 371      10.954  29.163 -17.472  1.00 19.66     0.059 A 
HETATM   15  C12   D T 371      10.788  30.373 -16.802  1.00 21.08     0.013 A 
HETATM   16 CL15   D T 371      12.606  28.610 -17.906  1.00 21.08    -0.082 Cl
HETATM   17  C13   D T 371       9.525  30.836 -16.449  1.00 20.62     0.026 A 
ENDBRANCH   1  10
TORSDOF 2
ENDMDL
MODEL 6
REMARK VINA RESULT:      -7.8     11.792     12.942
REMARK  2 active torsions:
REMARK  status: ('A' for Active; 'I' for Inactive)
REMARK    1  A    between atoms: C5_4  and  O7_13 
REMARK    2  A    between atoms: C8_10  and  O7_13 
ROOT
HETATM    1  O7    D T 371       2.397  22.910 -23.373  1.00 19.13    -0.304 OA
ENDROOT
BRANCH   1   2
HETATM    2  C5    D T 371       2.710  21.815 -24.135  1.00 24.01     0.125 A 
HETATM    3  C6    D T 371       2.670  21.891 -25.616  1.00 25.08     0.154 A 
HETATM    4  C1    D T 371       2.993  20.763 -26.357  1.00 24.96     0.041 A 
HETATM    5  O17   D T 371       2.322  23.051 -26.240  1.00 32.11    -0.188 OA
HETATM    6  C2    D T 371       3.347  19.583 -25.710  1.00 25.04     0.060 A 
HETATM    7  C3    D T 371       3.384  19.513 -24.319  1.00 27.50     0.014 A 
HETATM    8 CL14   D T 371       3.763  18.130 -26.680  1.00 23.09    -0.082 Cl
HETATM    9  C4    D T 371       3.069  20.618 -23.532  1.00 24.93     0.028 A 
ENDBRANCH   1   2
BRANCH   1  10
HETATM   10  C8    D T 371       3.323  23.904 -23.190  1.00 19.85     0.111 A 
HETATM   11  C9    D T 371       3.019  25.300 -23.592  1.00 17.43     0.081 A 
HETATM   12  C10   D T 371       3.979  26.283 -23.392  1.00 16.58     0.025 A 
HETATM   13 CL16   D T 371       1.433  25.712 -24.325  1.00 28.15    -0.080 Cl
HETATM   14  C11   D T 371       5.205  25.952 -22.822  1.00 19.66     0.059 A 
HETATM   15  C12   D T 371       5.489  24.641 -22.446  1.00 21.08     0.013 A 
HETATM   16 CL15   D T 371       6.438  27.232 -22.569  1.00 21.08    -0.082 Cl
HETATM   17  C13   D T 371       4.560  23.621 -22.625  1.00 20.62     0.026 A 
ENDBRANCH   1  10
TORSDOF 2
ENDMDL
MODEL 7
REMARK VINA RESULT:      -7.6     11.313     12.575
REMARK  2 active torsions:
REMARK  status: ('A' for Active; 'I' for Inactive)
REMARK    1  A    between atoms: C5_4  and  O7_13 
REMARK    2  A    between atoms: C8_10  and  O7_13 
ROOT
HETATM    1  O7    D T 371       2.758  23.247 -22.860  1.00 19.13    -0.304 OA
ENDROOT
BRANCH   1   2
HETATM    2  C5    D T 371       2.968  22.167 -23.676  1.00 24.01     0.125 A 
HETATM    3  C6    D T 371       3.658  20.958 -23.163  1.00 25.08     0.154 A 
HETATM    4  C1    D T 371       3.854  19.882 -24.018  1.00 24.96     0.041 A 
HETATM    5  O17   D T 371       4.092  20.903 -21.873  1.00 32.11    -0.188 OA
HETATM    6  C2    D T 371       3.408  19.947 -25.333  1.00 25.04     0.060 A 
HETATM    7  C3    D T 371       2.760  21.083 -25.813  1.00 27.50     0.014 A 
HETATM    8 CL14   D T 371       3.667  18.548 -26.429  1.00 23.09    -0.082 Cl
HETATM    9  C4    D T 371       2.539  22.188 -24.996  1.00 24.93     0.028 A 
ENDBRANCH   1   2
BRANCH   1  10
HETATM   10  C8    D T 371       3.589  24.335 -22.936  1.00 19.85     0.111 A 
HETATM   11  C9    D T 371       3.117  25.601 -23.552  1.00 17.43     0.081 A 
HETATM   12  C10   D T 371       3.984  26.683 -23.613  1.00 16.58     0.025 A 
HETATM   13 CL16   D T 371       1.450  25.729 -24.208  1.00 28.15    -0.080 Cl
HETATM   14  C11   D T 371       5.274  26.572 -23.102  1.00 19.66     0.059 A 
HETATM   15  C12   D T 371       5.714  25.384 -22.524  1.00 21.08     0.013 A 
HETATM   16 CL15   D T 371       6.384  27.979 -23.187  1.00 21.08    -0.082 Cl
HETATM   17  C13   D T 371       4.883  24.271 -22.439  1.00 20.62     0.026 A 
ENDBRANCH   1  10
TORSDOF 2
ENDMDL
MODEL 8
REMARK VINA RESULT:      -7.6     10.618     11.764
REMARK  2 active torsions:
REMARK  status: ('A' for Active; 'I' for Inactive)
REMARK    1  A    between atoms: C5_4  and  O7_13 
REMARK    2  A    between atoms: C8_10  and  O7_13 
ROOT
HETATM    1  O7    D T 371       1.862  24.865 -22.925  1.00 19.13    -0.304 OA
ENDROOT
BRANCH   1   2
HETATM    2  C5    D T 371       2.193  23.577 -23.256  1.00 24.01     0.125 A 
HETATM    3  C6    D T 371       1.912  23.052 -24.615  1.00 25.08     0.154 A 
HETATM    4  C1    D T 371       2.260  21.742 -24.917  1.00 24.96     0.041 A 
HETATM    5  O17   D T 371       1.323  23.844 -25.554  1.00 32.11    -0.188 OA
HETATM    6  C2    D T 371       2.861  20.942 -23.950  1.00 25.04     0.060 A 
HETATM    7  C3    D T 371       3.123  21.436 -22.675  1.00 27.50     0.014 A 
HETATM    8 CL14   D T 371       3.306  19.250 -24.353  1.00 23.09    -0.082 Cl
HETATM    9  C4    D T 371       2.794  22.742 -22.324  1.00 24.93     0.028 A 
ENDBRANCH   1   2
BRANCH   1  10
HETATM   10  C8    D T 371       2.826  25.839 -22.921  1.00 19.85     0.111 A 
HETATM   11  C9    D T 371       2.690  27.029 -22.044  1.00 17.43     0.081 A 
HETATM   12  C10   D T 371       3.685  27.997 -22.064  1.00 16.58     0.025 A 
HETATM   13 CL16   D T 371       1.260  27.213 -20.974  1.00 28.15    -0.080 Cl
HETATM   14  C11   D T 371       4.790  27.843 -22.897  1.00 19.66     0.059 A 
HETATM   15  C12   D T 371       4.915  26.726 -23.719  1.00 21.08     0.013 A 
HETATM   16 CL15   D T 371       6.069  29.102 -22.913  1.00 21.08    -0.082 Cl
HETATM   17  C13   D T 371       3.945  25.728 -23.735  1.00 20.62     0.026 A 
ENDBRANCH   1  10
TORSDOF 2
ENDMDL
MODEL 9
REMARK VINA RESULT:      -7.5      3.513      4.076
REMARK  2 active torsions:
REMARK  status: ('A' for Active; 'I' for Inactive)
REMARK    1  A    between atoms: C5_4  and  O7_13 
REMARK    2  A    between atoms: C8_10  and  O7_13 
ROOT
HETATM    1  O7    D T 371       8.317  29.328 -17.078  1.00 19.13    -0.304 OA
ENDROOT
BRANCH   1   2
HETATM    2  C5    D T 371       7.618  28.967 -18.200  1.00 24.01     0.125 A 
HETATM    3  C6    D T 371       7.811  29.697 -19.477  1.00 25.08     0.154 A 
HETATM    4  C1    D T 371       7.086  29.304 -20.594  1.00 24.96     0.041 A 
HETATM    5  O17   D T 371       8.688  30.737 -19.553  1.00 32.11    -0.188 OA
HETATM    6  C2    D T 371       6.194  28.241 -20.505  1.00 25.04     0.060 A 
HETATM    7  C3    D T 371       6.013  27.556 -19.306  1.00 27.50     0.014 A 
HETATM    8 CL14   D T 371       5.262  27.743 -21.957  1.00 23.09    -0.082 Cl
HETATM    9  C4    D T 371       6.717  27.912 -18.159  1.00 24.93     0.028 A 
ENDBRANCH   1   2
BRANCH   1  10
HETATM   10  C8    D T 371       7.648  29.601 -15.914  1.00 19.85     0.111 A 
HETATM   11  C9    D T 371       7.718  28.661 -14.767  1.00 17.43     0.081 A 
HETATM   12  C10   D T 371       7.029  28.969 -13.602  1.00 16.58     0.025 A 
HETATM   13 CL16   D T 371       8.679  27.149 -14.886  1.00 28.15    -0.080 Cl
HETATM   14  C11   D T 371       6.288  30.144 -13.521  1.00 19.66     0.059 A 
HETATM   15  C12   D T 371       6.224  31.024 -14.598  1.00 21.08     0.013 A 
HETATM   16 CL15   D T 371       5.402  30.531 -12.009  1.00 21.08    -0.082 Cl
HETATM   17  C13   D T 371       6.897  30.761 -15.788  1.00 20.62     0.026 A 
ENDBRANCH   1  10
TORSDOF 2
ENDMDL
