MODEL 1
REMARK VINA RESULT:    -7.809      0.000      0.000
REMARK INTER + INTRA:          -9.042
REMARK INTER:                  -8.722
REMARK INTRA:                  -0.320
REMARK UNBOUND:                -0.320
REMARK  2 active torsions:
REMARK  status: ('A' for Active; 'I' for Inactive)
REMARK    1  A    between atoms: C5_4  and  O7_13 
REMARK    2  A    between atoms: C8_10  and  O7_13 
ROOT
HETATM    1  O7    D T 371       2.224  22.878 -22.978  1.00 19.13    -0.304 OA
ENDROOT
BRANCH   1   2
HETATM    2  C5    D T 371       2.828  24.103 -23.090  1.00 24.01     0.125 A 
HETATM    3  C6    D T 371       2.019  25.347 -23.082  1.00 25.08     0.154 A 
HETATM    4  C1    D T 371       2.664  26.570 -23.197  1.00 24.96     0.041 A 
HETATM    5  O17   D T 371       0.664  25.289 -22.961  1.00 32.11    -0.188 OA
HETATM    6  C2    D T 371       4.049  26.618 -23.319  1.00 25.04     0.060 A 
HETATM    7  C3    D T 371       4.807  25.450 -23.327  1.00 27.50     0.014 A 
HETATM    8 CL14   D T 371       4.871  28.208 -23.467  1.00 23.09    -0.082 Cl
HETATM    9  C4    D T 371       4.207  24.199 -23.213  1.00 24.93     0.028 A 
ENDBRANCH   1   2
BRANCH   1  10
HETATM   10  C8    D T 371       2.588  21.857 -23.816  1.00 19.85     0.111 A 
HETATM   11  C9    D T 371       2.313  21.944 -25.272  1.00 17.43     0.081 A 
HETATM   12  C10   D T 371       2.695  20.892 -26.093  1.00 16.58     0.025 A 
HETATM   13 CL16   D T 371       1.500  23.388 -25.961  1.00 28.15    -0.080 Cl
HETATM   14  C11   D T 371       3.326  19.776 -25.548  1.00 19.66     0.059 A 
HETATM   15  C12   D T 371       3.582  19.697 -24.181  1.00 21.08     0.013 A 
HETATM   16 CL15   D T 371       3.815  18.423 -26.620  1.00 21.08    -0.082 Cl
HETATM   17  C13   D T 371       3.219  20.726 -23.317  1.00 20.62     0.026 A 
ENDBRANCH   1  10
TORSDOF 2
ENDMDL
MODEL 2
REMARK VINA RESULT:    -7.635      1.256      5.765
REMARK INTER + INTRA:          -8.848
REMARK INTER:                  -8.533
REMARK INTRA:                  -0.315
REMARK UNBOUND:                -0.320
REMARK  2 active torsions:
REMARK  status: ('A' for Active; 'I' for Inactive)
REMARK    1  A    between atoms: C5_4  and  O7_13 
REMARK    2  A    between atoms: C8_10  and  O7_13 
ROOT
HETATM    1  O7    D T 371       2.449  22.923 -23.286  1.00 19.13    -0.304 OA
ENDROOT
BRANCH   1   2
HETATM    2  C5    D T 371       2.751  21.837 -24.065  1.00 24.01     0.125 A 
HETATM    3  C6    D T 371       2.632  21.912 -25.542  1.00 25.08     0.154 A 
HETATM    4  C1    D T 371       2.946  20.793 -26.300  1.00 24.96     0.041 A 
HETATM    5  O17   D T 371       2.221  23.063 -26.144  1.00 32.11    -0.188 OA
HETATM    6  C2    D T 371       3.364  19.624 -25.674  1.00 25.04     0.060 A 
HETATM    7  C3    D T 371       3.476  19.554 -24.288  1.00 27.50     0.014 A 
HETATM    8 CL14   D T 371       3.768  18.183 -26.667  1.00 23.09    -0.082 Cl
HETATM    9  C4    D T 371       3.173  20.650 -23.484  1.00 24.93     0.028 A 
ENDBRANCH   1   2
BRANCH   1  10
HETATM   10  C8    D T 371       3.347  23.951 -23.166  1.00 19.85     0.111 A 
HETATM   11  C9    D T 371       2.978  25.326 -23.586  1.00 17.43     0.081 A 
HETATM   12  C10   D T 371       3.911  26.345 -23.452  1.00 16.58     0.025 A 
HETATM   13 CL16   D T 371       1.348  25.667 -24.258  1.00 28.15    -0.080 Cl
HETATM   14  C11   D T 371       5.172  26.069 -22.930  1.00 19.66     0.059 A 
HETATM   15  C12   D T 371       5.516  24.778 -22.537  1.00 21.08     0.013 A 
HETATM   16 CL15   D T 371       6.370  27.395 -22.761  1.00 21.08    -0.082 Cl
HETATM   17  C13   D T 371       4.616  23.724 -22.651  1.00 20.62     0.026 A 
ENDBRANCH   1  10
TORSDOF 2
ENDMDL
MODEL 3
REMARK VINA RESULT:    -7.568      9.243     11.629
REMARK INTER + INTRA:          -8.773
REMARK INTER:                  -8.306
REMARK INTRA:                  -0.467
REMARK UNBOUND:                -0.320
REMARK  2 active torsions:
REMARK  status: ('A' for Active; 'I' for Inactive)
REMARK    1  A    between atoms: C5_4  and  O7_13 
REMARK    2  A    between atoms: C8_10  and  O7_13 
ROOT
HETATM    1  O7    D T 371       8.031  30.940 -16.474  1.00 19.13    -0.304 OA
ENDROOT
BRANCH   1   2
HETATM    2  C5    D T 371       7.386  30.433 -15.376  1.00 24.01     0.125 A 
HETATM    3  C6    D T 371       6.312  31.208 -14.708  1.00 25.08     0.154 A 
HETATM    4  C1    D T 371       5.680  30.664 -13.598  1.00 24.96     0.041 A 
HETATM    5  O17   D T 371       5.950  32.435 -15.177  1.00 32.11    -0.188 OA
HETATM    6  C2    D T 371       6.057  29.410 -13.128  1.00 25.04     0.060 A 
HETATM    7  C3    D T 371       7.066  28.684 -13.756  1.00 27.50     0.014 A 
HETATM    8 CL14   D T 371       5.231  28.718 -11.692  1.00 23.09    -0.082 Cl
HETATM    9  C4    D T 371       7.729  29.186 -14.872  1.00 24.93     0.028 A 
ENDBRANCH   1   2
BRANCH   1  10
HETATM   10  C8    D T 371       8.143  30.184 -17.611  1.00 19.85     0.111 A 
HETATM   11  C9    D T 371       9.476  29.739 -18.091  1.00 17.43     0.081 A 
HETATM   12  C10   D T 371       9.554  28.974 -19.247  1.00 16.58     0.025 A 
HETATM   13 CL16   D T 371      10.964  30.184 -17.190  1.00 28.15    -0.080 Cl
HETATM   14  C11   D T 371       8.394  28.636 -19.937  1.00 19.66     0.059 A 
HETATM   15  C12   D T 371       7.145  29.055 -19.485  1.00 21.08     0.013 A 
HETATM   16 CL15   D T 371       8.509  27.646 -21.430  1.00 21.08    -0.082 Cl
HETATM   17  C13   D T 371       7.014  29.822 -18.332  1.00 20.62     0.026 A 
ENDBRANCH   1  10
TORSDOF 2
ENDMDL
MODEL 4
REMARK VINA RESULT:    -7.544     10.482     12.285
REMARK INTER + INTRA:          -8.746
REMARK INTER:                  -8.416
REMARK INTRA:                  -0.331
REMARK UNBOUND:                -0.320
REMARK  2 active torsions:
REMARK  status: ('A' for Active; 'I' for Inactive)
REMARK    1  A    between atoms: C5_4  and  O7_13 
REMARK    2  A    between atoms: C8_10  and  O7_13 
ROOT
HETATM    1  O7    D T 371       7.371  30.928 -16.541  1.00 19.13    -0.304 OA
ENDROOT
BRANCH   1   2
HETATM    2  C5    D T 371       7.032  30.404 -15.321  1.00 24.01     0.125 A 
HETATM    3  C6    D T 371       6.208  31.185 -14.367  1.00 25.08     0.154 A 
HETATM    4  C1    D T 371       5.883  30.623 -13.140  1.00 24.96     0.041 A 
HETATM    5  O17   D T 371       5.775  32.435 -14.690  1.00 32.11    -0.188 OA
HETATM    6  C2    D T 371       6.331  29.345 -12.820  1.00 25.04     0.060 A 
HETATM    7  C3    D T 371       7.105  28.613 -13.716  1.00 27.50     0.014 A 
HETATM    8 CL14   D T 371       5.904  28.629 -11.230  1.00 23.09    -0.082 Cl
HETATM    9  C4    D T 371       7.457  29.132 -14.959  1.00 24.93     0.028 A 
ENDBRANCH   1   2
BRANCH   1  10
HETATM   10  C8    D T 371       8.515  30.512 -17.171  1.00 19.85     0.111 A 
HETATM   11  C9    D T 371       8.449  29.521 -18.275  1.00 17.43     0.081 A 
HETATM   12  C10   D T 371       9.626  29.122 -18.892  1.00 16.58     0.025 A 
HETATM   13 CL16   D T 371       6.869  28.851 -18.803  1.00 28.15    -0.080 Cl
HETATM   14  C11   D T 371      10.845  29.648 -18.474  1.00 19.66     0.059 A 
HETATM   15  C12   D T 371      10.904  30.577 -17.438  1.00 21.08     0.013 A 
HETATM   16 CL15   D T 371      12.360  29.123 -19.280  1.00 21.08    -0.082 Cl
HETATM   17  C13   D T 371       9.753  31.009 -16.788  1.00 20.62     0.026 A 
ENDBRANCH   1  10
TORSDOF 2
ENDMDL
MODEL 5
REMARK VINA RESULT:    -7.385      1.264      5.951
REMARK INTER + INTRA:          -8.568
REMARK INTER:                  -8.047
REMARK INTRA:                  -0.521
REMARK UNBOUND:                -0.320
REMARK  2 active torsions:
REMARK  status: ('A' for Active; 'I' for Inactive)
REMARK    1  A    between atoms: C5_4  and  O7_13 
REMARK    2  A    between atoms: C8_10  and  O7_13 
ROOT
HETATM    1  O7    D T 371       2.659  23.158 -22.367  1.00 19.13    -0.304 OA
ENDROOT
BRANCH   1   2
HETATM    2  C5    D T 371       2.891  22.139 -23.254  1.00 24.01     0.125 A 
HETATM    3  C6    D T 371       3.766  21.001 -22.882  1.00 25.08     0.154 A 
HETATM    4  C1    D T 371       3.980  19.986 -23.804  1.00 24.96     0.041 A 
HETATM    5  O17   D T 371       4.350  20.951 -21.652  1.00 32.11    -0.188 OA
HETATM    6  C2    D T 371       3.378  20.047 -25.057  1.00 25.04     0.060 A 
HETATM    7  C3    D T 371       2.557  21.116 -25.406  1.00 27.50     0.014 A 
HETATM    8 CL14   D T 371       3.662  18.727 -26.241  1.00 23.09    -0.082 Cl
HETATM    9  C4    D T 371       2.312  22.158 -24.515  1.00 24.93     0.028 A 
ENDBRANCH   1   2
BRANCH   1  10
HETATM   10  C8    D T 371       3.185  24.402 -22.601  1.00 19.85     0.111 A 
HETATM   11  C9    D T 371       2.327  25.496 -23.121  1.00 17.43     0.081 A 
HETATM   12  C10   D T 371       2.891  26.744 -23.347  1.00 16.58     0.025 A 
HETATM   13 CL16   D T 371       0.586  25.209 -23.453  1.00 28.15    -0.080 Cl
HETATM   14  C11   D T 371       4.242  26.955 -23.086  1.00 19.66     0.059 A 
HETATM   15  C12   D T 371       5.045  25.927 -22.598  1.00 21.08     0.013 A 
HETATM   16 CL15   D T 371       4.959  28.574 -23.381  1.00 21.08    -0.082 Cl
HETATM   17  C13   D T 371       4.526  24.659 -22.355  1.00 20.62     0.026 A 
ENDBRANCH   1  10
TORSDOF 2
ENDMDL
MODEL 6
REMARK VINA RESULT:    -7.375      4.094      6.250
REMARK INTER + INTRA:          -8.558
REMARK INTER:                  -8.370
REMARK INTRA:                  -0.188
REMARK UNBOUND:                -0.320
REMARK  2 active torsions:
REMARK  status: ('A' for Active; 'I' for Inactive)
REMARK    1  A    between atoms: C5_4  and  O7_13 
REMARK    2  A    between atoms: C8_10  and  O7_13 
ROOT
HETATM    1  O7    D T 371       4.156  22.952 -21.505  1.00 19.13    -0.304 OA
ENDROOT
BRANCH   1   2
HETATM    2  C5    D T 371       4.027  22.076 -22.551  1.00 24.01     0.125 A 
HETATM    3  C6    D T 371       2.692  21.780 -23.127  1.00 25.08     0.154 A 
HETATM    4  C1    D T 371       2.598  20.888 -24.186  1.00 24.96     0.041 A 
HETATM    5  O17   D T 371       1.575  22.376 -22.624  1.00 32.11    -0.188 OA
HETATM    6  C2    D T 371       3.745  20.285 -24.691  1.00 25.04     0.060 A 
HETATM    7  C3    D T 371       4.998  20.563 -24.150  1.00 27.50     0.014 A 
HETATM    8 CL14   D T 371       3.611  19.133 -26.062  1.00 23.09    -0.082 Cl
HETATM    9  C4    D T 371       5.144  21.451 -23.088  1.00 24.93     0.028 A 
ENDBRANCH   1   2
BRANCH   1  10
HETATM   10  C8    D T 371       4.460  22.483 -20.254  1.00 19.85     0.111 A 
HETATM   11  C9    D T 371       4.949  23.409 -19.201  1.00 17.43     0.081 A 
HETATM   12  C10   D T 371       5.247  22.902 -17.944  1.00 16.58     0.025 A 
HETATM   13 CL16   D T 371       5.151  25.159 -19.550  1.00 28.15    -0.080 Cl
HETATM   14  C11   D T 371       5.087  21.543 -17.686  1.00 19.66     0.059 A 
HETATM   15  C12   D T 371       4.628  20.677 -18.675  1.00 21.08     0.013 A 
HETATM   16 CL15   D T 371       5.476  20.900 -16.056  1.00 21.08    -0.082 Cl
HETATM   17  C13   D T 371       4.315  21.137 -19.950  1.00 20.62     0.026 A 
ENDBRANCH   1  10
TORSDOF 2
ENDMDL
MODEL 7
REMARK VINA RESULT:    -7.339      1.741      2.149
REMARK INTER + INTRA:          -8.518
REMARK INTER:                  -7.999
REMARK INTRA:                  -0.519
REMARK UNBOUND:                -0.320
REMARK  2 active torsions:
REMARK  status: ('A' for Active; 'I' for Inactive)
REMARK    1  A    between atoms: C5_4  and  O7_13 
REMARK    2  A    between atoms: C8_10  and  O7_13 
ROOT
HETATM    1  O7    D T 371       2.803  23.560 -22.626  1.00 19.13    -0.304 OA
ENDROOT
BRANCH   1   2
HETATM    2  C5    D T 371       3.628  24.648 -22.743  1.00 24.01     0.125 A 
HETATM    3  C6    D T 371       3.140  25.902 -23.368  1.00 25.08     0.154 A 
HETATM    4  C1    D T 371       4.003  26.984 -23.470  1.00 24.96     0.041 A 
HETATM    5  O17   D T 371       1.863  25.990 -23.834  1.00 32.11    -0.188 OA
HETATM    6  C2    D T 371       5.305  26.883 -22.991  1.00 25.04     0.060 A 
HETATM    7  C3    D T 371       5.762  25.705 -22.405  1.00 27.50     0.014 A 
HETATM    8 CL14   D T 371       6.412  28.290 -23.129  1.00 23.09    -0.082 Cl
HETATM    9  C4    D T 371       4.935  24.593 -22.278  1.00 24.93     0.028 A 
ENDBRANCH   1   2
BRANCH   1  10
HETATM   10  C8    D T 371       2.990  22.469 -23.433  1.00 19.85     0.111 A 
HETATM   11  C9    D T 371       3.661  21.252 -22.911  1.00 17.43     0.081 A 
HETATM   12  C10   D T 371       3.834  20.164 -23.755  1.00 16.58     0.025 A 
HETATM   13 CL16   D T 371       4.239  21.189 -21.212  1.00 28.15    -0.080 Cl
HETATM   14  C11   D T 371       3.382  20.224 -25.070  1.00 19.66     0.059 A 
HETATM   15  C12   D T 371       2.753  21.367 -25.558  1.00 21.08     0.013 A 
HETATM   16 CL15   D T 371       3.612  18.810 -26.152  1.00 21.08    -0.082 Cl
HETATM   17  C13   D T 371       2.555  22.483 -24.751  1.00 20.62     0.026 A 
ENDBRANCH   1  10
TORSDOF 2
ENDMDL
MODEL 8
REMARK VINA RESULT:    -7.296      2.637      6.260
REMARK INTER + INTRA:          -8.469
REMARK INTER:                  -7.947
REMARK INTRA:                  -0.523
REMARK UNBOUND:                -0.320
REMARK  2 active torsions:
REMARK  status: ('A' for Active; 'I' for Inactive)
REMARK    1  A    between atoms: C5_4  and  O7_13 
REMARK    2  A    between atoms: C8_10  and  O7_13 
ROOT
HETATM    1  O7    D T 371       5.191  23.880 -23.146  1.00 19.13    -0.304 OA
ENDROOT
BRANCH   1   2
HETATM    2  C5    D T 371       4.819  22.750 -23.826  1.00 24.01     0.125 A 
HETATM    3  C6    D T 371       4.886  22.706 -25.308  1.00 25.08     0.154 A 
HETATM    4  C1    D T 371       4.502  21.545 -25.964  1.00 24.96     0.041 A 
HETATM    5  O17   D T 371       5.320  23.787 -26.013  1.00 32.11    -0.188 OA
HETATM    6  C2    D T 371       4.060  20.446 -25.234  1.00 25.04     0.060 A 
HETATM    7  C3    D T 371       3.997  20.490 -23.843  1.00 27.50     0.014 A 
HETATM    8 CL14   D T 371       3.566  18.950 -26.095  1.00 23.09    -0.082 Cl
HETATM    9  C4    D T 371       4.373  21.630 -23.139  1.00 24.93     0.028 A 
ENDBRANCH   1   2
BRANCH   1  10
HETATM   10  C8    D T 371       4.234  24.718 -22.635  1.00 19.85     0.111 A 
HETATM   11  C9    D T 371       3.934  24.719 -21.181  1.00 17.43     0.081 A 
HETATM   12  C10   D T 371       2.959  25.580 -20.696  1.00 16.58     0.025 A 
HETATM   13 CL16   D T 371       4.818  23.623 -20.067  1.00 28.15    -0.080 Cl
HETATM   14  C11   D T 371       2.280  26.425 -21.569  1.00 19.66     0.059 A 
HETATM   15  C12   D T 371       2.563  26.422 -22.933  1.00 21.08     0.013 A 
HETATM   16 CL15   D T 371       1.021  27.534 -20.930  1.00 21.08    -0.082 Cl
HETATM   17  C13   D T 371       3.532  25.578 -23.467  1.00 20.62     0.026 A 
ENDBRANCH   1  10
TORSDOF 2
ENDMDL
MODEL 9
REMARK VINA RESULT:    -7.201      2.085      2.303
REMARK INTER + INTRA:          -8.363
REMARK INTER:                  -7.896
REMARK INTRA:                  -0.467
REMARK UNBOUND:                -0.320
REMARK  2 active torsions:
REMARK  status: ('A' for Active; 'I' for Inactive)
REMARK    1  A    between atoms: C5_4  and  O7_13 
REMARK    2  A    between atoms: C8_10  and  O7_13 
ROOT
HETATM    1  O7    D T 371       2.956  24.894 -24.083  1.00 19.13    -0.304 OA
ENDROOT
BRANCH   1   2
HETATM    2  C5    D T 371       3.553  25.566 -23.048  1.00 24.01     0.125 A 
HETATM    3  C6    D T 371       2.744  26.078 -21.915  1.00 25.08     0.154 A 
HETATM    4  C1    D T 371       3.381  26.754 -20.884  1.00 24.96     0.041 A 
HETATM    5  O17   D T 371       1.395  25.888 -21.887  1.00 32.11    -0.188 OA
HETATM    6  C2    D T 371       4.759  26.943 -20.923  1.00 25.04     0.060 A 
HETATM    7  C3    D T 371       5.517  26.462 -21.987  1.00 27.50     0.014 A 
HETATM    8 CL14   D T 371       5.571  27.819 -19.582  1.00 23.09    -0.082 Cl
HETATM    9  C4    D T 371       4.925  25.777 -23.044  1.00 24.93     0.028 A 
ENDBRANCH   1   2
BRANCH   1  10
HETATM   10  C8    D T 371       3.038  23.528 -24.149  1.00 19.85     0.111 A 
HETATM   11  C9    D T 371       4.064  22.875 -25.001  1.00 17.43     0.081 A 
HETATM   12  C10   D T 371       4.120  21.489 -25.045  1.00 16.58     0.025 A 
HETATM   13 CL16   D T 371       5.217  23.865 -25.958  1.00 28.15    -0.080 Cl
HETATM   14  C11   D T 371       3.221  20.732 -24.299  1.00 19.66     0.059 A 
HETATM   15  C12   D T 371       2.259  21.347 -23.501  1.00 21.08     0.013 A 
HETATM   16 CL15   D T 371       3.303  18.940 -24.365  1.00 21.08    -0.082 Cl
HETATM   17  C13   D T 371       2.163  22.732 -23.423  1.00 20.62     0.026 A 
ENDBRANCH   1  10
TORSDOF 2
ENDMDL
