MODEL 1
REMARK VINA RESULT:    -9.235      0.000      0.000
REMARK INTER + INTRA:         -14.035
REMARK INTER:                 -13.014
REMARK INTRA:                  -1.021
REMARK UNBOUND:                -1.021
REMARK  7 active torsions:
REMARK  status: ('A' for Active; 'I' for Inactive)
REMARK    1  A    between atoms: N3_2  and  C20_12 
REMARK    2  A    between atoms: C4_3  and  C5_4 
REMARK    3  A    between atoms: C13_9  and  N2_29 
REMARK    4  A    between atoms: C17_11  and  C19_33 
REMARK    5  A    between atoms: C20_12  and  C16_31 
REMARK    6  A    between atoms: C2_23  and  C3_24 
REMARK    7  A    between atoms: C9_25  and  C12_27 
REMARK       I    between atoms: C12_27  and  N2_29 
ROOT
HETATM    1  C12   D T   1       2.608   8.064   7.159  1.00  8.81     0.275 C 
HETATM    2  O1    D T   1       3.315   8.911   7.717  1.00 13.93    -0.266 OA
HETATM    3  N2    D T   1       2.201   8.144   5.860  1.00 10.31    -0.208 NA
ENDROOT
BRANCH   1   4
HETATM    4  C9    D T   1       2.156   6.877   7.929  1.00 12.21     0.037 A 
HETATM    5  C8    D T   1       0.810   6.341   7.845  1.00 10.40     0.036 A 
HETATM    6  C7    D T   1       0.455   5.167   8.635  1.00  7.63     0.028 A 
HETATM    7  C6    D T   1       1.421   4.552   9.477  1.00  7.91    -0.036 A 
HETATM    8  C5    D T   1       2.763   5.100   9.550  1.00 10.18     0.034 A 
HETATM    9  C11   D T   1       1.017   3.311  10.287  1.00  9.41     0.027 C 
HETATM   10  C10   D T   1       3.112   6.236   8.787  1.00 11.17     0.008 A 
BRANCH   8  11
HETATM   11  C4    D T   1       3.808   4.524  10.382  1.00 10.71    -0.059 C 
HETATM   12  C3    D T   1       4.714   4.044  11.006  1.00 12.15    -0.039 C 
BRANCH  12  13
HETATM   13  C2    D T   1       5.809   3.489  11.683  1.00 14.46     0.145 A 
HETATM   14  N82   D T   1       7.122   3.649  11.348  1.00 14.03    -0.203 N 
HETATM   15  N81   D T   1       7.624   4.370  10.298  1.00 15.71    -0.162 NA
HETATM   16  C84   D T   1       7.841   2.893  12.329  1.00 14.58     0.165 A 
HETATM   17  C83   D T   1       8.964   4.330  10.230  1.00 17.09     0.121 A 
HETATM   18  C82   D T   1       9.821   3.622  11.135  1.00 16.91     0.026 A 
HETATM   19  C81   D T   1       9.254   2.904  12.187  1.00 15.47     0.041 A 
HETATM   20  N1    D T   1       7.011   2.322  13.191  1.00 17.79    -0.223 NA
HETATM   21  C1    D T   1       5.738   2.693  12.784  1.00 15.62     0.128 A 
ENDBRANCH  12  13
ENDBRANCH   8  11
ENDBRANCH   1   4
BRANCH   3  22
HETATM   22  C13   D T   1       2.789   8.958   4.841  1.00  8.39     0.085 A 
HETATM   23  C14   D T   1       2.085  10.113   4.435  1.00 14.59     0.019 A 
HETATM   24  C15   D T   1       2.619  10.968   3.428  1.00 11.91    -0.001 A 
HETATM   25  C16   D T   1       3.868  10.691   2.807  1.00 12.96     0.015 A 
HETATM   26  C17   D T   1       4.608   9.502   3.211  1.00 14.62     0.071 A 
HETATM   27  C18   D T   1       4.049   8.659   4.225  1.00 11.52     0.023 A 
BRANCH  25  28
HETATM   28  C20   D T   1       4.370  11.674   1.739  1.00 11.54     0.277 C 
BRANCH  28  29
HETATM   29  N3    D T   1       3.392  11.944   0.704  1.00 12.77     0.146 N 
HETATM   30  C21   D T   1       3.889  12.807  -0.394  1.00  9.68     0.286 C 
HETATM   31  C22   D T   1       2.733  13.157  -1.367  1.00 12.27     0.286 C 
HETATM   32  N4    D T   1       2.082  11.929  -1.900  1.00 14.63     0.143 N 
HETATM   33  C23   D T   1       1.684  10.986  -0.811  1.00 13.23     0.286 C 
HETATM   34  C25   D T   1       0.934  12.275  -2.746  1.00 14.49     0.285 C 
HETATM   35  C24   D T   1       2.862  10.675   0.136  1.00 15.42     0.286 C 
ENDBRANCH  28  29
ENDBRANCH  25  28
BRANCH  26  36
HETATM   36  C19   D T   1       5.952   9.125   2.607  1.00 14.58     0.419 C 
HETATM   37  F1    D T   1       6.340   7.955   3.090  1.00 18.20    -0.166 F 
HETATM   38  F2    D T   1       5.893   8.996   1.286  1.00 18.68    -0.166 F 
HETATM   39  F3    D T   1       6.859  10.085   2.894  1.00 14.12    -0.166 F 
ENDBRANCH  26  36
ENDBRANCH   3  22
TORSDOF 7
ENDMDL
MODEL 2
REMARK VINA RESULT:    -9.137      3.660      6.444
REMARK INTER + INTRA:         -13.897
REMARK INTER:                 -12.706
REMARK INTRA:                  -1.191
REMARK UNBOUND:                -1.021
REMARK  7 active torsions:
REMARK  status: ('A' for Active; 'I' for Inactive)
REMARK    1  A    between atoms: N3_2  and  C20_12 
REMARK    2  A    between atoms: C4_3  and  C5_4 
REMARK    3  A    between atoms: C13_9  and  N2_29 
REMARK    4  A    between atoms: C17_11  and  C19_33 
REMARK    5  A    between atoms: C20_12  and  C16_31 
REMARK    6  A    between atoms: C2_23  and  C3_24 
REMARK    7  A    between atoms: C9_25  and  C12_27 
REMARK       I    between atoms: C12_27  and  N2_29 
ROOT
HETATM    1  C12   D T   1       2.976  10.822   2.696  1.00  8.81     0.275 C 
HETATM    2  O1    D T   1       2.139  11.682   2.995  1.00 13.93    -0.266 OA
HETATM    3  N2    D T   1       3.249  10.432   1.418  1.00 10.31    -0.208 NA
ENDROOT
BRANCH   1   4
HETATM    4  C9    D T   1       3.742  10.150   3.776  1.00 12.21     0.037 A 
HETATM    5  C8    D T   1       5.162  10.362   3.994  1.00 10.40     0.036 A 
HETATM    6  C7    D T   1       5.833   9.663   5.085  1.00  7.63     0.028 A 
HETATM    7  C6    D T   1       5.101   8.783   5.928  1.00  7.91    -0.036 A 
HETATM    8  C5    D T   1       3.683   8.581   5.698  1.00 10.18     0.034 A 
HETATM    9  C11   D T   1       5.837   8.070   7.073  1.00  9.41     0.027 C 
HETATM   10  C10   D T   1       3.028   9.256   4.643  1.00 11.17     0.008 A 
BRANCH   8  11
HETATM   11  C4    D T   1       2.865   7.704   6.520  1.00 10.71    -0.059 C 
HETATM   12  C3    D T   1       2.243   6.926   7.191  1.00 12.15    -0.039 C 
BRANCH  12  13
HETATM   13  C2    D T   1       1.568   5.979   7.971  1.00 14.46     0.145 A 
HETATM   14  N82   D T   1       2.119   5.213   8.958  1.00 14.03    -0.203 N 
HETATM   15  N81   D T   1       3.424   5.218   9.373  1.00 15.71    -0.162 NA
HETATM   16  C84   D T   1       1.036   4.413   9.444  1.00 14.58     0.165 A 
HETATM   17  C83   D T   1       3.659   4.344  10.365  1.00 17.09     0.121 A 
HETATM   18  C82   D T   1       2.682   3.478  10.958  1.00 16.91     0.026 A 
HETATM   19  C81   D T   1       1.369   3.516  10.494  1.00 15.47     0.041 A 
HETATM   20  N1    D T   1      -0.086   4.684   8.791  1.00 17.79    -0.223 NA
HETATM   21  C1    D T   1       0.249   5.662   7.866  1.00 15.62     0.128 A 
ENDBRANCH  12  13
ENDBRANCH   8  11
ENDBRANCH   1   4
BRANCH   3  22
HETATM   22  C13   D T   1       2.935  11.163   0.228  1.00  8.39     0.085 A 
HETATM   23  C14   D T   1       3.875  12.115  -0.226  1.00 14.59     0.019 A 
HETATM   24  C15   D T   1       3.625  12.872  -1.406  1.00 11.91    -0.001 A 
HETATM   25  C16   D T   1       2.433  12.693  -2.161  1.00 12.96     0.015 A 
HETATM   26  C17   D T   1       1.450  11.717  -1.707  1.00 14.62     0.071 A 
HETATM   27  C18   D T   1       1.726  10.970  -0.517  1.00 11.52     0.023 A 
BRANCH  25  28
HETATM   28  C20   D T   1       2.252  13.546  -3.426  1.00 11.54     0.277 C 
BRANCH  28  29
HETATM   29  N3    D T   1       1.891  14.921  -3.143  1.00 12.77     0.146 N 
HETATM   30  C21   D T   1       2.901  15.917  -3.575  1.00  9.68     0.286 C 
HETATM   31  C22   D T   1       2.493  17.335  -3.098  1.00 12.27     0.286 C 
HETATM   32  N4    D T   1       1.134  17.701  -3.583  1.00 14.63     0.143 N 
HETATM   33  C23   D T   1       0.122  16.648  -3.267  1.00 13.23     0.286 C 
HETATM   34  C25   D T   1       0.725  19.005  -3.050  1.00 14.49     0.285 C 
HETATM   35  C24   D T   1       0.574  15.255  -3.751  1.00 15.42     0.286 C 
ENDBRANCH  28  29
ENDBRANCH  25  28
BRANCH  26  36
HETATM   36  C19   D T   1       0.149  11.455  -2.450  1.00 14.58     0.419 C 
HETATM   37  F1    D T   1       0.410  11.206  -3.724  1.00 18.20    -0.166 F 
HETATM   38  F2    D T   1      -0.499  10.397  -1.975  1.00 18.68    -0.166 F 
HETATM   39  F3    D T   1      -0.662  12.530  -2.330  1.00 14.12    -0.166 F 
ENDBRANCH  26  36
ENDBRANCH   3  22
TORSDOF 7
ENDMDL
MODEL 3
REMARK VINA RESULT:    -9.108      2.785      3.918
REMARK INTER + INTRA:         -13.856
REMARK INTER:                 -12.733
REMARK INTRA:                  -1.122
REMARK UNBOUND:                -1.021
REMARK  7 active torsions:
REMARK  status: ('A' for Active; 'I' for Inactive)
REMARK    1  A    between atoms: N3_2  and  C20_12 
REMARK    2  A    between atoms: C4_3  and  C5_4 
REMARK    3  A    between atoms: C13_9  and  N2_29 
REMARK    4  A    between atoms: C17_11  and  C19_33 
REMARK    5  A    between atoms: C20_12  and  C16_31 
REMARK    6  A    between atoms: C2_23  and  C3_24 
REMARK    7  A    between atoms: C9_25  and  C12_27 
REMARK       I    between atoms: C12_27  and  N2_29 
ROOT
HETATM    1  C12   D T   1       1.375   9.342   5.070  1.00  8.81     0.275 C 
HETATM    2  O1    D T   1       1.087  10.458   5.516  1.00 13.93    -0.266 OA
HETATM    3  N2    D T   1       2.222   9.132   4.021  1.00 10.31    -0.208 NA
ENDROOT
BRANCH   1   4
HETATM    4  C9    D T   1       0.772   8.135   5.691  1.00 12.21     0.037 A 
HETATM    5  C8    D T   1      -0.529   7.613   5.314  1.00 10.40     0.036 A 
HETATM    6  C7    D T   1      -1.041   6.417   5.976  1.00  7.63     0.028 A 
HETATM    7  C6    D T   1      -0.271   5.769   6.979  1.00  7.91    -0.036 A 
HETATM    8  C5    D T   1       1.028   6.303   7.345  1.00 10.18     0.034 A 
HETATM    9  C11   D T   1      -0.836   4.507   7.648  1.00  9.41     0.027 C 
HETATM   10  C10   D T   1       1.528   7.460   6.707  1.00 11.17     0.008 A 
BRANCH   8  11
HETATM   11  C4    D T   1       1.878   5.693   8.356  1.00 10.71    -0.059 C 
HETATM   12  C3    D T   1       2.634   5.186   9.138  1.00 12.15    -0.039 C 
BRANCH  12  13
HETATM   13  C2    D T   1       3.563   4.599  10.006  1.00 14.46     0.145 A 
HETATM   14  N82   D T   1       4.922   4.664   9.890  1.00 14.03    -0.203 N 
HETATM   15  N81   D T   1       5.636   5.304   8.912  1.00 15.71    -0.162 NA
HETATM   16  C84   D T   1       5.418   3.914  11.003  1.00 14.58     0.165 A 
HETATM   17  C83   D T   1       6.963   5.181   9.069  1.00 17.09     0.121 A 
HETATM   18  C82   D T   1       7.611   4.467  10.130  1.00 16.91     0.026 A 
HETATM   19  C81   D T   1       6.834   3.833  11.097  1.00 15.47     0.041 A 
HETATM   20  N1    D T   1       4.422   3.434  11.735  1.00 17.79    -0.223 NA
HETATM   21  C1    D T   1       3.261   3.861  11.108  1.00 15.62     0.128 A 
ENDBRANCH  12  13
ENDBRANCH   8  11
ENDBRANCH   1   4
BRANCH   3  22
HETATM   22  C13   D T   1       3.186  10.063   3.518  1.00  8.39     0.085 A 
HETATM   23  C14   D T   1       2.705  11.223   2.874  1.00 14.59     0.019 A 
HETATM   24  C15   D T   1       3.612  12.192   2.355  1.00 11.91    -0.001 A 
HETATM   25  C16   D T   1       5.020  12.023   2.471  1.00 12.96     0.015 A 
HETATM   26  C17   D T   1       5.535  10.831   3.131  1.00 14.62     0.071 A 
HETATM   27  C18   D T   1       4.602   9.873   3.643  1.00 11.52     0.023 A 
BRANCH  25  28
HETATM   28  C20   D T   1       5.922  13.123   1.892  1.00 11.54     0.277 C 
BRANCH  28  29
HETATM   29  N3    D T   1       5.707  14.421   2.500  1.00 12.77     0.146 N 
HETATM   30  C21   D T   1       6.293  14.564   3.854  1.00  9.68     0.286 C 
HETATM   31  C22   D T   1       5.884  15.925   4.475  1.00 12.27     0.286 C 
HETATM   32  N4    D T   1       6.274  17.062   3.597  1.00 14.63     0.143 N 
HETATM   33  C23   D T   1       5.798  16.876   2.192  1.00 13.23     0.286 C 
HETATM   34  C25   D T   1       5.801  18.334   4.152  1.00 14.49     0.285 C 
HETATM   35  C24   D T   1       6.220  15.506   1.620  1.00 15.42     0.286 C 
ENDBRANCH  28  29
ENDBRANCH  25  28
BRANCH  26  36
HETATM   36  C19   D T   1       7.023  10.565   3.304  1.00 14.58     0.419 C 
HETATM   37  F1    D T   1       7.196   9.401   3.910  1.00 18.20    -0.166 F 
HETATM   38  F2    D T   1       7.662  10.493   2.142  1.00 18.68    -0.166 F 
HETATM   39  F3    D T   1       7.577  11.566   4.025  1.00 14.12    -0.166 F 
ENDBRANCH  26  36
ENDBRANCH   3  22
TORSDOF 7
ENDMDL
MODEL 4
REMARK VINA RESULT:    -9.031      2.292      3.537
REMARK INTER + INTRA:         -13.747
REMARK INTER:                 -12.533
REMARK INTRA:                  -1.214
REMARK UNBOUND:                -1.021
REMARK  7 active torsions:
REMARK  status: ('A' for Active; 'I' for Inactive)
REMARK    1  A    between atoms: N3_2  and  C20_12 
REMARK    2  A    between atoms: C4_3  and  C5_4 
REMARK    3  A    between atoms: C13_9  and  N2_29 
REMARK    4  A    between atoms: C17_11  and  C19_33 
REMARK    5  A    between atoms: C20_12  and  C16_31 
REMARK    6  A    between atoms: C2_23  and  C3_24 
REMARK    7  A    between atoms: C9_25  and  C12_27 
REMARK       I    between atoms: C12_27  and  N2_29 
ROOT
HETATM    1  C12   D T   1       2.844   7.931   7.008  1.00  8.81     0.275 C 
HETATM    2  O1    D T   1       3.531   8.830   7.505  1.00 13.93    -0.266 OA
HETATM    3  N2    D T   1       2.506   7.867   5.688  1.00 10.31    -0.208 NA
ENDROOT
BRANCH   1   4
HETATM    4  C9    D T   1       2.335   6.841   7.880  1.00 12.21     0.037 A 
HETATM    5  C8    D T   1       0.949   6.411   7.890  1.00 10.40     0.036 A 
HETATM    6  C7    D T   1       0.540   5.328   8.778  1.00  7.63     0.028 A 
HETATM    7  C6    D T   1       1.493   4.698   9.623  1.00  7.91    -0.036 A 
HETATM    8  C5    D T   1       2.875   5.138   9.602  1.00 10.18     0.034 A 
HETATM    9  C11   D T   1       1.030   3.553  10.538  1.00  9.41     0.027 C 
HETATM   10  C10   D T   1       3.276   6.186   8.744  1.00 11.17     0.008 A 
BRANCH   8  11
HETATM   11  C4    D T   1       3.909   4.539  10.431  1.00 10.71    -0.059 C 
HETATM   12  C3    D T   1       4.804   4.036  11.053  1.00 12.15    -0.039 C 
BRANCH  12  13
HETATM   13  C2    D T   1       5.885   3.450  11.726  1.00 14.46     0.145 A 
HETATM   14  N82   D T   1       7.202   3.584  11.395  1.00 14.03    -0.203 N 
HETATM   15  N81   D T   1       7.722   4.305  10.353  1.00 15.71    -0.162 NA
HETATM   16  C84   D T   1       7.902   2.803  12.369  1.00 14.58     0.165 A 
HETATM   17  C83   D T   1       9.060   4.236  10.286  1.00 17.09     0.121 A 
HETATM   18  C82   D T   1       9.900   3.501  11.186  1.00 16.91     0.026 A 
HETATM   19  C81   D T   1       9.316   2.784  12.229  1.00 15.47     0.041 A 
HETATM   20  N1    D T   1       7.059   2.242  13.224  1.00 17.79    -0.223 NA
HETATM   21  C1    D T   1       5.795   2.644  12.818  1.00 15.62     0.128 A 
ENDBRANCH  12  13
ENDBRANCH   8  11
ENDBRANCH   1   4
BRANCH   3  22
HETATM   22  C13   D T   1       3.158   8.557   4.617  1.00  8.39     0.085 A 
HETATM   23  C14   D T   1       4.356   8.005   4.114  1.00 14.59     0.019 A 
HETATM   24  C15   D T   1       5.052   8.640   3.044  1.00 11.91    -0.001 A 
HETATM   25  C16   D T   1       4.563   9.838   2.452  1.00 12.96     0.015 A 
HETATM   26  C17   D T   1       3.329  10.423   2.960  1.00 14.62     0.071 A 
HETATM   27  C18   D T   1       2.651   9.765   4.036  1.00 11.52     0.023 A 
BRANCH  25  28
HETATM   28  C20   D T   1       5.373  10.447   1.298  1.00 11.54     0.277 C 
BRANCH  28  29
HETATM   29  N3    D T   1       6.771  10.652   1.624  1.00 12.77     0.146 N 
HETATM   30  C21   D T   1       7.682  10.605   0.455  1.00  9.68     0.286 C 
HETATM   31  C22   D T   1       9.158  10.686   0.923  1.00 12.27     0.286 C 
HETATM   32  N4    D T   1       9.401  11.902   1.746  1.00 14.63     0.143 N 
HETATM   33  C23   D T   1       8.412  12.035   2.859  1.00 13.23     0.286 C 
HETATM   34  C25   D T   1      10.776  11.919   2.257  1.00 14.49     0.285 C 
HETATM   35  C24   D T   1       6.959  11.939   2.348  1.00 15.42     0.286 C 
ENDBRANCH  28  29
ENDBRANCH  25  28
BRANCH  26  36
HETATM   36  C19   D T   1       2.729  11.699   2.390  1.00 14.58     0.419 C 
HETATM   37  F1    D T   1       2.379  11.496   1.129  1.00 18.20    -0.166 F 
HETATM   38  F2    D T   1       1.632  12.076   3.038  1.00 18.68    -0.166 F 
HETATM   39  F3    D T   1       3.633  12.700   2.479  1.00 14.12    -0.166 F 
ENDBRANCH  26  36
ENDBRANCH   3  22
TORSDOF 7
ENDMDL
MODEL 5
REMARK VINA RESULT:    -9.008      2.683      3.828
REMARK INTER + INTRA:         -13.716
REMARK INTER:                 -12.538
REMARK INTRA:                  -1.177
REMARK UNBOUND:                -1.021
REMARK  7 active torsions:
REMARK  status: ('A' for Active; 'I' for Inactive)
REMARK    1  A    between atoms: N3_2  and  C20_12 
REMARK    2  A    between atoms: C4_3  and  C5_4 
REMARK    3  A    between atoms: C13_9  and  N2_29 
REMARK    4  A    between atoms: C17_11  and  C19_33 
REMARK    5  A    between atoms: C20_12  and  C16_31 
REMARK    6  A    between atoms: C2_23  and  C3_24 
REMARK    7  A    between atoms: C9_25  and  C12_27 
REMARK       I    between atoms: C12_27  and  N2_29 
ROOT
HETATM    1  C12   D T   1       1.170   8.968   5.163  1.00  8.81     0.275 C 
HETATM    2  O1    D T   1       0.839  10.127   5.438  1.00 13.93    -0.266 OA
HETATM    3  N2    D T   1       2.061   8.638   4.184  1.00 10.31    -0.208 NA
ENDROOT
BRANCH   1   4
HETATM    4  C9    D T   1       0.572   7.843   5.926  1.00 12.21     0.037 A 
HETATM    5  C8    D T   1      -0.799   7.399   5.747  1.00 10.40     0.036 A 
HETATM    6  C7    D T   1      -1.300   6.281   6.538  1.00  7.63     0.028 A 
HETATM    7  C6    D T   1      -0.453   5.631   7.476  1.00  7.91    -0.036 A 
HETATM    8  C5    D T   1       0.915   6.086   7.644  1.00 10.18     0.034 A 
HETATM    9  C11   D T   1      -1.011   4.450   8.286  1.00  9.41     0.027 C 
HETATM   10  C10   D T   1       1.405   7.168   6.880  1.00 11.17     0.008 A 
BRANCH   8  11
HETATM   11  C4    D T   1       1.844   5.468   8.577  1.00 10.71    -0.059 C 
HETATM   12  C3    D T   1       2.667   5.001   9.316  1.00 12.15    -0.039 C 
BRANCH  12  13
HETATM   13  C2    D T   1       3.669   4.496  10.155  1.00 14.46     0.145 A 
HETATM   14  N82   D T   1       5.015   4.605   9.951  1.00 14.03    -0.203 N 
HETATM   15  N81   D T   1       5.642   5.218   8.899  1.00 15.71    -0.162 NA
HETATM   16  C84   D T   1       5.607   3.935  11.068  1.00 14.58     0.165 A 
HETATM   17  C83   D T   1       6.980   5.153   8.980  1.00 17.09     0.121 A 
HETATM   18  C82   D T   1       7.720   4.522  10.034  1.00 16.91     0.026 A 
HETATM   19  C81   D T   1       7.027   3.913  11.079  1.00 15.47     0.041 A 
HETATM   20  N1    D T   1       4.677   3.459  11.885  1.00 17.79    -0.223 NA
HETATM   21  C1    D T   1       3.464   3.808  11.310  1.00 15.62     0.128 A 
ENDBRANCH  12  13
ENDBRANCH   8  11
ENDBRANCH   1   4
BRANCH   3  22
HETATM   22  C13   D T   1       3.021   9.516   3.588  1.00  8.39     0.085 A 
HETATM   23  C14   D T   1       4.136   9.896   4.367  1.00 14.59     0.019 A 
HETATM   24  C15   D T   1       5.131  10.763   3.830  1.00 11.91    -0.001 A 
HETATM   25  C16   D T   1       5.036  11.268   2.504  1.00 12.96     0.015 A 
HETATM   26  C17   D T   1       3.891  10.889   1.686  1.00 14.62     0.071 A 
HETATM   27  C18   D T   1       2.905  10.016   2.249  1.00 11.52     0.023 A 
BRANCH  25  28
HETATM   28  C20   D T   1       6.160  12.189   2.006  1.00 11.54     0.277 C 
BRANCH  28  29
HETATM   29  N3    D T   1       5.874  13.597   2.199  1.00 12.77     0.146 N 
HETATM   30  C21   D T   1       6.451  14.171   3.439  1.00  9.68     0.286 C 
HETATM   31  C22   D T   1       5.968  15.633   3.628  1.00 12.27     0.286 C 
HETATM   32  N4    D T   1       6.299  16.471   2.442  1.00 14.63     0.143 N 
HETATM   33  C23   D T   1       5.835  15.847   1.166  1.00 13.23     0.286 C 
HETATM   34  C25   D T   1       5.757  17.825   2.596  1.00 14.49     0.285 C 
HETATM   35  C24   D T   1       6.330  14.392   1.026  1.00 15.42     0.286 C 
ENDBRANCH  28  29
ENDBRANCH  25  28
BRANCH  26  36
HETATM   36  C19   D T   1       3.704  11.376   0.257  1.00 14.58     0.419 C 
HETATM   37  F1    D T   1       3.203  12.602   0.270  1.00 18.20    -0.166 F 
HETATM   38  F2    D T   1       4.851  11.437  -0.410  1.00 18.68    -0.166 F 
HETATM   39  F3    D T   1       2.881  10.530  -0.402  1.00 14.12    -0.166 F 
ENDBRANCH  26  36
ENDBRANCH   3  22
TORSDOF 7
ENDMDL
MODEL 6
REMARK VINA RESULT:    -8.971      3.506      6.488
REMARK INTER + INTRA:         -13.663
REMARK INTER:                 -12.568
REMARK INTRA:                  -1.094
REMARK UNBOUND:                -1.021
REMARK  7 active torsions:
REMARK  status: ('A' for Active; 'I' for Inactive)
REMARK    1  A    between atoms: N3_2  and  C20_12 
REMARK    2  A    between atoms: C4_3  and  C5_4 
REMARK    3  A    between atoms: C13_9  and  N2_29 
REMARK    4  A    between atoms: C17_11  and  C19_33 
REMARK    5  A    between atoms: C20_12  and  C16_31 
REMARK    6  A    between atoms: C2_23  and  C3_24 
REMARK    7  A    between atoms: C9_25  and  C12_27 
REMARK       I    between atoms: C12_27  and  N2_29 
ROOT
HETATM    1  C12   D T   1       3.496  10.570   2.492  1.00  8.81     0.275 C 
HETATM    2  O1    D T   1       2.814  11.460   3.013  1.00 13.93    -0.266 OA
HETATM    3  N2    D T   1       3.496  10.287   1.158  1.00 10.31    -0.208 NA
ENDROOT
BRANCH   1   4
HETATM    4  C9    D T   1       4.378   9.738   3.351  1.00 12.21     0.037 A 
HETATM    5  C8    D T   1       5.823   9.714   3.219  1.00 10.40     0.036 A 
HETATM    6  C7    D T   1       6.610   8.868   4.110  1.00  7.63     0.028 A 
HETATM    7  C6    D T   1       5.967   8.078   5.100  1.00  7.91    -0.036 A 
HETATM    8  C5    D T   1       4.521   8.113   5.220  1.00 10.18     0.034 A 
HETATM    9  C11   D T   1       6.827   7.206   6.028  1.00  9.41     0.027 C 
HETATM   10  C10   D T   1       3.754   8.929   4.360  1.00 11.17     0.008 A 
BRANCH   8  11
HETATM   11  C4    D T   1       3.790   7.338   6.211  1.00 10.71    -0.059 C 
HETATM   12  C3    D T   1       3.123   6.728   7.000  1.00 12.15    -0.039 C 
BRANCH  12  13
HETATM   13  C2    D T   1       2.292   6.035   7.890  1.00 14.46     0.145 A 
HETATM   14  N82   D T   1       2.705   5.203   8.890  1.00 14.03    -0.203 N 
HETATM   15  N81   D T   1       3.997   4.883   9.216  1.00 15.71    -0.162 NA
HETATM   16  C84   D T   1       1.496   4.745   9.504  1.00 14.58     0.165 A 
HETATM   17  C83   D T   1       4.078   4.031  10.249  1.00 17.09     0.121 A 
HETATM   18  C82   D T   1       2.963   3.487  10.968  1.00 16.91     0.026 A 
HETATM   19  C81   D T   1       1.671   3.847  10.592  1.00 15.47     0.041 A 
HETATM   20  N1    D T   1       0.433   5.269   8.910  1.00 17.79    -0.223 NA
HETATM   21  C1    D T   1       0.932   6.074   7.897  1.00 15.62     0.128 A 
ENDBRANCH  12  13
ENDBRANCH   8  11
ENDBRANCH   1   4
BRANCH   3  22
HETATM   22  C13   D T   1       3.043  11.154   0.113  1.00  8.39     0.085 A 
HETATM   23  C14   D T   1       3.817  12.300  -0.171  1.00 14.59     0.019 A 
HETATM   24  C15   D T   1       3.425  13.200  -1.203  1.00 11.91    -0.001 A 
HETATM   25  C16   D T   1       2.253  12.973  -1.977  1.00 12.96     0.015 A 
HETATM   26  C17   D T   1       1.440  11.796  -1.697  1.00 14.62     0.071 A 
HETATM   27  C18   D T   1       1.857  10.908  -0.654  1.00 11.52     0.023 A 
BRANCH  25  28
HETATM   28  C20   D T   1       1.912  13.991  -3.076  1.00 11.54     0.277 C 
BRANCH  28  29
HETATM   29  N3    D T   1       3.032  14.291  -3.947  1.00 12.77     0.146 N 
HETATM   30  C21   D T   1       3.464  13.154  -4.795  1.00  9.68     0.286 C 
HETATM   31  C22   D T   1       4.752  13.527  -5.575  1.00 12.27     0.286 C 
HETATM   32  N4    D T   1       4.557  14.760  -6.386  1.00 14.63     0.143 N 
HETATM   33  C23   D T   1       4.001  15.885  -5.573  1.00 13.23     0.286 C 
HETATM   34  C25   D T   1       5.807  15.152  -7.046  1.00 14.49     0.285 C 
HETATM   35  C24   D T   1       2.728  15.465  -4.808  1.00 15.42     0.286 C 
ENDBRANCH  28  29
ENDBRANCH  25  28
BRANCH  26  36
HETATM   36  C19   D T   1       0.173  11.469  -2.472  1.00 14.58     0.419 C 
HETATM   37  F1    D T   1       0.475  11.266  -3.745  1.00 18.20    -0.166 F 
HETATM   38  F2    D T   1      -0.415  10.361  -2.035  1.00 18.68    -0.166 F 
HETATM   39  F3    D T   1      -0.707  12.487  -2.346  1.00 14.12    -0.166 F 
ENDBRANCH  26  36
ENDBRANCH   3  22
TORSDOF 7
ENDMDL
MODEL 7
REMARK VINA RESULT:    -8.969      2.352      3.260
REMARK INTER + INTRA:         -13.661
REMARK INTER:                 -12.522
REMARK INTRA:                  -1.138
REMARK UNBOUND:                -1.021
REMARK  7 active torsions:
REMARK  status: ('A' for Active; 'I' for Inactive)
REMARK    1  A    between atoms: N3_2  and  C20_12 
REMARK    2  A    between atoms: C4_3  and  C5_4 
REMARK    3  A    between atoms: C13_9  and  N2_29 
REMARK    4  A    between atoms: C17_11  and  C19_33 
REMARK    5  A    between atoms: C20_12  and  C16_31 
REMARK    6  A    between atoms: C2_23  and  C3_24 
REMARK    7  A    between atoms: C9_25  and  C12_27 
REMARK       I    between atoms: C12_27  and  N2_29 
ROOT
HETATM    1  C12   D T   1       1.231   9.363   5.064  1.00  8.81     0.275 C 
HETATM    2  O1    D T   1       0.845  10.478   5.432  1.00 13.93    -0.266 OA
HETATM    3  N2    D T   1       2.162   9.160   4.088  1.00 10.31    -0.208 NA
ENDROOT
BRANCH   1   4
HETATM    4  C9    D T   1       0.659   8.151   5.704  1.00 12.21     0.037 A 
HETATM    5  C8    D T   1      -0.642   7.608   5.358  1.00 10.40     0.036 A 
HETATM    6  C7    D T   1      -1.122   6.408   6.036  1.00  7.63     0.028 A 
HETATM    7  C6    D T   1      -0.320   5.776   7.025  1.00  7.91    -0.036 A 
HETATM    8  C5    D T   1       0.978   6.331   7.360  1.00 10.18     0.034 A 
HETATM    9  C11   D T   1      -0.852   4.509   7.712  1.00  9.41     0.027 C 
HETATM   10  C10   D T   1       1.448   7.492   6.706  1.00 11.17     0.008 A 
BRANCH   8  11
HETATM   11  C4    D T   1       1.859   5.738   8.355  1.00 10.71    -0.059 C 
HETATM   12  C3    D T   1       2.634   5.233   9.119  1.00 12.15    -0.039 C 
BRANCH  12  13
HETATM   13  C2    D T   1       3.580   4.636   9.963  1.00 14.46     0.145 A 
HETATM   14  N82   D T   1       4.936   4.690   9.812  1.00 14.03    -0.203 N 
HETATM   15  N81   D T   1       5.630   5.327   8.818  1.00 15.71    -0.162 NA
HETATM   16  C84   D T   1       5.453   3.934  10.911  1.00 14.58     0.165 A 
HETATM   17  C83   D T   1       6.959   5.192   8.941  1.00 17.09     0.121 A 
HETATM   18  C82   D T   1       7.628   4.471   9.984  1.00 16.91     0.026 A 
HETATM   19  C81   D T   1       6.870   3.842  10.970  1.00 15.47     0.041 A 
HETATM   20  N1    D T   1       4.472   3.461  11.667  1.00 17.79    -0.223 NA
HETATM   21  C1    D T   1       3.299   3.898  11.071  1.00 15.62     0.128 A 
ENDBRANCH  12  13
ENDBRANCH   8  11
ENDBRANCH   1   4
BRANCH   3  22
HETATM   22  C13   D T   1       3.101  10.125   3.605  1.00  8.39     0.085 A 
HETATM   23  C14   D T   1       2.618  11.140   2.750  1.00 14.59     0.019 A 
HETATM   24  C15   D T   1       3.501  12.135   2.238  1.00 11.91    -0.001 A 
HETATM   25  C16   D T   1       4.884  12.140   2.572  1.00 12.96     0.015 A 
HETATM   26  C17   D T   1       5.400  11.099   3.451  1.00 14.62     0.071 A 
HETATM   27  C18   D T   1       4.492  10.111   3.951  1.00 11.52     0.023 A 
BRANCH  25  28
HETATM   28  C20   D T   1       5.758  13.257   1.983  1.00 11.54     0.277 C 
BRANCH  28  29
HETATM   29  N3    D T   1       6.140  13.018   0.604  1.00 12.77     0.146 N 
HETATM   30  C21   D T   1       5.684  14.063  -0.344  1.00  9.68     0.286 C 
HETATM   31  C22   D T   1       6.010  13.645  -1.801  1.00 12.27     0.286 C 
HETATM   32  N4    D T   1       7.462  13.359  -1.971  1.00 14.63     0.143 N 
HETATM   33  C23   D T   1       7.970  12.400  -0.944  1.00 13.23     0.286 C 
HETATM   34  C25   D T   1       7.741  12.878  -3.328  1.00 14.49     0.285 C 
HETATM   35  C24   D T   1       7.614  12.852   0.488  1.00 15.42     0.286 C 
ENDBRANCH  28  29
ENDBRANCH  25  28
BRANCH  26  36
HETATM   36  C19   D T   1       6.862  11.024   3.866  1.00 14.58     0.419 C 
HETATM   37  F1    D T   1       7.000  10.135   4.838  1.00 18.20    -0.166 F 
HETATM   38  F2    D T   1       7.650  10.632   2.871  1.00 18.68    -0.166 F 
HETATM   39  F3    D T   1       7.277  12.244   4.272  1.00 14.12    -0.166 F 
ENDBRANCH  26  36
ENDBRANCH   3  22
TORSDOF 7
ENDMDL
MODEL 8
REMARK VINA RESULT:    -8.943      2.881      4.384
REMARK INTER + INTRA:         -13.623
REMARK INTER:                 -12.478
REMARK INTRA:                  -1.145
REMARK UNBOUND:                -1.021
REMARK  7 active torsions:
REMARK  status: ('A' for Active; 'I' for Inactive)
REMARK    1  A    between atoms: N3_2  and  C20_12 
REMARK    2  A    between atoms: C4_3  and  C5_4 
REMARK    3  A    between atoms: C13_9  and  N2_29 
REMARK    4  A    between atoms: C17_11  and  C19_33 
REMARK    5  A    between atoms: C20_12  and  C16_31 
REMARK    6  A    between atoms: C2_23  and  C3_24 
REMARK    7  A    between atoms: C9_25  and  C12_27 
REMARK       I    between atoms: C12_27  and  N2_29 
ROOT
HETATM    1  C12   D T   1       1.805   9.027   4.946  1.00  8.81     0.275 C 
HETATM    2  O1    D T   1       2.051  10.138   5.429  1.00 13.93    -0.266 OA
HETATM    3  N2    D T   1       2.155   8.647   3.683  1.00 10.31    -0.208 NA
ENDROOT
BRANCH   1   4
HETATM    4  C9    D T   1       1.080   8.024   5.767  1.00 12.21     0.037 A 
HETATM    5  C8    D T   1      -0.325   7.708   5.579  1.00 10.40     0.036 A 
HETATM    6  C7    D T   1      -0.954   6.704   6.431  1.00  7.63     0.028 A 
HETATM    7  C6    D T   1      -0.197   6.041   7.434  1.00  7.91    -0.036 A 
HETATM    8  C5    D T   1       1.206   6.367   7.609  1.00 10.18     0.034 A 
HETATM    9  C11   D T   1      -0.889   4.982   8.306  1.00  9.41     0.027 C 
HETATM   10  C10   D T   1       1.820   7.338   6.788  1.00 11.17     0.008 A 
BRANCH   8  11
HETATM   11  C4    D T   1       2.048   5.727   8.608  1.00 10.71    -0.059 C 
HETATM   12  C3    D T   1       2.799   5.200   9.381  1.00 12.15    -0.039 C 
BRANCH  12  13
HETATM   13  C2    D T   1       3.724   4.593  10.242  1.00 14.46     0.145 A 
HETATM   14  N82   D T   1       5.082   4.611  10.101  1.00 14.03    -0.203 N 
HETATM   15  N81   D T   1       5.799   5.215   9.102  1.00 15.71    -0.162 NA
HETATM   16  C84   D T   1       5.572   3.859  11.215  1.00 14.58     0.165 A 
HETATM   17  C83   D T   1       7.124   5.049   9.238  1.00 17.09     0.121 A 
HETATM   18  C82   D T   1       7.767   4.327  10.297  1.00 16.91     0.026 A 
HETATM   19  C81   D T   1       6.986   3.733  11.286  1.00 15.47     0.041 A 
HETATM   20  N1    D T   1       4.574   3.422  11.971  1.00 17.79    -0.223 NA
HETATM   21  C1    D T   1       3.417   3.880  11.359  1.00 15.62     0.128 A 
ENDBRANCH  12  13
ENDBRANCH   8  11
ENDBRANCH   1   4
BRANCH   3  22
HETATM   22  C13   D T   1       3.150   9.266   2.862  1.00  8.39     0.085 A 
HETATM   23  C14   D T   1       4.485   8.828   3.005  1.00 14.59     0.019 A 
HETATM   24  C15   D T   1       5.522   9.399   2.213  1.00 11.91    -0.001 A 
HETATM   25  C16   D T   1       5.249  10.419   1.260  1.00 12.96     0.015 A 
HETATM   26  C17   D T   1       3.878  10.886   1.100  1.00 14.62     0.071 A 
HETATM   27  C18   D T   1       2.854  10.295   1.908  1.00 11.52     0.023 A 
BRANCH  25  28
HETATM   28  C20   D T   1       6.428  10.970   0.443  1.00 11.54     0.277 C 
BRANCH  28  29
HETATM   29  N3    D T   1       7.620  11.195   1.238  1.00 12.77     0.146 N 
HETATM   30  C21   D T   1       8.879  10.774   0.579  1.00  9.68     0.286 C 
HETATM   31  C22   D T   1      10.071  10.916   1.561  1.00 12.27     0.286 C 
HETATM   32  N4    D T   1      10.177  12.305   2.088  1.00 14.63     0.143 N 
HETATM   33  C23   D T   1       8.880  12.795   2.645  1.00 13.23     0.286 C 
HETATM   34  C25   D T   1      11.251  12.402   3.083  1.00 14.49     0.285 C 
HETATM   35  C24   D T   1       7.723  12.624   1.638  1.00 15.42     0.286 C 
ENDBRANCH  28  29
ENDBRANCH  25  28
BRANCH  26  36
HETATM   36  C19   D T   1       3.489  11.969   0.105  1.00 14.58     0.419 C 
HETATM   37  F1    D T   1       3.561  11.484  -1.125  1.00 18.20    -0.166 F 
HETATM   38  F2    D T   1       2.242  12.391   0.280  1.00 18.68    -0.166 F 
HETATM   39  F3    D T   1       4.314  13.030   0.250  1.00 14.12    -0.166 F 
ENDBRANCH  26  36
ENDBRANCH   3  22
TORSDOF 7
ENDMDL
MODEL 9
REMARK VINA RESULT:    -8.892      2.646      4.020
REMARK INTER + INTRA:         -13.552
REMARK INTER:                 -12.453
REMARK INTRA:                  -1.099
REMARK UNBOUND:                -1.021
REMARK  7 active torsions:
REMARK  status: ('A' for Active; 'I' for Inactive)
REMARK    1  A    between atoms: N3_2  and  C20_12 
REMARK    2  A    between atoms: C4_3  and  C5_4 
REMARK    3  A    between atoms: C13_9  and  N2_29 
REMARK    4  A    between atoms: C17_11  and  C19_33 
REMARK    5  A    between atoms: C20_12  and  C16_31 
REMARK    6  A    between atoms: C2_23  and  C3_24 
REMARK    7  A    between atoms: C9_25  and  C12_27 
REMARK       I    between atoms: C12_27  and  N2_29 
ROOT
HETATM    1  C12   D T   1       1.208   8.994   5.233  1.00  8.81     0.275 C 
HETATM    2  O1    D T   1       0.580  10.056   5.307  1.00 13.93    -0.266 OA
HETATM    3  N2    D T   1       2.159   8.731   4.292  1.00 10.31    -0.208 NA
ENDROOT
BRANCH   1   4
HETATM    4  C9    D T   1       0.926   7.916   6.215  1.00 12.21     0.037 A 
HETATM    5  C8    D T   1      -0.416   7.479   6.553  1.00 10.40     0.036 A 
HETATM    6  C7    D T   1      -0.598   6.408   7.527  1.00  7.63     0.028 A 
HETATM    7  C6    D T   1       0.530   5.796   8.137  1.00  7.91    -0.036 A 
HETATM    8  C5    D T   1       1.866   6.243   7.789  1.00 10.18     0.034 A 
HETATM    9  C11   D T   1       0.303   4.664   9.151  1.00  9.41     0.027 C 
HETATM   10  C10   D T   1       2.048   7.280   6.847  1.00 11.17     0.008 A 
BRANCH   8  11
HETATM   11  C4    D T   1       3.070   5.663   8.364  1.00 10.71    -0.059 C 
HETATM   12  C3    D T   1       4.102   5.243   8.810  1.00 12.15    -0.039 C 
BRANCH  12  13
HETATM   13  C2    D T   1       5.335   4.806   9.310  1.00 14.46     0.145 A 
HETATM   14  N82   D T   1       5.538   4.176  10.504  1.00 14.03    -0.203 N 
HETATM   15  N81   D T   1       4.589   3.853  11.438  1.00 15.71    -0.162 NA
HETATM   16  C84   D T   1       6.949   3.942  10.556  1.00 14.58     0.165 A 
HETATM   17  C83   D T   1       5.105   3.241  12.515  1.00 17.09     0.121 A 
HETATM   18  C82   D T   1       6.491   2.934  12.713  1.00 16.91     0.026 A 
HETATM   19  C81   D T   1       7.413   3.287  11.729  1.00 15.47     0.041 A 
HETATM   20  N1    D T   1       7.548   4.401   9.466  1.00 17.79    -0.223 NA
HETATM   21  C1    D T   1       6.537   4.946   8.688  1.00 15.62     0.128 A 
ENDBRANCH  12  13
ENDBRANCH   8  11
ENDBRANCH   1   4
BRANCH   3  22
HETATM   22  C13   D T   1       2.855   9.702   3.503  1.00  8.39     0.085 A 
HETATM   23  C14   D T   1       3.966  10.348   4.087  1.00 14.59     0.019 A 
HETATM   24  C15   D T   1       4.705  11.320   3.353  1.00 11.91    -0.001 A 
HETATM   25  C16   D T   1       4.352  11.666   2.019  1.00 12.96     0.015 A 
HETATM   26  C17   D T   1       3.207  11.012   1.400  1.00 14.62     0.071 A 
HETATM   27  C18   D T   1       2.481  10.038   2.160  1.00 11.52     0.023 A 
BRANCH  25  28
HETATM   28  C20   D T   1       5.211  12.718   1.301  1.00 11.54     0.277 C 
BRANCH  28  29
HETATM   29  N3    D T   1       6.597  12.319   1.150  1.00 12.77     0.146 N 
HETATM   30  C21   D T   1       6.787  11.043   0.418  1.00  9.68     0.286 C 
HETATM   31  C22   D T   1       8.282  10.631   0.439  1.00 12.27     0.286 C 
HETATM   32  N4    D T   1       9.149  11.706  -0.119  1.00 14.63     0.143 N 
HETATM   33  C23   D T   1       8.883  13.030   0.520  1.00 13.23     0.286 C 
HETATM   34  C25   D T   1      10.565  11.340  -0.010  1.00 14.49     0.285 C 
HETATM   35  C24   D T   1       7.384  13.393   0.485  1.00 15.42     0.286 C 
ENDBRANCH  28  29
ENDBRANCH  25  28
BRANCH  26  36
HETATM   36  C19   D T   1       2.756  11.314  -0.021  1.00 14.58     0.419 C 
HETATM   37  F1    D T   1       2.033  12.423  -0.027  1.00 18.20    -0.166 F 
HETATM   38  F2    D T   1       3.779  11.515  -0.843  1.00 18.68    -0.166 F 
HETATM   39  F3    D T   1       2.036  10.272  -0.495  1.00 14.12    -0.166 F 
ENDBRANCH  26  36
ENDBRANCH   3  22
TORSDOF 7
ENDMDL
