MODEL 1
REMARK VINA RESULT:    -8.521      0.000      0.000
REMARK INTER + INTRA:         -13.055
REMARK INTER:                 -12.008
REMARK INTRA:                  -1.048
REMARK UNBOUND:                -1.048
REMARK  7 active torsions:
REMARK  status: ('A' for Active; 'I' for Inactive)
REMARK    1  A    between atoms: N3_2  and  C20_12 
REMARK    2  A    between atoms: C4_3  and  C5_4 
REMARK    3  A    between atoms: C13_9  and  N2_29 
REMARK    4  A    between atoms: C17_11  and  C19_33 
REMARK    5  A    between atoms: C20_12  and  C16_31 
REMARK    6  A    between atoms: C2_23  and  C3_24 
REMARK    7  A    between atoms: C9_25  and  C12_27 
REMARK       I    between atoms: C12_27  and  N2_29 
ROOT
HETATM    1  C12   D T   1       9.704  -7.443  -0.526  1.00  8.81     0.275 C 
HETATM    2  O1    D T   1      10.637  -8.005  -1.110  1.00 13.93    -0.266 OA
HETATM    3  N2    D T   1       8.653  -8.100   0.045  1.00 10.31    -0.208 NA
ENDROOT
BRANCH   1   4
HETATM    4  C9    D T   1       9.699  -5.962  -0.425  1.00 12.21     0.037 A 
HETATM    5  C8    D T   1      10.157  -5.244   0.750  1.00 10.40     0.036 A 
HETATM    6  C7    D T   1      10.119  -3.785   0.759  1.00  7.63     0.028 A 
HETATM    7  C6    D T   1       9.639  -3.074  -0.373  1.00  7.91    -0.036 A 
HETATM    8  C5    D T   1       9.185  -3.807  -1.540  1.00 10.18     0.034 A 
HETATM    9  C11   D T   1       9.623  -1.539  -0.334  1.00  9.41     0.027 C 
HETATM   10  C10   D T   1       9.219  -5.219  -1.555  1.00 11.17     0.008 A 
BRANCH   8  11
HETATM   11  C4    D T   1       8.687  -3.152  -2.741  1.00 10.71    -0.059 C 
HETATM   12  C3    D T   1       8.348  -2.589  -3.745  1.00 12.15    -0.039 C 
BRANCH  12  13
HETATM   13  C2    D T   1       8.014  -1.922  -4.932  1.00 14.46     0.145 A 
HETATM   14  N82   D T   1       8.345  -0.637  -5.249  1.00 14.03    -0.203 N 
HETATM   15  N81   D T   1       9.059   0.245  -4.480  1.00 15.71    -0.162 NA
HETATM   16  C84   D T   1       7.779  -0.424  -6.545  1.00 14.58     0.165 A 
HETATM   17  C83   D T   1       9.216   1.441  -5.067  1.00 17.09     0.121 A 
HETATM   18  C82   D T   1       8.712   1.805  -6.360  1.00 16.91     0.026 A 
HETATM   19  C81   D T   1       7.992   0.867  -7.098  1.00 15.47     0.041 A 
HETATM   20  N1    D T   1       7.151  -1.513  -6.974  1.00 17.79    -0.223 NA
HETATM   21  C1    D T   1       7.295  -2.447  -5.960  1.00 15.62     0.128 A 
ENDBRANCH  12  13
ENDBRANCH   8  11
ENDBRANCH   1   4
BRANCH   3  22
HETATM   22  C13   D T   1       8.620  -9.486   0.402  1.00  8.39     0.085 A 
HETATM   23  C14   D T   1       8.751  -9.814   1.769  1.00 14.59     0.019 A 
HETATM   24  C15   D T   1       8.720 -11.173   2.193  1.00 11.91    -0.001 A 
HETATM   25  C16   D T   1       8.554 -12.235   1.260  1.00 12.96     0.015 A 
HETATM   26  C17   D T   1       8.419 -11.917  -0.154  1.00 14.62     0.071 A 
HETATM   27  C18   D T   1       8.454 -10.541  -0.553  1.00 11.52     0.023 A 
BRANCH  25  28
HETATM   28  C20   D T   1       8.522 -13.670   1.809  1.00 11.54     0.277 C 
BRANCH  28  29
HETATM   29  N3    D T   1       7.413 -13.916   2.707  1.00 12.77     0.146 N 
HETATM   30  C21   D T   1       6.384 -14.840   2.168  1.00  9.68     0.286 C 
HETATM   31  C22   D T   1       5.175 -14.920   3.136  1.00 12.27     0.286 C 
HETATM   32  N4    D T   1       5.601 -15.327   4.503  1.00 14.63     0.143 N 
HETATM   33  C23   D T   1       6.725 -14.487   5.017  1.00 13.23     0.286 C 
HETATM   34  C25   D T   1       4.463 -15.312   5.429  1.00 14.49     0.285 C 
HETATM   35  C24   D T   1       7.899 -14.428   4.018  1.00 15.42     0.286 C 
ENDBRANCH  28  29
ENDBRANCH  25  28
BRANCH  26  36
HETATM   36  C19   D T   1       8.234 -12.982  -1.223  1.00 14.58     0.419 C 
HETATM   37  F1    D T   1       9.386 -13.595  -1.442  1.00 18.20    -0.166 F 
HETATM   38  F2    D T   1       7.363 -13.917  -0.859  1.00 18.68    -0.166 F 
HETATM   39  F3    D T   1       7.777 -12.406  -2.358  1.00 14.12    -0.166 F 
ENDBRANCH  26  36
ENDBRANCH   3  22
TORSDOF 7
ENDMDL
MODEL 2
REMARK VINA RESULT:    -8.461      3.840     12.436
REMARK INTER + INTRA:         -12.971
REMARK INTER:                 -12.266
REMARK INTRA:                  -0.704
REMARK UNBOUND:                -1.048
REMARK  7 active torsions:
REMARK  status: ('A' for Active; 'I' for Inactive)
REMARK    1  A    between atoms: N3_2  and  C20_12 
REMARK    2  A    between atoms: C4_3  and  C5_4 
REMARK    3  A    between atoms: C13_9  and  N2_29 
REMARK    4  A    between atoms: C17_11  and  C19_33 
REMARK    5  A    between atoms: C20_12  and  C16_31 
REMARK    6  A    between atoms: C2_23  and  C3_24 
REMARK    7  A    between atoms: C9_25  and  C12_27 
REMARK       I    between atoms: C12_27  and  N2_29 
ROOT
HETATM    1  C12   D T   1      11.016  -1.752  -0.079  1.00  8.81     0.275 C 
HETATM    2  O1    D T   1      11.992  -1.475  -0.787  1.00 13.93    -0.266 OA
HETATM    3  N2    D T   1       9.719  -1.632  -0.484  1.00 10.31    -0.208 NA
ENDROOT
BRANCH   1   4
HETATM    4  C9    D T   1      11.241  -2.245   1.304  1.00 12.21     0.037 A 
HETATM    5  C8    D T   1      12.011  -1.515   2.293  1.00 10.40     0.036 A 
HETATM    6  C7    D T   1      12.176  -2.076   3.630  1.00  7.63     0.028 A 
HETATM    7  C6    D T   1      11.587  -3.325   3.960  1.00  7.91    -0.036 A 
HETATM    8  C5    D T   1      10.819  -4.043   2.960  1.00 10.18     0.034 A 
HETATM    9  C11   D T   1      11.771  -3.881   5.380  1.00  9.41     0.027 C 
HETATM   10  C10   D T   1      10.656  -3.505   1.664  1.00 11.17     0.008 A 
BRANCH   8  11
HETATM   11  C4    D T   1      10.178  -5.323   3.223  1.00 10.71    -0.059 C 
HETATM   12  C3    D T   1       9.685  -6.406   3.379  1.00 12.15    -0.039 C 
BRANCH  12  13
HETATM   13  C2    D T   1       9.146  -7.693   3.514  1.00 14.46     0.145 A 
HETATM   14  N82   D T   1       8.724  -8.496   2.493  1.00 14.03    -0.203 N 
HETATM   15  N81   D T   1       8.740  -8.205   1.154  1.00 15.71    -0.162 NA
HETATM   16  C84   D T   1       8.262  -9.687   3.136  1.00 14.58     0.165 A 
HETATM   17  C83   D T   1       8.251  -9.200   0.399  1.00 17.09     0.121 A 
HETATM   18  C82   D T   1       7.754 -10.452   0.893  1.00 16.91     0.026 A 
HETATM   19  C81   D T   1       7.761 -10.692   2.266  1.00 15.47     0.041 A 
HETATM   20  N1    D T   1       8.399  -9.600   4.454  1.00 17.79    -0.223 NA
HETATM   21  C1    D T   1       8.949  -8.350   4.688  1.00 15.62     0.128 A 
ENDBRANCH  12  13
ENDBRANCH   8  11
ENDBRANCH   1   4
BRANCH   3  22
HETATM   22  C13   D T   1       9.264  -1.547  -1.838  1.00  8.39     0.085 A 
HETATM   23  C14   D T   1       8.778  -0.301  -2.290  1.00 14.59     0.019 A 
HETATM   24  C15   D T   1       8.315  -0.147  -3.628  1.00 11.91    -0.001 A 
HETATM   25  C16   D T   1       8.331  -1.234  -4.546  1.00 12.96     0.015 A 
HETATM   26  C17   D T   1       8.828  -2.528  -4.098  1.00 14.62     0.071 A 
HETATM   27  C18   D T   1       9.287  -2.655  -2.747  1.00 11.52     0.023 A 
BRANCH  25  28
HETATM   28  C20   D T   1       7.822  -0.973  -5.972  1.00 11.54     0.277 C 
BRANCH  28  29
HETATM   29  N3    D T   1       7.896   0.420  -6.362  1.00 12.77     0.146 N 
HETATM   30  C21   D T   1       9.253   1.012  -6.258  1.00  9.68     0.286 C 
HETATM   31  C22   D T   1       9.199   2.533  -6.552  1.00 12.27     0.286 C 
HETATM   32  N4    D T   1       8.593   2.808  -7.882  1.00 14.63     0.143 N 
HETATM   33  C23   D T   1       7.279   2.117  -8.057  1.00 13.23     0.286 C 
HETATM   34  C25   D T   1       8.465   4.252  -8.109  1.00 14.49     0.285 C 
HETATM   35  C24   D T   1       7.378   0.610  -7.744  1.00 15.42     0.286 C 
ENDBRANCH  28  29
ENDBRANCH  25  28
BRANCH  26  36
HETATM   36  C19   D T   1       8.888  -3.745  -5.007  1.00 14.58     0.419 C 
HETATM   37  F1    D T   1       7.719  -3.909  -5.605  1.00 18.20    -0.166 F 
HETATM   38  F2    D T   1       9.797  -3.614  -5.967  1.00 18.68    -0.166 F 
HETATM   39  F3    D T   1       9.207  -4.837  -4.276  1.00 14.12    -0.166 F 
ENDBRANCH  26  36
ENDBRANCH   3  22
TORSDOF 7
ENDMDL
MODEL 3
REMARK VINA RESULT:    -8.293      2.115      2.763
REMARK INTER + INTRA:         -12.734
REMARK INTER:                 -11.597
REMARK INTRA:                  -1.137
REMARK UNBOUND:                -1.048
REMARK  7 active torsions:
REMARK  status: ('A' for Active; 'I' for Inactive)
REMARK    1  A    between atoms: N3_2  and  C20_12 
REMARK    2  A    between atoms: C4_3  and  C5_4 
REMARK    3  A    between atoms: C13_9  and  N2_29 
REMARK    4  A    between atoms: C17_11  and  C19_33 
REMARK    5  A    between atoms: C20_12  and  C16_31 
REMARK    6  A    between atoms: C2_23  and  C3_24 
REMARK    7  A    between atoms: C9_25  and  C12_27 
REMARK       I    between atoms: C12_27  and  N2_29 
ROOT
HETATM    1  C12   D T   1       8.314  -7.101   0.143  1.00  8.81     0.275 C 
HETATM    2  O1    D T   1       7.464  -7.504  -0.659  1.00 13.93    -0.266 OA
HETATM    3  N2    D T   1       8.852  -7.866   1.136  1.00 10.31    -0.208 NA
ENDROOT
BRANCH   1   4
HETATM    4  C9    D T   1       8.798  -5.700   0.044  1.00 12.21     0.037 A 
HETATM    5  C8    D T   1       9.583  -5.056   1.080  1.00 10.40     0.036 A 
HETATM    6  C7    D T   1      10.018  -3.675   0.895  1.00  7.63     0.028 A 
HETATM    7  C6    D T   1       9.678  -2.970  -0.289  1.00  7.91    -0.036 A 
HETATM    8  C5    D T   1       8.893  -3.629  -1.316  1.00 10.18     0.034 A 
HETATM    9  C11   D T   1      10.161  -1.522  -0.456  1.00  9.41     0.027 C 
HETATM   10  C10   D T   1       8.468  -4.965  -1.143  1.00 11.17     0.008 A 
BRANCH   8  11
HETATM   11  C4    D T   1       8.511  -2.977  -2.560  1.00 10.71    -0.059 C 
HETATM   12  C3    D T   1       8.228  -2.497  -3.623  1.00 12.15    -0.039 C 
BRANCH  12  13
HETATM   13  C2    D T   1       7.918  -1.991  -4.893  1.00 14.46     0.145 A 
HETATM   14  N82   D T   1       8.160  -0.720  -5.330  1.00 14.03    -0.203 N 
HETATM   15  N81   D T   1       8.745   0.298  -4.623  1.00 15.71    -0.162 NA
HETATM   16  C84   D T   1       7.665  -0.697  -6.672  1.00 14.58     0.165 A 
HETATM   17  C83   D T   1       8.840   1.436  -5.329  1.00 17.09     0.121 A 
HETATM   18  C82   D T   1       8.394   1.616  -6.680  1.00 16.91     0.026 A 
HETATM   19  C81   D T   1       7.805   0.544  -7.350  1.00 15.47     0.041 A 
HETATM   20  N1    D T   1       7.160  -1.876  -7.013  1.00 17.79    -0.223 NA
HETATM   21  C1    D T   1       7.316  -2.683  -5.897  1.00 15.62     0.128 A 
ENDBRANCH  12  13
ENDBRANCH   8  11
ENDBRANCH   1   4
BRANCH   3  22
HETATM   22  C13   D T   1       8.836  -9.296   1.200  1.00  8.39     0.085 A 
HETATM   23  C14   D T   1       9.582 -10.004   0.232  1.00 14.59     0.019 A 
HETATM   24  C15   D T   1       9.613 -11.428   0.243  1.00 11.91    -0.001 A 
HETATM   25  C16   D T   1       8.904 -12.176   1.223  1.00 12.96     0.015 A 
HETATM   26  C17   D T   1       8.128 -11.464   2.229  1.00 14.62     0.071 A 
HETATM   27  C18   D T   1       8.113 -10.031   2.195  1.00 11.52     0.023 A 
BRANCH  25  28
HETATM   28  C20   D T   1       9.004 -13.708   1.164  1.00 11.54     0.277 C 
BRANCH  28  29
HETATM   29  N3    D T   1       7.827 -14.338   0.600  1.00 12.77     0.146 N 
HETATM   30  C21   D T   1       7.995 -14.802  -0.799  1.00  9.68     0.286 C 
HETATM   31  C22   D T   1       6.644 -15.322  -1.357  1.00 12.27     0.286 C 
HETATM   32  N4    D T   1       6.081 -16.398  -0.498  1.00 14.63     0.143 N 
HETATM   33  C23   D T   1       6.020 -15.996   0.940  1.00 13.23     0.286 C 
HETATM   34  C25   D T   1       4.762 -16.818  -0.986  1.00 14.49     0.285 C 
HETATM   35  C24   D T   1       7.380 -15.476   1.449  1.00 15.42     0.286 C 
ENDBRANCH  28  29
ENDBRANCH  25  28
BRANCH  26  36
HETATM   36  C19   D T   1       7.342 -12.176   3.318  1.00 14.58     0.419 C 
HETATM   37  F1    D T   1       6.228 -12.675   2.806  1.00 18.20    -0.166 F 
HETATM   38  F2    D T   1       8.014 -13.194   3.843  1.00 18.68    -0.166 F 
HETATM   39  F3    D T   1       7.061 -11.304   4.313  1.00 14.12    -0.166 F 
ENDBRANCH  26  36
ENDBRANCH   3  22
TORSDOF 7
ENDMDL
MODEL 4
REMARK VINA RESULT:    -7.884      4.540     12.824
REMARK INTER + INTRA:         -12.158
REMARK INTER:                 -11.589
REMARK INTRA:                  -0.568
REMARK UNBOUND:                -1.048
REMARK  7 active torsions:
REMARK  status: ('A' for Active; 'I' for Inactive)
REMARK    1  A    between atoms: N3_2  and  C20_12 
REMARK    2  A    between atoms: C4_3  and  C5_4 
REMARK    3  A    between atoms: C13_9  and  N2_29 
REMARK    4  A    between atoms: C17_11  and  C19_33 
REMARK    5  A    between atoms: C20_12  and  C16_31 
REMARK    6  A    between atoms: C2_23  and  C3_24 
REMARK    7  A    between atoms: C9_25  and  C12_27 
REMARK       I    between atoms: C12_27  and  N2_29 
ROOT
HETATM    1  C12   D T   1      11.272  -1.580   0.238  1.00  8.81     0.275 C 
HETATM    2  O1    D T   1      12.258  -1.436  -0.493  1.00 13.93    -0.266 OA
HETATM    3  N2    D T   1       9.982  -1.412  -0.175  1.00 10.31    -0.208 NA
ENDROOT
BRANCH   1   4
HETATM    4  C9    D T   1      11.473  -1.957   1.660  1.00 12.21     0.037 A 
HETATM    5  C8    D T   1      12.051  -1.061   2.645  1.00 10.40     0.036 A 
HETATM    6  C7    D T   1      12.208  -1.517   4.023  1.00  7.63     0.028 A 
HETATM    7  C6    D T   1      11.796  -2.824   4.396  1.00  7.91    -0.036 A 
HETATM    8  C5    D T   1      11.220  -3.707   3.400  1.00 10.18     0.034 A 
HETATM    9  C11   D T   1      11.966  -3.267   5.857  1.00  9.41     0.027 C 
HETATM   10  C10   D T   1      11.066  -3.272   2.064  1.00 11.17     0.008 A 
BRANCH   8  11
HETATM   11  C4    D T   1      10.767  -5.056   3.705  1.00 10.71    -0.059 C 
HETATM   12  C3    D T   1      10.328  -6.151   3.923  1.00 12.15    -0.039 C 
BRANCH  12  13
HETATM   13  C2    D T   1       9.763  -7.416   4.142  1.00 14.46     0.145 A 
HETATM   14  N82   D T   1      10.053  -8.254   5.180  1.00 14.03    -0.203 N 
HETATM   15  N81   D T   1      10.942  -8.028   6.198  1.00 15.71    -0.162 NA
HETATM   16  C84   D T   1       9.233  -9.404   4.958  1.00 14.58     0.165 A 
HETATM   17  C83   D T   1      11.008  -9.048   7.068  1.00 17.09     0.121 A 
HETATM   18  C82   D T   1      10.250 -10.264   6.984  1.00 16.91     0.026 A 
HETATM   19  C81   D T   1       9.362 -10.438   5.924  1.00 15.47     0.041 A 
HETATM   20  N1    D T   1       8.502  -9.262   3.859  1.00 17.79    -0.223 NA
HETATM   21  C1    D T   1       8.839  -8.019   3.348  1.00 15.62     0.128 A 
ENDBRANCH  12  13
ENDBRANCH   8  11
ENDBRANCH   1   4
BRANCH   3  22
HETATM   22  C13   D T   1       9.524  -1.423  -1.531  1.00  8.39     0.085 A 
HETATM   23  C14   D T   1       8.931  -0.244  -2.032  1.00 14.59     0.019 A 
HETATM   24  C15   D T   1       8.459  -0.186  -3.375  1.00 11.91    -0.001 A 
HETATM   25  C16   D T   1       8.572  -1.304  -4.247  1.00 12.96     0.015 A 
HETATM   26  C17   D T   1       9.179  -2.530  -3.748  1.00 14.62     0.071 A 
HETATM   27  C18   D T   1       9.645  -2.561  -2.393  1.00 11.52     0.023 A 
BRANCH  25  28
HETATM   28  C20   D T   1       8.045  -1.148  -5.682  1.00 11.54     0.277 C 
BRANCH  28  29
HETATM   29  N3    D T   1       8.042   0.225  -6.145  1.00 12.77     0.146 N 
HETATM   30  C21   D T   1       9.367   0.891  -6.088  1.00  9.68     0.286 C 
HETATM   31  C22   D T   1       9.229   2.390  -6.462  1.00 12.27     0.286 C 
HETATM   32  N4    D T   1       8.598   2.561  -7.798  1.00 14.63     0.143 N 
HETATM   33  C23   D T   1       7.321   1.794  -7.921  1.00 13.23     0.286 C 
HETATM   34  C25   D T   1       8.392   3.982  -8.100  1.00 14.49     0.285 C 
HETATM   35  C24   D T   1       7.503   0.312  -7.530  1.00 15.42     0.286 C 
ENDBRANCH  28  29
ENDBRANCH  25  28
BRANCH  26  36
HETATM   36  C19   D T   1       9.348  -3.774  -4.606  1.00 14.58     0.419 C 
HETATM   37  F1    D T   1      10.380  -3.614  -5.420  1.00 18.20    -0.166 F 
HETATM   38  F2    D T   1       9.593  -4.859  -3.881  1.00 18.68    -0.166 F 
HETATM   39  F3    D T   1       8.214  -3.991  -5.311  1.00 14.12    -0.166 F 
ENDBRANCH  26  36
ENDBRANCH   3  22
TORSDOF 7
ENDMDL
MODEL 5
REMARK VINA RESULT:    -7.646      2.464      3.792
REMARK INTER + INTRA:         -11.822
REMARK INTER:                 -10.891
REMARK INTRA:                  -0.931
REMARK UNBOUND:                -1.048
REMARK  7 active torsions:
REMARK  status: ('A' for Active; 'I' for Inactive)
REMARK    1  A    between atoms: N3_2  and  C20_12 
REMARK    2  A    between atoms: C4_3  and  C5_4 
REMARK    3  A    between atoms: C13_9  and  N2_29 
REMARK    4  A    between atoms: C17_11  and  C19_33 
REMARK    5  A    between atoms: C20_12  and  C16_31 
REMARK    6  A    between atoms: C2_23  and  C3_24 
REMARK    7  A    between atoms: C9_25  and  C12_27 
REMARK       I    between atoms: C12_27  and  N2_29 
ROOT
HETATM    1  C12   D T   1       8.598  -6.447   0.195  1.00  8.81     0.275 C 
HETATM    2  O1    D T   1       7.840  -6.605  -0.769  1.00 13.93    -0.266 OA
HETATM    3  N2    D T   1       8.861  -7.410   1.126  1.00 10.31    -0.208 NA
ENDROOT
BRANCH   1   4
HETATM    4  C9    D T   1       9.275  -5.139   0.378  1.00 12.21     0.037 A 
HETATM    5  C8    D T   1      10.163  -4.853   1.490  1.00 10.40     0.036 A 
HETATM    6  C7    D T   1      10.789  -3.537   1.587  1.00  7.63     0.028 A 
HETATM    7  C6    D T   1      10.532  -2.548   0.601  1.00  7.91    -0.036 A 
HETATM    8  C5    D T   1       9.642  -2.850  -0.504  1.00 10.18     0.034 A 
HETATM    9  C11   D T   1      11.215  -1.178   0.728  1.00  9.41     0.027 C 
HETATM   10  C10   D T   1       9.033  -4.121  -0.603  1.00 11.17     0.008 A 
BRANCH   8  11
HETATM   11  C4    D T   1       9.335  -1.893  -1.557  1.00 10.71    -0.059 C 
HETATM   12  C3    D T   1       9.150  -1.120  -2.456  1.00 12.15    -0.039 C 
BRANCH  12  13
HETATM   13  C2    D T   1       8.987  -0.239  -3.534  1.00 14.46     0.145 A 
HETATM   14  N82   D T   1       8.403  -0.536  -4.732  1.00 14.03    -0.203 N 
HETATM   15  N81   D T   1       7.870  -1.740  -5.112  1.00 15.71    -0.162 NA
HETATM   16  C84   D T   1       8.482   0.676  -5.486  1.00 14.58     0.165 A 
HETATM   17  C83   D T   1       7.373  -1.719  -6.359  1.00 17.09     0.121 A 
HETATM   18  C82   D T   1       7.375  -0.584  -7.236  1.00 16.91     0.026 A 
HETATM   19  C81   D T   1       7.932   0.615  -6.794  1.00 15.47     0.041 A 
HETATM   20  N1    D T   1       9.074   1.635  -4.784  1.00 17.79    -0.223 NA
HETATM   21  C1    D T   1       9.393   1.059  -3.564  1.00 15.62     0.128 A 
ENDBRANCH  12  13
ENDBRANCH   8  11
ENDBRANCH   1   4
BRANCH   3  22
HETATM   22  C13   D T   1       8.643  -8.815   0.969  1.00  8.39     0.085 A 
HETATM   23  C14   D T   1       8.986  -9.398  -0.270  1.00 14.59     0.019 A 
HETATM   24  C15   D T   1       8.799 -10.793  -0.490  1.00 11.91    -0.001 A 
HETATM   25  C16   D T   1       8.269 -11.637   0.525  1.00 12.96     0.015 A 
HETATM   26  C17   D T   1       7.908 -11.054   1.810  1.00 14.62     0.071 A 
HETATM   27  C18   D T   1       8.105  -9.648   2.004  1.00 11.52     0.023 A 
BRANCH  25  28
HETATM   28  C20   D T   1       8.112 -13.131   0.203  1.00 11.54     0.277 C 
BRANCH  28  29
HETATM   29  N3    D T   1       9.371 -13.794  -0.071  1.00 12.77     0.146 N 
HETATM   30  C21   D T   1      10.245 -13.959   1.117  1.00  9.68     0.286 C 
HETATM   31  C22   D T   1      11.619 -14.540   0.695  1.00 12.27     0.286 C 
HETATM   32  N4    D T   1      11.463 -15.824  -0.039  1.00 14.63     0.143 N 
HETATM   33  C23   D T   1      10.488 -15.713  -1.167  1.00 13.23     0.286 C 
HETATM   34  C25   D T   1      12.763 -16.316  -0.511  1.00 14.49     0.285 C 
HETATM   35  C24   D T   1       9.141 -15.122  -0.703  1.00 15.42     0.286 C 
ENDBRANCH  28  29
ENDBRANCH  25  28
BRANCH  26  36
HETATM   36  C19   D T   1       7.339 -11.876   2.956  1.00 14.58     0.419 C 
HETATM   37  F1    D T   1       8.259 -12.722   3.393  1.00 18.20    -0.166 F 
HETATM   38  F2    D T   1       6.984 -11.124   3.991  1.00 18.68    -0.166 F 
HETATM   39  F3    D T   1       6.243 -12.543   2.529  1.00 14.12    -0.166 F 
ENDBRANCH  26  36
ENDBRANCH   3  22
TORSDOF 7
ENDMDL
MODEL 6
REMARK VINA RESULT:    -7.510      2.075      2.850
REMARK INTER + INTRA:         -11.631
REMARK INTER:                 -10.691
REMARK INTRA:                  -0.939
REMARK UNBOUND:                -1.048
REMARK  7 active torsions:
REMARK  status: ('A' for Active; 'I' for Inactive)
REMARK    1  A    between atoms: N3_2  and  C20_12 
REMARK    2  A    between atoms: C4_3  and  C5_4 
REMARK    3  A    between atoms: C13_9  and  N2_29 
REMARK    4  A    between atoms: C17_11  and  C19_33 
REMARK    5  A    between atoms: C20_12  and  C16_31 
REMARK    6  A    between atoms: C2_23  and  C3_24 
REMARK    7  A    between atoms: C9_25  and  C12_27 
REMARK       I    between atoms: C12_27  and  N2_29 
ROOT
HETATM    1  C12   D T   1       8.799  -7.122  -0.040  1.00  8.81     0.275 C 
HETATM    2  O1    D T   1       8.214  -7.474  -1.070  1.00 13.93    -0.266 OA
HETATM    3  N2    D T   1       9.127  -7.967   0.980  1.00 10.31    -0.208 NA
ENDROOT
BRANCH   1   4
HETATM    4  C9    D T   1       9.178  -5.696   0.127  1.00 12.21     0.037 A 
HETATM    5  C8    D T   1       9.798  -5.174   1.331  1.00 10.40     0.036 A 
HETATM    6  C7    D T   1      10.141  -3.757   1.404  1.00  7.63     0.028 A 
HETATM    7  C6    D T   1       9.871  -2.897   0.306  1.00  7.91    -0.036 A 
HETATM    8  C5    D T   1       9.251  -3.435  -0.890  1.00 10.18     0.034 A 
HETATM    9  C11   D T   1      10.254  -1.414   0.414  1.00  9.41     0.027 C 
HETATM   10  C10   D T   1       8.916  -4.805  -0.967  1.00 11.17     0.008 A 
BRANCH   8  11
HETATM   11  C4    D T   1       8.950  -2.621  -2.059  1.00 10.71    -0.059 C 
HETATM   12  C3    D T   1       8.733  -1.890  -2.986  1.00 12.15    -0.039 C 
BRANCH  12  13
HETATM   13  C2    D T   1       8.512  -0.991  -4.039  1.00 14.46     0.145 A 
HETATM   14  N82   D T   1       7.994  -1.303  -5.263  1.00 14.03    -0.203 N 
HETATM   15  N81   D T   1       7.594  -2.539  -5.699  1.00 15.71    -0.162 NA
HETATM   16  C84   D T   1       7.972  -0.062  -5.974  1.00 14.58     0.165 A 
HETATM   17  C83   D T   1       7.132  -2.523  -6.959  1.00 17.09     0.121 A 
HETATM   18  C82   D T   1       7.044  -1.362  -7.798  1.00 16.91     0.026 A 
HETATM   19  C81   D T   1       7.466  -0.131  -7.300  1.00 15.47     0.041 A 
HETATM   20  N1    D T   1       8.446   0.925  -5.223  1.00 17.79    -0.223 NA
HETATM   21  C1    D T   1       8.787   0.340  -4.014  1.00 15.62     0.128 A 
ENDBRANCH  12  13
ENDBRANCH   8  11
ENDBRANCH   1   4
BRANCH   3  22
HETATM   22  C13   D T   1       9.209  -9.393   0.899  1.00  8.39     0.085 A 
HETATM   23  C14   D T   1       7.999 -10.118   0.846  1.00 14.59     0.019 A 
HETATM   24  C15   D T   1       8.011 -11.540   0.758  1.00 11.91    -0.001 A 
HETATM   25  C16   D T   1       9.232 -12.268   0.718  1.00 12.96     0.015 A 
HETATM   26  C17   D T   1      10.491 -11.538   0.774  1.00 14.62     0.071 A 
HETATM   27  C18   D T   1      10.451 -10.108   0.862  1.00 11.52     0.023 A 
BRANCH  25  28
HETATM   28  C20   D T   1       9.149 -13.799   0.613  1.00 11.54     0.277 C 
BRANCH  28  29
HETATM   29  N3    D T   1       7.811 -14.283   0.339  1.00 12.77     0.146 N 
HETATM   30  C21   D T   1       7.725 -15.220  -0.809  1.00  9.68     0.286 C 
HETATM   31  C22   D T   1       6.243 -15.561  -1.112  1.00 12.27     0.286 C 
HETATM   32  N4    D T   1       5.557 -16.114   0.087  1.00 14.63     0.143 N 
HETATM   33  C23   D T   1       5.738 -15.246   1.290  1.00 13.23     0.286 C 
HETATM   34  C25   D T   1       4.135 -16.348  -0.187  1.00 14.49     0.285 C 
HETATM   35  C24   D T   1       7.225 -14.925   1.547  1.00 15.42     0.286 C 
ENDBRANCH  28  29
ENDBRANCH  25  28
BRANCH  26  36
HETATM   36  C19   D T   1      11.845 -12.228   0.732  1.00 14.58     0.419 C 
HETATM   37  F1    D T   1      12.000 -12.966   1.820  1.00 18.20    -0.166 F 
HETATM   38  F2    D T   1      11.964 -13.046  -0.308  1.00 18.68    -0.166 F 
HETATM   39  F3    D T   1      12.822 -11.297   0.644  1.00 14.12    -0.166 F 
ENDBRANCH  26  36
ENDBRANCH   3  22
TORSDOF 7
ENDMDL
MODEL 7
REMARK VINA RESULT:    -7.343      1.434      2.234
REMARK INTER + INTRA:         -11.395
REMARK INTER:                 -10.873
REMARK INTRA:                  -0.522
REMARK UNBOUND:                -1.048
REMARK  7 active torsions:
REMARK  status: ('A' for Active; 'I' for Inactive)
REMARK    1  A    between atoms: N3_2  and  C20_12 
REMARK    2  A    between atoms: C4_3  and  C5_4 
REMARK    3  A    between atoms: C13_9  and  N2_29 
REMARK    4  A    between atoms: C17_11  and  C19_33 
REMARK    5  A    between atoms: C20_12  and  C16_31 
REMARK    6  A    between atoms: C2_23  and  C3_24 
REMARK    7  A    between atoms: C9_25  and  C12_27 
REMARK       I    between atoms: C12_27  and  N2_29 
ROOT
HETATM    1  C12   D T   1       8.372  -7.987   0.495  1.00  8.81     0.275 C 
HETATM    2  O1    D T   1       7.864  -8.239  -0.604  1.00 13.93    -0.266 OA
HETATM    3  N2    D T   1       8.334  -8.830   1.567  1.00 10.31    -0.208 NA
ENDROOT
BRANCH   1   4
HETATM    4  C9    D T   1       9.071  -6.691   0.689  1.00 12.21     0.037 A 
HETATM    5  C8    D T   1      10.024  -6.455   1.757  1.00 10.40     0.036 A 
HETATM    6  C7    D T   1      10.667  -5.149   1.869  1.00  7.63     0.028 A 
HETATM    7  C6    D T   1      10.362  -4.120   0.939  1.00  7.91    -0.036 A 
HETATM    8  C5    D T   1       9.407  -4.371  -0.123  1.00 10.18     0.034 A 
HETATM    9  C11   D T   1      11.065  -2.761   1.080  1.00  9.41     0.027 C 
HETATM   10  C10   D T   1       8.781  -5.633  -0.237  1.00 11.17     0.008 A 
BRANCH   8  11
HETATM   11  C4    D T   1       9.048  -3.372  -1.118  1.00 10.71    -0.059 C 
HETATM   12  C3    D T   1       8.827  -2.541  -1.955  1.00 12.15    -0.039 C 
BRANCH  12  13
HETATM   13  C2    D T   1       8.629  -1.573  -2.950  1.00 14.46     0.145 A 
HETATM   14  N82   D T   1       8.173  -1.806  -4.216  1.00 14.03    -0.203 N 
HETATM   15  N81   D T   1       7.824  -3.016  -4.756  1.00 15.71    -0.162 NA
HETATM   16  C84   D T   1       8.150  -0.518  -4.837  1.00 14.58     0.165 A 
HETATM   17  C83   D T   1       7.416  -2.919  -6.032  1.00 17.09     0.121 A 
HETATM   18  C82   D T   1       7.336  -1.703  -6.789  1.00 16.91     0.026 A 
HETATM   19  C81   D T   1       7.705  -0.502  -6.185  1.00 15.47     0.041 A 
HETATM   20  N1    D T   1       8.566   0.422  -3.997  1.00 17.79    -0.223 NA
HETATM   21  C1    D T   1       8.869  -0.241  -2.818  1.00 15.62     0.128 A 
ENDBRANCH  12  13
ENDBRANCH   8  11
ENDBRANCH   1   4
BRANCH   3  22
HETATM   22  C13   D T   1       8.066 -10.235   1.524  1.00  8.39     0.085 A 
HETATM   23  C14   D T   1       7.303 -10.789   2.575  1.00 14.59     0.019 A 
HETATM   24  C15   D T   1       6.996 -12.180   2.591  1.00 11.91    -0.001 A 
HETATM   25  C16   D T   1       7.441 -13.047   1.554  1.00 12.96     0.015 A 
HETATM   26  C17   D T   1       8.231 -12.494   0.462  1.00 14.62     0.071 A 
HETATM   27  C18   D T   1       8.526 -11.092   0.472  1.00 11.52     0.023 A 
BRANCH  25  28
HETATM   28  C20   D T   1       7.054 -14.531   1.648  1.00 11.54     0.277 C 
BRANCH  28  29
HETATM   29  N3    D T   1       6.670 -14.940   2.984  1.00 12.77     0.146 N 
HETATM   30  C21   D T   1       5.257 -15.377   3.106  1.00  9.68     0.286 C 
HETATM   31  C22   D T   1       4.907 -15.651   4.592  1.00 12.27     0.286 C 
HETATM   32  N4    D T   1       5.833 -16.648   5.193  1.00 14.63     0.143 N 
HETATM   33  C23   D T   1       7.267 -16.291   4.972  1.00 13.23     0.286 C 
HETATM   34  C25   D T   1       5.547 -16.830   6.620  1.00 14.49     0.285 C 
HETATM   35  C24   D T   1       7.567 -16.018   3.483  1.00 15.42     0.286 C 
ENDBRANCH  28  29
ENDBRANCH  25  28
BRANCH  26  36
HETATM   36  C19   D T   1       8.746 -13.341  -0.691  1.00 14.58     0.419 C 
HETATM   37  F1    D T   1       7.925 -13.229  -1.723  1.00 18.20    -0.166 F 
HETATM   38  F2    D T   1       9.945 -12.951  -1.108  1.00 18.68    -0.166 F 
HETATM   39  F3    D T   1       8.840 -14.630  -0.294  1.00 14.12    -0.166 F 
ENDBRANCH  26  36
ENDBRANCH   3  22
TORSDOF 7
ENDMDL
MODEL 8
REMARK VINA RESULT:    -7.322      3.291     12.393
REMARK INTER + INTRA:         -11.366
REMARK INTER:                 -11.245
REMARK INTRA:                  -0.121
REMARK UNBOUND:                -1.048
REMARK  7 active torsions:
REMARK  status: ('A' for Active; 'I' for Inactive)
REMARK    1  A    between atoms: N3_2  and  C20_12 
REMARK    2  A    between atoms: C4_3  and  C5_4 
REMARK    3  A    between atoms: C13_9  and  N2_29 
REMARK    4  A    between atoms: C17_11  and  C19_33 
REMARK    5  A    between atoms: C20_12  and  C16_31 
REMARK    6  A    between atoms: C2_23  and  C3_24 
REMARK    7  A    between atoms: C9_25  and  C12_27 
REMARK       I    between atoms: C12_27  and  N2_29 
ROOT
HETATM    1  C12   D T   1      10.267  -4.154   0.175  1.00  8.81     0.275 C 
HETATM    2  O1    D T   1      11.131  -4.618  -0.578  1.00 13.93    -0.266 OA
HETATM    3  N2    D T   1       9.313  -3.261  -0.216  1.00 10.31    -0.208 NA
ENDROOT
BRANCH   1   4
HETATM    4  C9    D T   1      10.244  -4.576   1.598  1.00 12.21     0.037 A 
HETATM    5  C8    D T   1      10.586  -3.690   2.695  1.00 10.40     0.036 A 
HETATM    6  C7    D T   1      10.532  -4.191   4.065  1.00  7.63     0.028 A 
HETATM    7  C6    D T   1      10.144  -5.533   4.322  1.00  7.91    -0.036 A 
HETATM    8  C5    D T   1       9.804  -6.406   3.214  1.00 10.18     0.034 A 
HETATM    9  C11   D T   1      10.087  -6.024   5.776  1.00  9.41     0.027 C 
HETATM   10  C10   D T   1       9.856  -5.928   1.886  1.00 11.17     0.008 A 
BRANCH   8  11
HETATM   11  C4    D T   1       9.391  -7.790   3.395  1.00 10.71    -0.059 C 
HETATM   12  C3    D T   1       8.979  -8.909   3.530  1.00 12.15    -0.039 C 
BRANCH  12  13
HETATM   13  C2    D T   1       8.440 -10.196   3.666  1.00 14.46     0.145 A 
HETATM   14  N82   D T   1       8.300 -11.116   2.667  1.00 14.03    -0.203 N 
HETATM   15  N81   D T   1       8.652 -10.964   1.351  1.00 15.71    -0.162 NA
HETATM   16  C84   D T   1       7.705 -12.252   3.300  1.00 14.58     0.165 A 
HETATM   17  C83   D T   1       8.382 -12.051   0.611  1.00 17.09     0.121 A 
HETATM   18  C82   D T   1       7.792 -13.264   1.099  1.00 16.91     0.026 A 
HETATM   19  C81   D T   1       7.454 -13.360   2.448  1.00 15.47     0.041 A 
HETATM   20  N1    D T   1       7.504 -12.025   4.592  1.00 17.79    -0.223 NA
HETATM   21  C1    D T   1       7.960 -10.736   4.818  1.00 15.62     0.128 A 
ENDBRANCH  12  13
ENDBRANCH   8  11
ENDBRANCH   1   4
BRANCH   3  22
HETATM   22  C13   D T   1       8.902  -3.001  -1.562  1.00  8.39     0.085 A 
HETATM   23  C14   D T   1       7.969  -1.963  -1.774  1.00 14.59     0.019 A 
HETATM   24  C15   D T   1       7.523  -1.650  -3.090  1.00 11.91    -0.001 A 
HETATM   25  C16   D T   1       8.002  -2.364  -4.223  1.00 12.96     0.015 A 
HETATM   26  C17   D T   1       8.963  -3.440  -4.024  1.00 14.62     0.071 A 
HETATM   27  C18   D T   1       9.395  -3.735  -2.690  1.00 11.52     0.023 A 
BRANCH  25  28
HETATM   28  C20   D T   1       7.473  -1.951  -5.606  1.00 11.54     0.277 C 
BRANCH  28  29
HETATM   29  N3    D T   1       7.730  -0.561  -5.925  1.00 12.77     0.146 N 
HETATM   30  C21   D T   1       9.121  -0.120  -5.655  1.00  9.68     0.286 C 
HETATM   31  C22   D T   1       9.254   1.407  -5.888  1.00 12.27     0.286 C 
HETATM   32  N4    D T   1       8.826   1.786  -7.262  1.00 14.63     0.143 N 
HETATM   33  C23   D T   1       7.476   1.244  -7.601  1.00 13.23     0.286 C 
HETATM   34  C25   D T   1       8.871   3.242  -7.439  1.00 14.49     0.285 C 
HETATM   35  C24   D T   1       7.387  -0.274  -7.345  1.00 15.42     0.286 C 
ENDBRANCH  28  29
ENDBRANCH  25  28
BRANCH  26  36
HETATM   36  C19   D T   1       9.535  -4.255  -5.173  1.00 14.58     0.419 C 
HETATM   37  F1    D T   1       9.278  -5.539  -4.975  1.00 18.20    -0.166 F 
HETATM   38  F2    D T   1       8.994  -3.930  -6.342  1.00 18.68    -0.166 F 
HETATM   39  F3    D T   1      10.868  -4.043  -5.256  1.00 14.12    -0.166 F 
ENDBRANCH  26  36
ENDBRANCH   3  22
TORSDOF 7
ENDMDL
MODEL 9
REMARK VINA RESULT:    -6.905      4.040     12.228
REMARK INTER + INTRA:         -10.778
REMARK INTER:                 -10.010
REMARK INTRA:                  -0.768
REMARK UNBOUND:                -1.048
REMARK  7 active torsions:
REMARK  status: ('A' for Active; 'I' for Inactive)
REMARK    1  A    between atoms: N3_2  and  C20_12 
REMARK    2  A    between atoms: C4_3  and  C5_4 
REMARK    3  A    between atoms: C13_9  and  N2_29 
REMARK    4  A    between atoms: C17_11  and  C19_33 
REMARK    5  A    between atoms: C20_12  and  C16_31 
REMARK    6  A    between atoms: C2_23  and  C3_24 
REMARK    7  A    between atoms: C9_25  and  C12_27 
REMARK       I    between atoms: C12_27  and  N2_29 
ROOT
HETATM    1  C12   D T   1       9.142  -7.042   3.778  1.00  8.81     0.275 C 
HETATM    2  O1    D T   1       9.108  -6.016   4.468  1.00 13.93    -0.266 OA
HETATM    3  N2    D T   1       9.116  -7.046   2.414  1.00 10.31    -0.208 NA
ENDROOT
BRANCH   1   4
HETATM    4  C9    D T   1       9.213  -8.365   4.449  1.00 12.21     0.037 A 
HETATM    5  C8    D T   1       9.919  -8.586   5.697  1.00 10.40     0.036 A 
HETATM    6  C7    D T   1       9.933  -9.921   6.286  1.00  7.63     0.028 A 
HETATM    7  C6    D T   1       9.258 -10.994   5.644  1.00  7.91    -0.036 A 
HETATM    8  C5    D T   1       8.556 -10.756   4.397  1.00 10.18     0.034 A 
HETATM    9  C11   D T   1       9.283 -12.384   6.297  1.00  9.41     0.027 C 
HETATM   10  C10   D T   1       8.540  -9.466   3.821  1.00 11.17     0.008 A 
BRANCH   8  11
HETATM   11  C4    D T   1       7.835 -11.800   3.683  1.00 10.71    -0.059 C 
HETATM   12  C3    D T   1       7.256 -12.707   3.153  1.00 12.15    -0.039 C 
BRANCH  12  13
HETATM   13  C2    D T   1       6.586 -13.801   2.588  1.00 14.46     0.145 A 
HETATM   14  N82   D T   1       6.791 -14.308   1.337  1.00 14.03    -0.203 N 
HETATM   15  N81   D T   1       7.680 -13.852   0.399  1.00 15.71    -0.162 NA
HETATM   16  C84   D T   1       5.875 -15.401   1.233  1.00 14.58     0.165 A 
HETATM   17  C83   D T   1       7.644 -14.559  -0.741  1.00 17.09     0.121 A 
HETATM   18  C82   D T   1       6.786 -15.680  -0.997  1.00 16.91     0.026 A 
HETATM   19  C81   D T   1       5.900 -16.099  -0.004  1.00 15.47     0.041 A 
HETATM   20  N1    D T   1       5.169 -15.538   2.348  1.00 17.79    -0.223 NA
HETATM   21  C1    D T   1       5.612 -14.533   3.194  1.00 15.62     0.128 A 
ENDBRANCH  12  13
ENDBRANCH   8  11
ENDBRANCH   1   4
BRANCH   3  22
HETATM   22  C13   D T   1       9.421  -5.938   1.562  1.00  8.39     0.085 A 
HETATM   23  C14   D T   1       8.845  -5.924   0.273  1.00 14.59     0.019 A 
HETATM   24  C15   D T   1       9.105  -4.847  -0.623  1.00 11.91    -0.001 A 
HETATM   25  C16   D T   1       9.942  -3.760  -0.250  1.00 12.96     0.015 A 
HETATM   26  C17   D T   1      10.547  -3.758   1.075  1.00 14.62     0.071 A 
HETATM   27  C18   D T   1      10.270  -4.853   1.957  1.00 11.52     0.023 A 
BRANCH  25  28
HETATM   28  C20   D T   1      10.157  -2.637  -1.277  1.00 11.54     0.277 C 
BRANCH  28  29
HETATM   29  N3    D T   1       9.335  -2.779  -2.462  1.00 12.77     0.146 N 
HETATM   30  C21   D T   1       8.382  -1.663  -2.680  1.00  9.68     0.286 C 
HETATM   31  C22   D T   1       7.453  -1.979  -3.881  1.00 12.27     0.286 C 
HETATM   32  N4    D T   1       8.237  -2.266  -5.112  1.00 14.63     0.143 N 
HETATM   33  C23   D T   1       9.290  -3.301  -4.882  1.00 13.23     0.286 C 
HETATM   34  C25   D T   1       7.350  -2.651  -6.216  1.00 14.49     0.285 C 
HETATM   35  C24   D T   1      10.182  -2.951  -3.673  1.00 15.42     0.286 C 
ENDBRANCH  28  29
ENDBRANCH  25  28
BRANCH  26  36
HETATM   36  C19   D T   1      11.451  -2.638   1.565  1.00 14.58     0.419 C 
HETATM   37  F1    D T   1      12.561  -2.618   0.844  1.00 18.20    -0.166 F 
HETATM   38  F2    D T   1      10.888  -1.441   1.438  1.00 18.68    -0.166 F 
HETATM   39  F3    D T   1      11.735  -2.829   2.873  1.00 14.12    -0.166 F 
ENDBRANCH  26  36
ENDBRANCH   3  22
TORSDOF 7
ENDMDL
