MODEL 1
REMARK VINA RESULT:    -9.715      0.000      0.000
REMARK INTER + INTRA:         -14.123
REMARK INTER:                 -13.690
REMARK INTRA:                  -0.433
REMARK UNBOUND:                -0.433
REMARK  7 active torsions:
REMARK  status: ('A' for Active; 'I' for Inactive)
REMARK    1  A    between atoms: N3_2  and  C20_12 
REMARK    2  A    between atoms: C4_3  and  C5_4 
REMARK    3  A    between atoms: C13_9  and  N2_29 
REMARK    4  A    between atoms: C17_11  and  C19_33 
REMARK    5  A    between atoms: C20_12  and  C16_31 
REMARK    6  A    between atoms: C2_23  and  C3_24 
REMARK    7  A    between atoms: C9_25  and  C12_27 
REMARK       I    between atoms: C12_27  and  N2_29 
ROOT
HETATM    1  C12   D T   1      -7.322  -1.393  -5.799  1.00  8.81     0.275 C 
HETATM    2  O1    D T   1      -6.955  -1.440  -4.620  1.00 13.93    -0.266 OA
HETATM    3  N2    D T   1      -6.832  -2.196  -6.786  1.00 10.31    -0.208 NA
ENDROOT
BRANCH   1   4
HETATM    4  C9    D T   1      -8.358  -0.405  -6.197  1.00 12.21     0.037 A 
HETATM    5  C8    D T   1      -9.750  -0.756  -6.411  1.00 10.40     0.036 A 
HETATM    6  C7    D T   1     -10.700   0.283  -6.796  1.00  7.63     0.028 A 
HETATM    7  C6    D T   1     -10.265   1.626  -6.957  1.00  7.91    -0.036 A 
HETATM    8  C5    D T   1      -8.870   1.961  -6.740  1.00 10.18     0.034 A 
HETATM    9  C11   D T   1     -11.294   2.696  -7.353  1.00  9.41     0.027 C 
HETATM   10  C10   D T   1      -7.946   0.959  -6.367  1.00 11.17     0.008 A 
BRANCH   8  11
HETATM   11  C4    D T   1      -8.351   3.312  -6.878  1.00 10.71    -0.059 C 
HETATM   12  C3    D T   1      -7.943   4.441  -6.920  1.00 12.15    -0.039 C 
BRANCH  12  13
HETATM   13  C2    D T   1      -7.479   5.763  -6.907  1.00 14.46     0.145 A 
HETATM   14  N82   D T   1      -8.145   6.841  -6.400  1.00 14.03    -0.203 N 
HETATM   15  N81   D T   1      -9.385   6.845  -5.815  1.00 15.71    -0.162 NA
HETATM   16  C84   D T   1      -7.267   7.949  -6.626  1.00 14.58     0.165 A 
HETATM   17  C83   D T   1      -9.771   8.069  -5.422  1.00 17.09     0.121 A 
HETATM   18  C82   D T   1      -9.006   9.272  -5.575  1.00 16.91     0.026 A 
HETATM   19  C81   D T   1      -7.752   9.207  -6.179  1.00 15.47     0.041 A 
HETATM   20  N1    D T   1      -6.152   7.557  -7.227  1.00 17.79    -0.223 NA
HETATM   21  C1    D T   1      -6.287   6.188  -7.405  1.00 15.62     0.128 A 
ENDBRANCH  12  13
ENDBRANCH   8  11
ENDBRANCH   1   4
BRANCH   3  22
HETATM   22  C13   D T   1      -6.136  -3.434  -6.597  1.00  8.39     0.085 A 
HETATM   23  C14   D T   1      -6.684  -4.591  -7.192  1.00 14.59     0.019 A 
HETATM   24  C15   D T   1      -6.037  -5.853  -7.049  1.00 11.91    -0.001 A 
HETATM   25  C16   D T   1      -4.828  -5.984  -6.312  1.00 12.96     0.015 A 
HETATM   26  C17   D T   1      -4.248  -4.801  -5.690  1.00 14.62     0.071 A 
HETATM   27  C18   D T   1      -4.919  -3.544  -5.850  1.00 11.52     0.023 A 
BRANCH  25  28
HETATM   28  C20   D T   1      -4.195  -7.381  -6.216  1.00 11.54     0.277 C 
BRANCH  28  29
HETATM   29  N3    D T   1      -4.836  -8.359  -7.075  1.00 12.77     0.146 N 
HETATM   30  C21   D T   1      -3.970  -9.503  -7.449  1.00  9.68     0.286 C 
HETATM   31  C22   D T   1      -4.694 -10.408  -8.480  1.00 12.27     0.286 C 
HETATM   32  N4    D T   1      -6.009 -10.874  -7.963  1.00 14.63     0.143 N 
HETATM   33  C23   D T   1      -6.850  -9.744  -7.465  1.00 13.23     0.286 C 
HETATM   34  C25   D T   1      -6.721 -11.654  -8.983  1.00 14.49     0.285 C 
HETATM   35  C24   D T   1      -6.088  -8.867  -6.451  1.00 15.42     0.286 C 
ENDBRANCH  28  29
ENDBRANCH  25  28
BRANCH  26  36
HETATM   36  C19   D T   1      -2.958  -4.842  -4.886  1.00 14.58     0.419 C 
HETATM   37  F1    D T   1      -3.040  -5.792  -3.967  1.00 18.20    -0.166 F 
HETATM   38  F2    D T   1      -1.902  -5.127  -5.639  1.00 18.68    -0.166 F 
HETATM   39  F3    D T   1      -2.749  -3.638  -4.310  1.00 14.12    -0.166 F 
ENDBRANCH  26  36
ENDBRANCH   3  22
TORSDOF 7
ENDMDL
MODEL 2
REMARK VINA RESULT:    -9.575      3.062     13.040
REMARK INTER + INTRA:         -13.927
REMARK INTER:                 -12.710
REMARK INTRA:                  -1.217
REMARK UNBOUND:                -0.433
REMARK  7 active torsions:
REMARK  status: ('A' for Active; 'I' for Inactive)
REMARK    1  A    between atoms: N3_2  and  C20_12 
REMARK    2  A    between atoms: C4_3  and  C5_4 
REMARK    3  A    between atoms: C13_9  and  N2_29 
REMARK    4  A    between atoms: C17_11  and  C19_33 
REMARK    5  A    between atoms: C20_12  and  C16_31 
REMARK    6  A    between atoms: C2_23  and  C3_24 
REMARK    7  A    between atoms: C9_25  and  C12_27 
REMARK       I    between atoms: C12_27  and  N2_29 
ROOT
HETATM    1  C12   D T   1      -6.189  -2.791  -6.777  1.00  8.81     0.275 C 
HETATM    2  O1    D T   1      -6.942  -3.159  -7.685  1.00 13.93    -0.266 OA
HETATM    3  N2    D T   1      -6.253  -1.568  -6.178  1.00 10.31    -0.208 NA
ENDROOT
BRANCH   1   4
HETATM    4  C9    D T   1      -5.134  -3.717  -6.291  1.00 12.21     0.037 A 
HETATM    5  C8    D T   1      -4.007  -3.286  -5.485  1.00 10.40     0.036 A 
HETATM    6  C7    D T   1      -3.019  -4.268  -5.049  1.00  7.63     0.028 A 
HETATM    7  C6    D T   1      -3.163  -5.635  -5.409  1.00  7.91    -0.036 A 
HETATM    8  C5    D T   1      -4.295  -6.051  -6.215  1.00 10.18     0.034 A 
HETATM    9  C11   D T   1      -2.111  -6.644  -4.923  1.00  9.41     0.027 C 
HETATM   10  C10   D T   1      -5.254  -5.105  -6.641  1.00 11.17     0.008 A 
BRANCH   8  11
HETATM   11  C4    D T   1      -4.515  -7.431  -6.617  1.00 10.71    -0.059 C 
HETATM   12  C3    D T   1      -4.750  -8.546  -6.998  1.00 12.15    -0.039 C 
BRANCH  12  13
HETATM   13  C2    D T   1      -5.065  -9.822  -7.484  1.00 14.46     0.145 A 
HETATM   14  N82   D T   1      -6.241 -10.188  -8.072  1.00 14.03    -0.203 N 
HETATM   15  N81   D T   1      -7.334  -9.392  -8.297  1.00 15.71    -0.162 NA
HETATM   16  C84   D T   1      -6.074 -11.574  -8.386  1.00 14.58     0.165 A 
HETATM   17  C83   D T   1      -8.343 -10.049  -8.891  1.00 17.09     0.121 A 
HETATM   18  C82   D T   1      -8.327 -11.432  -9.268  1.00 16.91     0.026 A 
HETATM   19  C81   D T   1      -7.188 -12.192  -9.014  1.00 15.47     0.041 A 
HETATM   20  N1    D T   1      -4.877 -12.006  -8.010  1.00 17.79    -0.223 NA
HETATM   21  C1    D T   1      -4.248 -10.908  -7.442  1.00 15.62     0.128 A 
ENDBRANCH  12  13
ENDBRANCH   8  11
ENDBRANCH   1   4
BRANCH   3  22
HETATM   22  C13   D T   1      -7.373  -0.677  -6.199  1.00  8.39     0.085 A 
HETATM   23  C14   D T   1      -7.320   0.422  -7.084  1.00 14.59     0.019 A 
HETATM   24  C15   D T   1      -8.405   1.343  -7.159  1.00 11.91    -0.001 A 
HETATM   25  C16   D T   1      -9.567   1.183  -6.354  1.00 12.96     0.015 A 
HETATM   26  C17   D T   1      -9.639   0.056  -5.434  1.00 14.62     0.071 A 
HETATM   27  C18   D T   1      -8.534  -0.855  -5.379  1.00 11.52     0.023 A 
BRANCH  25  28
HETATM   28  C20   D T   1     -10.692   2.219  -6.507  1.00 11.54     0.277 C 
BRANCH  28  29
HETATM   29  N3    D T   1     -10.236   3.587  -6.344  1.00 12.77     0.146 N 
HETATM   30  C21   D T   1     -11.199   4.611  -6.813  1.00  9.68     0.286 C 
HETATM   31  C22   D T   1     -10.562   6.023  -6.733  1.00 12.27     0.286 C 
HETATM   32  N4    D T   1     -10.083   6.324  -5.356  1.00 14.63     0.143 N 
HETATM   33  C23   D T   1      -9.208   5.241  -4.815  1.00 13.23     0.286 C 
HETATM   34  C25   D T   1      -9.402   7.624  -5.316  1.00 14.49     0.285 C 
HETATM   35  C24   D T   1      -9.877   3.856  -4.924  1.00 15.42     0.286 C 
ENDBRANCH  28  29
ENDBRANCH  25  28
BRANCH  26  36
HETATM   36  C19   D T   1     -10.840  -0.198  -4.538  1.00 14.58     0.419 C 
HETATM   37  F1    D T   1     -11.918  -0.385  -5.285  1.00 18.20    -0.166 F 
HETATM   38  F2    D T   1     -10.695  -1.289  -3.794  1.00 18.68    -0.166 F 
HETATM   39  F3    D T   1     -11.012   0.854  -3.707  1.00 14.12    -0.166 F 
ENDBRANCH  26  36
ENDBRANCH   3  22
TORSDOF 7
ENDMDL
MODEL 3
REMARK VINA RESULT:    -9.337      1.098      1.816
REMARK INTER + INTRA:         -13.590
REMARK INTER:                 -13.110
REMARK INTRA:                  -0.481
REMARK UNBOUND:                -0.433
REMARK  7 active torsions:
REMARK  status: ('A' for Active; 'I' for Inactive)
REMARK    1  A    between atoms: N3_2  and  C20_12 
REMARK    2  A    between atoms: C4_3  and  C5_4 
REMARK    3  A    between atoms: C13_9  and  N2_29 
REMARK    4  A    between atoms: C17_11  and  C19_33 
REMARK    5  A    between atoms: C20_12  and  C16_31 
REMARK    6  A    between atoms: C2_23  and  C3_24 
REMARK    7  A    between atoms: C9_25  and  C12_27 
REMARK       I    between atoms: C12_27  and  N2_29 
ROOT
HETATM    1  C12   D T   1      -8.391  -2.001  -5.546  1.00  8.81     0.275 C 
HETATM    2  O1    D T   1      -8.373  -2.354  -4.362  1.00 13.93    -0.266 OA
HETATM    3  N2    D T   1      -7.490  -2.414  -6.482  1.00 10.31    -0.208 NA
ENDROOT
BRANCH   1   4
HETATM    4  C9    D T   1      -9.448  -1.064  -6.006  1.00 12.21     0.037 A 
HETATM    5  C8    D T   1     -10.710  -1.504  -6.572  1.00 10.40     0.036 A 
HETATM    6  C7    D T   1     -11.692  -0.511  -6.994  1.00  7.63     0.028 A 
HETATM    7  C6    D T   1     -11.416   0.875  -6.849  1.00  7.91    -0.036 A 
HETATM    8  C5    D T   1     -10.150   1.300  -6.282  1.00 10.18     0.034 A 
HETATM    9  C11   D T   1     -12.477   1.894  -7.293  1.00  9.41     0.027 C 
HETATM   10  C10   D T   1      -9.194   0.343  -5.872  1.00 11.17     0.008 A 
BRANCH   8  11
HETATM   11  C4    D T   1      -9.797   2.698  -6.095  1.00 10.71    -0.059 C 
HETATM   12  C3    D T   1      -9.447   3.842  -5.989  1.00 12.15    -0.039 C 
BRANCH  12  13
HETATM   13  C2    D T   1      -8.995   5.167  -5.911  1.00 14.46     0.145 A 
HETATM   14  N82   D T   1      -8.029   5.731  -6.693  1.00 14.03    -0.203 N 
HETATM   15  N81   D T   1      -7.316   5.123  -7.693  1.00 15.71    -0.162 NA
HETATM   16  C84   D T   1      -7.929   7.082  -6.228  1.00 14.58     0.165 A 
HETATM   17  C83   D T   1      -6.429   5.945  -8.274  1.00 17.09     0.121 A 
HETATM   18  C82   D T   1      -6.214   7.319  -7.924  1.00 16.91     0.026 A 
HETATM   19  C81   D T   1      -6.968   7.884  -6.898  1.00 15.47     0.041 A 
HETATM   20  N1    D T   1      -8.780   7.306  -5.235  1.00 17.79    -0.223 NA
HETATM   21  C1    D T   1      -9.444   6.106  -5.035  1.00 15.62     0.128 A 
ENDBRANCH  12  13
ENDBRANCH   8  11
ENDBRANCH   1   4
BRANCH   3  22
HETATM   22  C13   D T   1      -6.642  -3.564  -6.386  1.00  8.39     0.085 A 
HETATM   23  C14   D T   1      -7.099  -4.766  -6.969  1.00 14.59     0.019 A 
HETATM   24  C15   D T   1      -6.301  -5.945  -6.915  1.00 11.91    -0.001 A 
HETATM   25  C16   D T   1      -5.029  -5.947  -6.280  1.00 12.96     0.015 A 
HETATM   26  C17   D T   1      -4.540  -4.717  -5.671  1.00 14.62     0.071 A 
HETATM   27  C18   D T   1      -5.363  -3.546  -5.740  1.00 11.52     0.023 A 
BRANCH  25  28
HETATM   28  C20   D T   1      -4.232  -7.262  -6.276  1.00 11.54     0.277 C 
BRANCH  28  29
HETATM   29  N3    D T   1      -4.838  -8.300  -7.089  1.00 12.77     0.146 N 
HETATM   30  C21   D T   1      -3.927  -9.419  -7.429  1.00  9.68     0.286 C 
HETATM   31  C22   D T   1      -4.621 -10.394  -8.415  1.00 12.27     0.286 C 
HETATM   32  N4    D T   1      -5.909 -10.897  -7.864  1.00 14.63     0.143 N 
HETATM   33  C23   D T   1      -6.794  -9.787  -7.399  1.00 13.23     0.286 C 
HETATM   34  C25   D T   1      -6.597 -11.747  -8.844  1.00 14.49     0.285 C 
HETATM   35  C24   D T   1      -6.060  -8.838  -6.430  1.00 15.42     0.286 C 
ENDBRANCH  28  29
ENDBRANCH  25  28
BRANCH  26  36
HETATM   36  C19   D T   1      -3.193  -4.622  -4.974  1.00 14.58     0.419 C 
HETATM   37  F1    D T   1      -2.223  -4.748  -5.868  1.00 18.20    -0.166 F 
HETATM   38  F2    D T   1      -3.014  -3.450  -4.375  1.00 18.68    -0.166 F 
HETATM   39  F3    D T   1      -3.103  -5.590  -4.035  1.00 14.12    -0.166 F 
ENDBRANCH  26  36
ENDBRANCH   3  22
TORSDOF 7
ENDMDL
MODEL 4
REMARK VINA RESULT:    -9.153      3.059     13.008
REMARK INTER + INTRA:         -13.332
REMARK INTER:                 -12.153
REMARK INTRA:                  -1.179
REMARK UNBOUND:                -0.433
REMARK  7 active torsions:
REMARK  status: ('A' for Active; 'I' for Inactive)
REMARK    1  A    between atoms: N3_2  and  C20_12 
REMARK    2  A    between atoms: C4_3  and  C5_4 
REMARK    3  A    between atoms: C13_9  and  N2_29 
REMARK    4  A    between atoms: C17_11  and  C19_33 
REMARK    5  A    between atoms: C20_12  and  C16_31 
REMARK    6  A    between atoms: C2_23  and  C3_24 
REMARK    7  A    between atoms: C9_25  and  C12_27 
REMARK       I    between atoms: C12_27  and  N2_29 
ROOT
HETATM    1  C12   D T   1      -5.265  -2.321  -5.187  1.00  8.81     0.275 C 
HETATM    2  O1    D T   1      -4.777  -1.343  -4.608  1.00 13.93    -0.266 OA
HETATM    3  N2    D T   1      -6.497  -2.328  -5.770  1.00 10.31    -0.208 NA
ENDROOT
BRANCH   1   4
HETATM    4  C9    D T   1      -4.484  -3.582  -5.261  1.00 12.21     0.037 A 
HETATM    5  C8    D T   1      -3.074  -3.665  -4.927  1.00 10.40     0.036 A 
HETATM    6  C7    D T   1      -2.388  -4.949  -5.026  1.00  7.63     0.028 A 
HETATM    7  C6    D T   1      -3.096  -6.109  -5.443  1.00  7.91    -0.036 A 
HETATM    8  C5    D T   1      -4.505  -6.010  -5.773  1.00 10.18     0.034 A 
HETATM    9  C11   D T   1      -2.345  -7.446  -5.526  1.00  9.41     0.027 C 
HETATM   10  C10   D T   1      -5.175  -4.769  -5.680  1.00 11.17     0.008 A 
BRANCH   8  11
HETATM   11  C4    D T   1      -5.299  -7.151  -6.201  1.00 10.71    -0.059 C 
HETATM   12  C3    D T   1      -5.933  -8.129  -6.489  1.00 12.15    -0.039 C 
BRANCH  12  13
HETATM   13  C2    D T   1      -6.660  -9.294  -6.768  1.00 14.46     0.145 A 
HETATM   14  N82   D T   1      -6.219 -10.358  -7.500  1.00 14.03    -0.203 N 
HETATM   15  N81   D T   1      -4.995 -10.495  -8.102  1.00 15.71    -0.162 NA
HETATM   16  C84   D T   1      -7.315 -11.279  -7.500  1.00 14.58     0.165 A 
HETATM   17  C83   D T   1      -4.865 -11.659  -8.758  1.00 17.09     0.121 A 
HETATM   18  C82   D T   1      -5.867 -12.680  -8.848  1.00 16.91     0.026 A 
HETATM   19  C81   D T   1      -7.093 -12.485  -8.216  1.00 15.47     0.041 A 
HETATM   20  N1    D T   1      -8.342 -10.795  -6.813  1.00 17.79    -0.223 NA
HETATM   21  C1    D T   1      -7.932  -9.551  -6.358  1.00 15.62     0.128 A 
ENDBRANCH  12  13
ENDBRANCH   8  11
ENDBRANCH   1   4
BRANCH   3  22
HETATM   22  C13   D T   1      -7.256  -1.176  -6.153  1.00  8.39     0.085 A 
HETATM   23  C14   D T   1      -6.718  -0.341  -7.157  1.00 14.59     0.019 A 
HETATM   24  C15   D T   1      -7.425   0.818  -7.589  1.00 11.91    -0.001 A 
HETATM   25  C16   D T   1      -8.686   1.165  -7.030  1.00 12.96     0.015 A 
HETATM   26  C17   D T   1      -9.257   0.317  -5.992  1.00 14.62     0.071 A 
HETATM   27  C18   D T   1      -8.524  -0.843  -5.576  1.00 11.52     0.023 A 
BRANCH  25  28
HETATM   28  C20   D T   1      -9.382   2.428  -7.561  1.00 11.54     0.277 C 
BRANCH  28  29
HETATM   29  N3    D T   1      -8.593   3.633  -7.386  1.00 12.77     0.146 N 
HETATM   30  C21   D T   1      -8.797   4.655  -8.440  1.00  9.68     0.286 C 
HETATM   31  C22   D T   1      -7.807   5.832  -8.244  1.00 12.27     0.286 C 
HETATM   32  N4    D T   1      -7.934   6.427  -6.885  1.00 14.63     0.143 N 
HETATM   33  C23   D T   1      -7.856   5.394  -5.809  1.00 13.23     0.286 C 
HETATM   34  C25   D T   1      -6.930   7.479  -6.683  1.00 14.49     0.285 C 
HETATM   35  C24   D T   1      -8.849   4.239  -6.050  1.00 15.42     0.286 C 
ENDBRANCH  28  29
ENDBRANCH  25  28
BRANCH  26  36
HETATM   36  C19   D T   1     -10.598   0.605  -5.338  1.00 14.58     0.419 C 
HETATM   37  F1    D T   1     -11.555   0.561  -6.254  1.00 18.20    -0.166 F 
HETATM   38  F2    D T   1     -10.913  -0.291  -4.411  1.00 18.68    -0.166 F 
HETATM   39  F3    D T   1     -10.559   1.821  -4.749  1.00 14.12    -0.166 F 
ENDBRANCH  26  36
ENDBRANCH   3  22
TORSDOF 7
ENDMDL
MODEL 5
REMARK VINA RESULT:    -8.862      3.619      6.174
REMARK INTER + INTRA:         -12.921
REMARK INTER:                 -12.031
REMARK INTRA:                  -0.891
REMARK UNBOUND:                -0.433
REMARK  7 active torsions:
REMARK  status: ('A' for Active; 'I' for Inactive)
REMARK    1  A    between atoms: N3_2  and  C20_12 
REMARK    2  A    between atoms: C4_3  and  C5_4 
REMARK    3  A    between atoms: C13_9  and  N2_29 
REMARK    4  A    between atoms: C17_11  and  C19_33 
REMARK    5  A    between atoms: C20_12  and  C16_31 
REMARK    6  A    between atoms: C2_23  and  C3_24 
REMARK    7  A    between atoms: C9_25  and  C12_27 
REMARK       I    between atoms: C12_27  and  N2_29 
ROOT
HETATM    1  C12   D T   1      -8.687   3.001  -7.387  1.00  8.81     0.275 C 
HETATM    2  O1    D T   1      -9.241   2.693  -8.448  1.00 13.93    -0.266 OA
HETATM    3  N2    D T   1      -8.236   2.099  -6.469  1.00 10.31    -0.208 NA
ENDROOT
BRANCH   1   4
HETATM    4  C9    D T   1      -8.490   4.437  -7.063  1.00 12.21     0.037 A 
HETATM    5  C8    D T   1      -7.316   5.189  -7.467  1.00 10.40     0.036 A 
HETATM    6  C7    D T   1      -7.209   6.600  -7.108  1.00  7.63     0.028 A 
HETATM    7  C6    D T   1      -8.248   7.231  -6.371  1.00  7.91    -0.036 A 
HETATM    8  C5    D T   1      -9.415   6.466  -5.974  1.00 10.18     0.034 A 
HETATM    9  C11   D T   1      -8.108   8.720  -6.019  1.00  9.41     0.027 C 
HETATM   10  C10   D T   1      -9.523   5.099  -6.319  1.00 11.17     0.008 A 
BRANCH   8  11
HETATM   11  C4    D T   1     -10.521   7.041  -5.226  1.00 10.71    -0.059 C 
HETATM   12  C3    D T   1     -11.471   7.450  -4.617  1.00 12.15    -0.039 C 
BRANCH  12  13
HETATM   13  C2    D T   1     -12.606   7.870  -3.910  1.00 14.46     0.145 A 
HETATM   14  N82   D T   1     -13.365   7.097  -3.080  1.00 14.03    -0.203 N 
HETATM   15  N81   D T   1     -13.173   5.773  -2.781  1.00 15.71    -0.162 NA
HETATM   16  C84   D T   1     -14.396   7.972  -2.610  1.00 14.58     0.165 A 
HETATM   17  C83   D T   1     -14.096   5.291  -1.935  1.00 17.09     0.121 A 
HETATM   18  C82   D T   1     -15.185   6.040  -1.376  1.00 16.91     0.026 A 
HETATM   19  C81   D T   1     -15.331   7.382  -1.718  1.00 15.47     0.041 A 
HETATM   20  N1    D T   1     -14.259   9.187  -3.125  1.00 17.79    -0.223 NA
HETATM   21  C1    D T   1     -13.141   9.121  -3.942  1.00 15.62     0.128 A 
ENDBRANCH  12  13
ENDBRANCH   8  11
ENDBRANCH   1   4
BRANCH   3  22
HETATM   22  C13   D T   1      -7.973   0.712  -6.709  1.00  8.39     0.085 A 
HETATM   23  C14   D T   1      -7.112   0.384  -7.779  1.00 14.59     0.019 A 
HETATM   24  C15   D T   1      -6.803  -0.977  -8.067  1.00 11.91    -0.001 A 
HETATM   25  C16   D T   1      -7.345  -2.038  -7.290  1.00 12.96     0.015 A 
HETATM   26  C17   D T   1      -8.236  -1.719  -6.182  1.00 14.62     0.071 A 
HETATM   27  C18   D T   1      -8.530  -0.342  -5.915  1.00 11.52     0.023 A 
BRANCH  25  28
HETATM   28  C20   D T   1      -6.951  -3.475  -7.666  1.00 11.54     0.277 C 
BRANCH  28  29
HETATM   29  N3    D T   1      -5.982  -4.059  -6.758  1.00 12.77     0.146 N 
HETATM   30  C21   D T   1      -5.966  -5.541  -6.753  1.00  9.68     0.286 C 
HETATM   31  C22   D T   1      -5.008  -6.063  -5.650  1.00 12.27     0.286 C 
HETATM   32  N4    D T   1      -3.637  -5.511  -5.817  1.00 14.63     0.143 N 
HETATM   33  C23   D T   1      -3.642  -4.022  -5.950  1.00 13.23     0.286 C 
HETATM   34  C25   D T   1      -2.765  -5.941  -4.717  1.00 14.49     0.285 C 
HETATM   35  C24   D T   1      -4.614  -3.549  -7.049  1.00 15.42     0.286 C 
ENDBRANCH  28  29
ENDBRANCH  25  28
BRANCH  26  36
HETATM   36  C19   D T   1      -8.860  -2.784  -5.295  1.00 14.58     0.419 C 
HETATM   37  F1    D T   1      -7.920  -3.341  -4.545  1.00 18.20    -0.166 F 
HETATM   38  F2    D T   1      -9.767  -2.283  -4.464  1.00 18.68    -0.166 F 
HETATM   39  F3    D T   1      -9.466  -3.713  -6.066  1.00 14.12    -0.166 F 
ENDBRANCH  26  36
ENDBRANCH   3  22
TORSDOF 7
ENDMDL
MODEL 6
REMARK VINA RESULT:    -8.756      3.656     13.155
REMARK INTER + INTRA:         -12.773
REMARK INTER:                 -11.758
REMARK INTRA:                  -1.015
REMARK UNBOUND:                -0.433
REMARK  7 active torsions:
REMARK  status: ('A' for Active; 'I' for Inactive)
REMARK    1  A    between atoms: N3_2  and  C20_12 
REMARK    2  A    between atoms: C4_3  and  C5_4 
REMARK    3  A    between atoms: C13_9  and  N2_29 
REMARK    4  A    between atoms: C17_11  and  C19_33 
REMARK    5  A    between atoms: C20_12  and  C16_31 
REMARK    6  A    between atoms: C2_23  and  C3_24 
REMARK    7  A    between atoms: C9_25  and  C12_27 
REMARK       I    between atoms: C12_27  and  N2_29 
ROOT
HETATM    1  C12   D T   1      -7.628  -0.546  -6.006  1.00  8.81     0.275 C 
HETATM    2  O1    D T   1      -8.687  -0.736  -5.398  1.00 13.93    -0.266 OA
HETATM    3  N2    D T   1      -7.426   0.470  -6.892  1.00 10.31    -0.208 NA
ENDROOT
BRANCH   1   4
HETATM    4  C9    D T   1      -6.488  -1.471  -5.780  1.00 12.21     0.037 A 
HETATM    5  C8    D T   1      -5.226  -1.051  -5.200  1.00 10.40     0.036 A 
HETATM    6  C7    D T   1      -4.161  -2.031  -5.011  1.00  7.63     0.028 A 
HETATM    7  C6    D T   1      -4.360  -3.386  -5.390  1.00  7.91    -0.036 A 
HETATM    8  C5    D T   1      -5.627  -3.791  -5.969  1.00 10.18     0.034 A 
HETATM    9  C11   D T   1      -3.222  -4.393  -5.168  1.00  9.41     0.027 C 
HETATM   10  C10   D T   1      -6.662  -2.846  -6.155  1.00 11.17     0.008 A 
BRANCH   8  11
HETATM   11  C4    D T   1      -5.910  -5.159  -6.375  1.00 10.71    -0.059 C 
HETATM   12  C3    D T   1      -6.206  -6.285  -6.667  1.00 12.15    -0.039 C 
BRANCH  12  13
HETATM   13  C2    D T   1      -6.606  -7.592  -6.977  1.00 14.46     0.145 A 
HETATM   14  N82   D T   1      -5.781  -8.669  -7.124  1.00 14.03    -0.203 N 
HETATM   15  N81   D T   1      -4.415  -8.685  -7.004  1.00 15.71    -0.162 NA
HETATM   16  C84   D T   1      -6.656  -9.758  -7.436  1.00 14.58     0.165 A 
HETATM   17  C83   D T   1      -3.888  -9.901  -7.215  1.00 17.09     0.121 A 
HETATM   18  C82   D T   1      -4.630 -11.086  -7.532  1.00 16.91     0.026 A 
HETATM   19  C81   D T   1      -6.017 -11.009  -7.642  1.00 15.47     0.041 A 
HETATM   20  N1    D T   1      -7.920  -9.356  -7.472  1.00 17.79    -0.223 NA
HETATM   21  C1    D T   1      -7.887  -7.999  -7.187  1.00 15.62     0.128 A 
ENDBRANCH  12  13
ENDBRANCH   8  11
ENDBRANCH   1   4
BRANCH   3  22
HETATM   22  C13   D T   1      -8.203   1.668  -6.993  1.00  8.39     0.085 A 
HETATM   23  C14   D T   1      -9.532   1.550  -7.456  1.00 14.59     0.019 A 
HETATM   24  C15   D T   1     -10.362   2.702  -7.573  1.00 11.91    -0.001 A 
HETATM   25  C16   D T   1      -9.883   3.996  -7.226  1.00 12.96     0.015 A 
HETATM   26  C17   D T   1      -8.514   4.138  -6.748  1.00 14.62     0.071 A 
HETATM   27  C18   D T   1      -7.701   2.962  -6.639  1.00 11.52     0.023 A 
BRANCH  25  28
HETATM   28  C20   D T   1     -10.849   5.181  -7.375  1.00 11.54     0.277 C 
BRANCH  28  29
HETATM   29  N3    D T   1     -11.493   5.554  -6.130  1.00 12.77     0.146 N 
HETATM   30  C21   D T   1     -11.421   7.001  -5.815  1.00  9.68     0.286 C 
HETATM   31  C22   D T   1     -12.003   7.272  -4.403  1.00 12.27     0.286 C 
HETATM   32  N4    D T   1     -13.397   6.764  -4.285  1.00 14.63     0.143 N 
HETATM   33  C23   D T   1     -13.516   5.339  -4.718  1.00 13.23     0.286 C 
HETATM   34  C25   D T   1     -13.903   6.946  -2.919  1.00 14.49     0.285 C 
HETATM   35  C24   D T   1     -12.916   5.115  -6.121  1.00 15.42     0.286 C 
ENDBRANCH  28  29
ENDBRANCH  25  28
BRANCH  26  36
HETATM   36  C19   D T   1      -7.916   5.478  -6.351  1.00 14.58     0.419 C 
HETATM   37  F1    D T   1      -8.396   5.844  -5.172  1.00 18.20    -0.166 F 
HETATM   38  F2    D T   1      -6.594   5.426  -6.228  1.00 18.68    -0.166 F 
HETATM   39  F3    D T   1      -8.212   6.399  -7.294  1.00 14.12    -0.166 F 
ENDBRANCH  26  36
ENDBRANCH   3  22
TORSDOF 7
ENDMDL
MODEL 7
REMARK VINA RESULT:    -8.591      3.356      5.959
REMARK INTER + INTRA:         -12.539
REMARK INTER:                 -11.695
REMARK INTRA:                  -0.844
REMARK UNBOUND:                -0.433
REMARK  7 active torsions:
REMARK  status: ('A' for Active; 'I' for Inactive)
REMARK    1  A    between atoms: N3_2  and  C20_12 
REMARK    2  A    between atoms: C4_3  and  C5_4 
REMARK    3  A    between atoms: C13_9  and  N2_29 
REMARK    4  A    between atoms: C17_11  and  C19_33 
REMARK    5  A    between atoms: C20_12  and  C16_31 
REMARK    6  A    between atoms: C2_23  and  C3_24 
REMARK    7  A    between atoms: C9_25  and  C12_27 
REMARK       I    between atoms: C12_27  and  N2_29 
ROOT
HETATM    1  C12   D T   1      -8.833   2.978  -7.019  1.00  8.81     0.275 C 
HETATM    2  O1    D T   1      -9.796   2.649  -7.721  1.00 13.93    -0.266 OA
HETATM    3  N2    D T   1      -8.036   2.097  -6.350  1.00 10.31    -0.208 NA
ENDROOT
BRANCH   1   4
HETATM    4  C9    D T   1      -8.502   4.419  -6.874  1.00 12.21     0.037 A 
HETATM    5  C8    D T   1      -7.245   4.994  -7.315  1.00 10.40     0.036 A 
HETATM    6  C7    D T   1      -7.008   6.423  -7.136  1.00  7.63     0.028 A 
HETATM    7  C6    D T   1      -8.001   7.243  -6.536  1.00  7.91    -0.036 A 
HETATM    8  C5    D T   1      -9.253   6.654  -6.101  1.00 10.18     0.034 A 
HETATM    9  C11   D T   1      -7.723   8.745  -6.373  1.00  9.41     0.027 C 
HETATM   10  C10   D T   1      -9.488   5.271  -6.271  1.00 11.17     0.008 A 
BRANCH   8  11
HETATM   11  C4    D T   1     -10.320   7.428  -5.486  1.00 10.71    -0.059 C 
HETATM   12  C3    D T   1     -11.180   8.126  -5.023  1.00 12.15    -0.039 C 
BRANCH  12  13
HETATM   13  C2    D T   1     -12.171   8.984  -4.527  1.00 14.46     0.145 A 
HETATM   14  N82   D T   1     -12.129  10.348  -4.540  1.00 14.03    -0.203 N 
HETATM   15  N81   D T   1     -11.123  11.138  -5.031  1.00 15.71    -0.162 NA
HETATM   16  C84   D T   1     -13.355  10.755  -3.924  1.00 14.58     0.165 A 
HETATM   17  C83   D T   1     -11.375  12.449  -4.892  1.00 17.09     0.121 A 
HETATM   18  C82   D T   1     -12.554  13.011  -4.301  1.00 16.91     0.026 A 
HETATM   19  C81   D T   1     -13.544  12.159  -3.817  1.00 15.47     0.041 A 
HETATM   20  N1    D T   1     -14.080   9.702  -3.567  1.00 17.79    -0.223 NA
HETATM   21  C1    D T   1     -13.336   8.594  -3.942  1.00 15.62     0.128 A 
ENDBRANCH  12  13
ENDBRANCH   8  11
ENDBRANCH   1   4
BRANCH   3  22
HETATM   22  C13   D T   1      -7.916   0.696  -6.622  1.00  8.39     0.085 A 
HETATM   23  C14   D T   1      -7.168   0.310  -7.755  1.00 14.59     0.019 A 
HETATM   24  C15   D T   1      -7.003  -1.068  -8.078  1.00 11.91    -0.001 A 
HETATM   25  C16   D T   1      -7.579  -2.089  -7.273  1.00 12.96     0.015 A 
HETATM   26  C17   D T   1      -8.355  -1.711  -6.099  1.00 14.62     0.071 A 
HETATM   27  C18   D T   1      -8.505  -0.318  -5.798  1.00 11.52     0.023 A 
BRANCH  25  28
HETATM   28  C20   D T   1      -7.343  -3.549  -7.690  1.00 11.54     0.277 C 
BRANCH  28  29
HETATM   29  N3    D T   1      -6.070  -4.076  -7.235  1.00 12.77     0.146 N 
HETATM   30  C21   D T   1      -5.331  -3.176  -6.317  1.00  9.68     0.286 C 
HETATM   31  C22   D T   1      -3.928  -3.761  -6.008  1.00 12.27     0.286 C 
HETATM   32  N4    D T   1      -4.025  -5.137  -5.451  1.00 14.63     0.143 N 
HETATM   33  C23   D T   1      -4.871  -6.030  -6.299  1.00 13.23     0.286 C 
HETATM   34  C25   D T   1      -2.689  -5.711  -5.249  1.00 14.49     0.285 C 
HETATM   35  C24   D T   1      -6.251  -5.405  -6.588  1.00 15.42     0.286 C 
ENDBRANCH  28  29
ENDBRANCH  25  28
BRANCH  26  36
HETATM   36  C19   D T   1      -9.005  -2.730  -5.178  1.00 14.58     0.419 C 
HETATM   37  F1    D T   1      -8.065  -3.436  -4.566  1.00 18.20    -0.166 F 
HETATM   38  F2    D T   1      -9.737  -2.160  -4.227  1.00 18.68    -0.166 F 
HETATM   39  F3    D T   1      -9.813  -3.538  -5.900  1.00 14.12    -0.166 F 
ENDBRANCH  26  36
ENDBRANCH   3  22
TORSDOF 7
ENDMDL
MODEL 8
REMARK VINA RESULT:    -8.530      3.907     12.878
REMARK INTER + INTRA:         -12.454
REMARK INTER:                 -11.307
REMARK INTRA:                  -1.147
REMARK UNBOUND:                -0.433
REMARK  7 active torsions:
REMARK  status: ('A' for Active; 'I' for Inactive)
REMARK    1  A    between atoms: N3_2  and  C20_12 
REMARK    2  A    between atoms: C4_3  and  C5_4 
REMARK    3  A    between atoms: C13_9  and  N2_29 
REMARK    4  A    between atoms: C17_11  and  C19_33 
REMARK    5  A    between atoms: C20_12  and  C16_31 
REMARK    6  A    between atoms: C2_23  and  C3_24 
REMARK    7  A    between atoms: C9_25  and  C12_27 
REMARK       I    between atoms: C12_27  and  N2_29 
ROOT
HETATM    1  C12   D T   1      -5.821  -2.542  -6.365  1.00  8.81     0.275 C 
HETATM    2  O1    D T   1      -5.574  -1.788  -7.312  1.00 13.93    -0.266 OA
HETATM    3  N2    D T   1      -6.949  -2.469  -5.602  1.00 10.31    -0.208 NA
ENDROOT
BRANCH   1   4
HETATM    4  C9    D T   1      -4.843  -3.602  -6.008  1.00 12.21     0.037 A 
HETATM    5  C8    D T   1      -3.586  -3.329  -5.335  1.00 10.40     0.036 A 
HETATM    6  C7    D T   1      -2.687  -4.435  -5.020  1.00  7.63     0.028 A 
HETATM    7  C6    D T   1      -3.041  -5.766  -5.369  1.00  7.91    -0.036 A 
HETATM    8  C5    D T   1      -4.300  -6.023  -6.042  1.00 10.18     0.034 A 
HETATM    9  C11   D T   1      -2.075  -6.907  -5.013  1.00  9.41     0.027 C 
HETATM   10  C10   D T   1      -5.175  -4.956  -6.350  1.00 11.17     0.008 A 
BRANCH   8  11
HETATM   11  C4    D T   1      -4.735  -7.356  -6.425  1.00 10.71    -0.059 C 
HETATM   12  C3    D T   1      -5.060  -8.447  -6.808  1.00 12.15    -0.039 C 
BRANCH  12  13
HETATM   13  C2    D T   1      -5.405  -9.710  -7.308  1.00 14.46     0.145 A 
HETATM   14  N82   D T   1      -6.455 -10.476  -6.893  1.00 14.03    -0.203 N 
HETATM   15  N81   D T   1      -7.367 -10.168  -5.917  1.00 15.71    -0.162 NA
HETATM   16  C84   D T   1      -6.381 -11.659  -7.695  1.00 14.58     0.165 A 
HETATM   17  C83   D T   1      -8.281 -11.134  -5.735  1.00 17.09     0.121 A 
HETATM   18  C82   D T   1      -8.341 -12.370  -6.458  1.00 16.91     0.026 A 
HETATM   19  C81   D T   1      -7.387 -12.629  -7.440  1.00 15.47     0.041 A 
HETATM   20  N1    D T   1      -5.354 -11.602  -8.533  1.00 17.79    -0.223 NA
HETATM   21  C1    D T   1      -4.741 -10.382  -8.287  1.00 15.62     0.128 A 
ENDBRANCH  12  13
ENDBRANCH   8  11
ENDBRANCH   1   4
BRANCH   3  22
HETATM   22  C13   D T   1      -8.169  -1.813  -5.962  1.00  8.39     0.085 A 
HETATM   23  C14   D T   1      -8.433  -0.552  -5.382  1.00 14.59     0.019 A 
HETATM   24  C15   D T   1      -9.626   0.156  -5.704  1.00 11.91    -0.001 A 
HETATM   25  C16   D T   1     -10.579  -0.377  -6.615  1.00 12.96     0.015 A 
HETATM   26  C17   D T   1     -10.326  -1.677  -7.223  1.00 14.62     0.071 A 
HETATM   27  C18   D T   1      -9.118  -2.368  -6.882  1.00 11.52     0.023 A 
BRANCH  25  28
HETATM   28  C20   D T   1     -11.834   0.460  -6.911  1.00 11.54     0.277 C 
BRANCH  28  29
HETATM   29  N3    D T   1     -11.812   1.765  -6.279  1.00 12.77     0.146 N 
HETATM   30  C21   D T   1     -11.748   2.902  -7.228  1.00  9.68     0.286 C 
HETATM   31  C22   D T   1     -11.580   4.237  -6.456  1.00 12.27     0.286 C 
HETATM   32  N4    D T   1     -12.670   4.428  -5.461  1.00 14.63     0.143 N 
HETATM   33  C23   D T   1     -12.835   3.239  -4.571  1.00 13.23     0.286 C 
HETATM   34  C25   D T   1     -12.449   5.649  -4.676  1.00 14.49     0.285 C 
HETATM   35  C24   D T   1     -12.988   1.935  -5.381  1.00 15.42     0.286 C 
ENDBRANCH  28  29
ENDBRANCH  25  28
BRANCH  26  36
HETATM   36  C19   D T   1     -11.284  -2.325  -8.209  1.00 14.58     0.419 C 
HETATM   37  F1    D T   1     -12.449  -2.541  -7.617  1.00 18.20    -0.166 F 
HETATM   38  F2    D T   1     -11.525  -1.553  -9.263  1.00 18.68    -0.166 F 
HETATM   39  F3    D T   1     -10.753  -3.485  -8.655  1.00 14.12    -0.166 F 
ENDBRANCH  26  36
ENDBRANCH   3  22
TORSDOF 7
ENDMDL
MODEL 9
REMARK VINA RESULT:    -8.125      5.911     14.571
REMARK INTER + INTRA:         -11.882
REMARK INTER:                 -10.692
REMARK INTRA:                  -1.190
REMARK UNBOUND:                -0.433
REMARK  7 active torsions:
REMARK  status: ('A' for Active; 'I' for Inactive)
REMARK    1  A    between atoms: N3_2  and  C20_12 
REMARK    2  A    between atoms: C4_3  and  C5_4 
REMARK    3  A    between atoms: C13_9  and  N2_29 
REMARK    4  A    between atoms: C17_11  and  C19_33 
REMARK    5  A    between atoms: C20_12  and  C16_31 
REMARK    6  A    between atoms: C2_23  and  C3_24 
REMARK    7  A    between atoms: C9_25  and  C12_27 
REMARK       I    between atoms: C12_27  and  N2_29 
ROOT
HETATM    1  C12   D T   1     -10.263   5.064  -6.360  1.00  8.81     0.275 C 
HETATM    2  O1    D T   1     -10.604   5.434  -7.490  1.00 13.93    -0.266 OA
HETATM    3  N2    D T   1      -9.664   5.871  -5.439  1.00 10.31    -0.208 NA
ENDROOT
BRANCH   1   4
HETATM    4  C9    D T   1     -10.504   3.655  -5.957  1.00 12.21     0.037 A 
HETATM    5  C8    D T   1     -11.684   3.228  -5.228  1.00 10.40     0.036 A 
HETATM    6  C7    D T   1     -11.840   1.820  -4.876  1.00  7.63     0.028 A 
HETATM    7  C6    D T   1     -10.845   0.876  -5.248  1.00  7.91    -0.036 A 
HETATM    8  C5    D T   1      -9.671   1.318  -5.976  1.00 10.18     0.034 A 
HETATM    9  C11   D T   1     -11.046  -0.600  -4.871  1.00  9.41     0.027 C 
HETATM   10  C10   D T   1      -9.515   2.680  -6.319  1.00 11.17     0.008 A 
BRANCH   8  11
HETATM   11  C4    D T   1      -8.614   0.412  -6.397  1.00 10.71    -0.059 C 
HETATM   12  C3    D T   1      -7.703  -0.316  -6.681  1.00 12.15    -0.039 C 
BRANCH  12  13
HETATM   13  C2    D T   1      -6.614  -1.154  -6.957  1.00 14.46     0.145 A 
HETATM   14  N82   D T   1      -6.530  -2.483  -6.661  1.00 14.03    -0.203 N 
HETATM   15  N81   D T   1      -7.480  -3.252  -6.040  1.00 15.71    -0.162 NA
HETATM   16  C84   D T   1      -5.238  -2.880  -7.133  1.00 14.58     0.165 A 
HETATM   17  C83   D T   1      -7.096  -4.528  -5.883  1.00 17.09     0.121 A 
HETATM   18  C82   D T   1      -5.840  -5.077  -6.304  1.00 16.91     0.026 A 
HETATM   19  C81   D T   1      -4.912  -4.247  -6.930  1.00 15.47     0.041 A 
HETATM   20  N1    D T   1      -4.595  -1.854  -7.676  1.00 17.79    -0.223 NA
HETATM   21  C1    D T   1      -5.456  -0.773  -7.562  1.00 15.62     0.128 A 
ENDBRANCH  12  13
ENDBRANCH   8  11
ENDBRANCH   1   4
BRANCH   3  22
HETATM   22  C13   D T   1      -9.669   7.303  -5.442  1.00  8.39     0.085 A 
HETATM   23  C14   D T   1      -8.466   7.962  -5.775  1.00 14.59     0.019 A 
HETATM   24  C15   D T   1      -8.405   9.385  -5.803  1.00 11.91    -0.001 A 
HETATM   25  C16   D T   1      -9.546  10.180  -5.504  1.00 12.96     0.015 A 
HETATM   26  C17   D T   1     -10.797   9.518  -5.157  1.00 14.62     0.071 A 
HETATM   27  C18   D T   1     -10.830   8.085  -5.136  1.00 11.52     0.023 A 
BRANCH  25  28
HETATM   28  C20   D T   1      -9.392  11.708  -5.567  1.00 11.54     0.277 C 
BRANCH  28  29
HETATM   29  N3    D T   1      -8.373  12.217  -4.669  1.00 12.77     0.146 N 
HETATM   30  C21   D T   1      -8.009  13.635  -4.902  1.00  9.68     0.286 C 
HETATM   31  C22   D T   1      -6.816  14.038  -3.996  1.00 12.27     0.286 C 
HETATM   32  N4    D T   1      -7.117  13.788  -2.560  1.00 14.63     0.143 N 
HETATM   33  C23   D T   1      -7.607  12.397  -2.321  1.00 13.23     0.286 C 
HETATM   34  C25   D T   1      -5.949  14.088  -1.723  1.00 14.49     0.285 C 
HETATM   35  C24   D T   1      -8.785  12.037  -3.250  1.00 15.42     0.286 C 
ENDBRANCH  28  29
ENDBRANCH  25  28
BRANCH  26  36
HETATM   36  C19   D T   1     -12.068  10.282  -4.826  1.00 14.58     0.419 C 
HETATM   37  F1    D T   1     -12.443  10.995  -5.878  1.00 18.20    -0.166 F 
HETATM   38  F2    D T   1     -13.080   9.476  -4.528  1.00 18.68    -0.166 F 
HETATM   39  F3    D T   1     -11.845  11.085  -3.762  1.00 14.12    -0.166 F 
ENDBRANCH  26  36
ENDBRANCH   3  22
TORSDOF 7
ENDMDL
