MODEL 1
REMARK VINA RESULT:    -9.804      0.000      0.000
REMARK INTER + INTRA:         -14.941
REMARK INTER:                 -13.815
REMARK INTRA:                  -1.126
REMARK UNBOUND:                -1.126
REMARK  7 active torsions:
REMARK  status: ('A' for Active; 'I' for Inactive)
REMARK    1  A    between atoms: N3_2  and  C20_12 
REMARK    2  A    between atoms: C4_3  and  C5_4 
REMARK    3  A    between atoms: C13_9  and  N2_29 
REMARK    4  A    between atoms: C17_11  and  C19_33 
REMARK    5  A    between atoms: C20_12  and  C16_31 
REMARK    6  A    between atoms: C2_23  and  C3_24 
REMARK    7  A    between atoms: C9_25  and  C12_27 
REMARK       I    between atoms: C12_27  and  N2_29 
ROOT
HETATM    1  C12   D T   1     -10.941   3.215  -5.628  1.00  8.81     0.275 C 
HETATM    2  O1    D T   1      -9.850   2.665  -5.812  1.00 13.93    -0.266 OA
HETATM    3  N2    D T   1     -12.106   2.823  -6.220  1.00 10.31    -0.208 NA
ENDROOT
BRANCH   1   4
HETATM    4  C9    D T   1     -11.019   4.380  -4.711  1.00 12.21     0.037 A 
HETATM    5  C8    D T   1      -9.953   5.357  -4.574  1.00 10.40     0.036 A 
HETATM    6  C7    D T   1     -10.117   6.474  -3.650  1.00  7.63     0.028 A 
HETATM    7  C6    D T   1     -11.312   6.605  -2.892  1.00  7.91    -0.036 A 
HETATM    8  C5    D T   1     -12.368   5.621  -3.040  1.00 10.18     0.034 A 
HETATM    9  C11   D T   1     -11.457   7.799  -1.937  1.00  9.41     0.027 C 
HETATM   10  C10   D T   1     -12.214   4.538  -3.934  1.00 11.17     0.008 A 
BRANCH   8  11
HETATM   11  C4    D T   1     -13.622   5.691  -2.305  1.00 10.71    -0.059 C 
HETATM   12  C3    D T   1     -14.622   5.711  -1.641  1.00 12.15    -0.039 C 
BRANCH  12  13
HETATM   13  C2    D T   1     -15.757   5.710  -0.818  1.00 14.46     0.145 A 
HETATM   14  N82   D T   1     -16.541   4.629  -0.535  1.00 14.03    -0.203 N 
HETATM   15  N81   D T   1     -16.378   3.349  -0.995  1.00 15.71    -0.162 NA
HETATM   16  C84   D T   1     -17.559   5.138   0.333  1.00 14.58     0.165 A 
HETATM   17  C83   D T   1     -17.321   2.508  -0.541  1.00 17.09     0.121 A 
HETATM   18  C82   D T   1     -18.401   2.864   0.334  1.00 16.91     0.026 A 
HETATM   19  C81   D T   1     -18.516   4.182   0.770  1.00 15.47     0.041 A 
HETATM   20  N1    D T   1     -17.393   6.435   0.552  1.00 17.79    -0.223 NA
HETATM   21  C1    D T   1     -16.267   6.793  -0.171  1.00 15.62     0.128 A 
ENDBRANCH  12  13
ENDBRANCH   8  11
ENDBRANCH   1   4
BRANCH   3  22
HETATM   22  C13   D T   1     -12.359   1.548  -6.821  1.00  8.39     0.085 A 
HETATM   23  C14   D T   1     -11.656   1.228  -8.002  1.00 14.59     0.019 A 
HETATM   24  C15   D T   1     -11.857  -0.026  -8.647  1.00 11.91    -0.001 A 
HETATM   25  C16   D T   1     -12.762  -0.989  -8.122  1.00 12.96     0.015 A 
HETATM   26  C17   D T   1     -13.499  -0.678  -6.904  1.00 14.62     0.071 A 
HETATM   27  C18   D T   1     -13.278   0.591  -6.277  1.00 11.52     0.023 A 
BRANCH  25  28
HETATM   28  C20   D T   1     -12.910  -2.320  -8.877  1.00 11.54     0.277 C 
BRANCH  28  29
HETATM   29  N3    D T   1     -13.451  -2.163 -10.214  1.00 12.77     0.146 N 
HETATM   30  C21   D T   1     -12.900  -3.112 -11.209  1.00  9.68     0.286 C 
HETATM   31  C22   D T   1     -13.427  -2.768 -12.627  1.00 12.27     0.286 C 
HETATM   32  N4    D T   1     -14.915  -2.753 -12.664  1.00 14.63     0.143 N 
HETATM   33  C23   D T   1     -15.496  -1.898 -11.584  1.00 13.23     0.286 C 
HETATM   34  C25   D T   1     -15.399  -2.338 -13.985  1.00 14.49     0.285 C 
HETATM   35  C24   D T   1     -14.937  -2.269 -10.196  1.00 15.42     0.286 C 
ENDBRANCH  28  29
ENDBRANCH  25  28
BRANCH  26  36
HETATM   36  C19   D T   1     -14.484  -1.645  -6.267  1.00 14.58     0.419 C 
HETATM   37  F1    D T   1     -15.008  -1.093  -5.183  1.00 18.20    -0.166 F 
HETATM   38  F2    D T   1     -15.495  -1.941  -7.076  1.00 18.68    -0.166 F 
HETATM   39  F3    D T   1     -13.846  -2.796  -5.957  1.00 14.12    -0.166 F 
ENDBRANCH  26  36
ENDBRANCH   3  22
TORSDOF 7
ENDMDL
MODEL 2
REMARK VINA RESULT:    -9.664      4.054     10.863
REMARK INTER + INTRA:         -14.745
REMARK INTER:                 -14.365
REMARK INTRA:                  -0.380
REMARK UNBOUND:                -1.126
REMARK  7 active torsions:
REMARK  status: ('A' for Active; 'I' for Inactive)
REMARK    1  A    between atoms: N3_2  and  C20_12 
REMARK    2  A    between atoms: C4_3  and  C5_4 
REMARK    3  A    between atoms: C13_9  and  N2_29 
REMARK    4  A    between atoms: C17_11  and  C19_33 
REMARK    5  A    between atoms: C20_12  and  C16_31 
REMARK    6  A    between atoms: C2_23  and  C3_24 
REMARK    7  A    between atoms: C9_25  and  C12_27 
REMARK       I    between atoms: C12_27  and  N2_29 
ROOT
HETATM    1  C12   D T   1     -12.240   5.625  -3.160  1.00  8.81     0.275 C 
HETATM    2  O1    D T   1     -12.141   6.856  -3.200  1.00 13.93    -0.266 OA
HETATM    3  N2    D T   1     -13.004   4.949  -2.255  1.00 10.31    -0.208 NA
ENDROOT
BRANCH   1   4
HETATM    4  C9    D T   1     -11.489   4.806  -4.144  1.00 12.21     0.037 A 
HETATM    5  C8    D T   1     -10.060   4.939  -4.365  1.00 10.40     0.036 A 
HETATM    6  C7    D T   1      -9.404   4.088  -5.352  1.00  7.63     0.028 A 
HETATM    7  C6    D T   1     -10.157   3.135  -6.089  1.00  7.91    -0.036 A 
HETATM    8  C5    D T   1     -11.585   3.014  -5.858  1.00 10.18     0.034 A 
HETATM    9  C11   D T   1      -9.434   2.248  -7.112  1.00  9.41     0.027 C 
HETATM   10  C10   D T   1     -12.225   3.836  -4.903  1.00 11.17     0.008 A 
BRANCH   8  11
HETATM   11  C4    D T   1     -12.422   2.059  -6.567  1.00 10.71    -0.059 C 
HETATM   12  C3    D T   1     -13.087   1.216  -7.104  1.00 12.15    -0.039 C 
BRANCH  12  13
HETATM   13  C2    D T   1     -13.847   0.192  -7.687  1.00 14.46     0.145 A 
HETATM   14  N82   D T   1     -13.453  -0.608  -8.721  1.00 14.03    -0.203 N 
HETATM   15  N81   D T   1     -12.257  -0.566  -9.387  1.00 15.71    -0.162 NA
HETATM   16  C84   D T   1     -14.566  -1.479  -8.948  1.00 14.58     0.165 A 
HETATM   17  C83   D T   1     -12.172  -1.482 -10.364  1.00 17.09     0.121 A 
HETATM   18  C82   D T   1     -13.197  -2.425 -10.711  1.00 16.91     0.026 A 
HETATM   19  C81   D T   1     -14.394  -2.420 -10.000  1.00 15.47     0.041 A 
HETATM   20  N1    D T   1     -15.556  -1.216  -8.107  1.00 17.79    -0.223 NA
HETATM   21  C1    D T   1     -15.106  -0.167  -7.319  1.00 15.62     0.128 A 
ENDBRANCH  12  13
ENDBRANCH   8  11
ENDBRANCH   1   4
BRANCH   3  22
HETATM   22  C13   D T   1     -14.076   5.496  -1.480  1.00  8.39     0.085 A 
HETATM   23  C14   D T   1     -15.390   5.328  -1.966  1.00 14.59     0.019 A 
HETATM   24  C15   D T   1     -16.502   5.844  -1.240  1.00 11.91    -0.001 A 
HETATM   25  C16   D T   1     -16.324   6.534  -0.009  1.00 12.96     0.015 A 
HETATM   26  C17   D T   1     -14.975   6.719   0.509  1.00 14.62     0.071 A 
HETATM   27  C18   D T   1     -13.875   6.191  -0.242  1.00 11.52     0.023 A 
BRANCH  25  28
HETATM   28  C20   D T   1     -17.580   7.047   0.712  1.00 11.54     0.277 C 
BRANCH  28  29
HETATM   29  N3    D T   1     -18.358   5.990   1.330  1.00 12.77     0.146 N 
HETATM   30  C21   D T   1     -19.374   5.382   0.440  1.00  9.68     0.286 C 
HETATM   31  C22   D T   1     -20.246   4.372   1.233  1.00 12.27     0.286 C 
HETATM   32  N4    D T   1     -19.409   3.330   1.886  1.00 14.63     0.143 N 
HETATM   33  C23   D T   1     -18.297   3.922   2.690  1.00 13.23     0.286 C 
HETATM   34  C25   D T   1     -20.237   2.436   2.706  1.00 14.49     0.285 C 
HETATM   35  C24   D T   1     -17.465   4.925   1.865  1.00 15.42     0.286 C 
ENDBRANCH  28  29
ENDBRANCH  25  28
BRANCH  26  36
HETATM   36  C19   D T   1     -14.687   7.439   1.816  1.00 14.58     0.419 C 
HETATM   37  F1    D T   1     -14.145   8.620   1.560  1.00 18.20    -0.166 F 
HETATM   38  F2    D T   1     -15.789   7.666   2.522  1.00 18.68    -0.166 F 
HETATM   39  F3    D T   1     -13.856   6.686   2.572  1.00 14.12    -0.166 F 
ENDBRANCH  26  36
ENDBRANCH   3  22
TORSDOF 7
ENDMDL
MODEL 3
REMARK VINA RESULT:    -9.391      2.529      3.317
REMARK INTER + INTRA:         -14.360
REMARK INTER:                 -13.600
REMARK INTRA:                  -0.760
REMARK UNBOUND:                -1.126
REMARK  7 active torsions:
REMARK  status: ('A' for Active; 'I' for Inactive)
REMARK    1  A    between atoms: N3_2  and  C20_12 
REMARK    2  A    between atoms: C4_3  and  C5_4 
REMARK    3  A    between atoms: C13_9  and  N2_29 
REMARK    4  A    between atoms: C17_11  and  C19_33 
REMARK    5  A    between atoms: C20_12  and  C16_31 
REMARK    6  A    between atoms: C2_23  and  C3_24 
REMARK    7  A    between atoms: C9_25  and  C12_27 
REMARK       I    between atoms: C12_27  and  N2_29 
ROOT
HETATM    1  C12   D T   1     -11.665   2.612  -6.273  1.00  8.81     0.275 C 
HETATM    2  O1    D T   1     -10.918   2.349  -7.222  1.00 13.93    -0.266 OA
HETATM    3  N2    D T   1     -12.843   1.971  -6.027  1.00 10.31    -0.208 NA
ENDROOT
BRANCH   1   4
HETATM    4  C9    D T   1     -11.282   3.691  -5.328  1.00 12.21     0.037 A 
HETATM    5  C8    D T   1      -9.983   4.341  -5.346  1.00 10.40     0.036 A 
HETATM    6  C7    D T   1      -9.695   5.396  -4.380  1.00  7.63     0.028 A 
HETATM    7  C6    D T   1     -10.678   5.784  -3.431  1.00  7.91    -0.036 A 
HETATM    8  C5    D T   1     -11.970   5.126  -3.425  1.00 10.18     0.034 A 
HETATM    9  C11   D T   1     -10.345   6.905  -2.436  1.00  9.41     0.027 C 
HETATM   10  C10   D T   1     -12.255   4.104  -4.358  1.00 11.17     0.008 A 
BRANCH   8  11
HETATM   11  C4    D T   1     -13.030   5.472  -2.490  1.00 10.71    -0.059 C 
HETATM   12  C3    D T   1     -13.912   5.682  -1.703  1.00 12.15    -0.039 C 
BRANCH  12  13
HETATM   13  C2    D T   1     -14.941   5.867  -0.769  1.00 14.46     0.145 A 
HETATM   14  N82   D T   1     -15.884   4.943  -0.422  1.00 14.03    -0.203 N 
HETATM   15  N81   D T   1     -16.011   3.670  -0.912  1.00 15.71    -0.162 NA
HETATM   16  C84   D T   1     -16.698   5.605   0.552  1.00 14.58     0.165 A 
HETATM   17  C83   D T   1     -17.046   3.006  -0.375  1.00 17.09     0.121 A 
HETATM   18  C82   D T   1     -17.949   3.529   0.610  1.00 16.91     0.026 A 
HETATM   19  C81   D T   1     -17.771   4.831   1.071  1.00 15.47     0.041 A 
HETATM   20  N1    D T   1     -16.270   6.841   0.770  1.00 17.79    -0.223 NA
HETATM   21  C1    D T   1     -15.172   7.005  -0.060  1.00 15.62     0.128 A 
ENDBRANCH  12  13
ENDBRANCH   8  11
ENDBRANCH   1   4
BRANCH   3  22
HETATM   22  C13   D T   1     -13.234   0.696  -6.546  1.00  8.39     0.085 A 
HETATM   23  C14   D T   1     -14.060  -0.116  -5.740  1.00 14.59     0.019 A 
HETATM   24  C15   D T   1     -14.489  -1.394  -6.199  1.00 11.91    -0.001 A 
HETATM   25  C16   D T   1     -14.105  -1.887  -7.477  1.00 12.96     0.015 A 
HETATM   26  C17   D T   1     -13.251  -1.065  -8.324  1.00 14.62     0.071 A 
HETATM   27  C18   D T   1     -12.834   0.216  -7.837  1.00 11.52     0.023 A 
BRANCH  25  28
HETATM   28  C20   D T   1     -14.622  -3.272  -7.896  1.00 11.54     0.277 C 
BRANCH  28  29
HETATM   29  N3    D T   1     -15.973  -3.541  -7.439  1.00 12.77     0.146 N 
HETATM   30  C21   D T   1     -17.031  -2.903  -8.257  1.00  9.68     0.286 C 
HETATM   31  C22   D T   1     -18.420  -3.126  -7.606  1.00 12.27     0.286 C 
HETATM   32  N4    D T   1     -18.697  -4.574  -7.401  1.00 14.63     0.143 N 
HETATM   33  C23   D T   1     -17.582  -5.266  -6.687  1.00 13.23     0.286 C 
HETATM   34  C25   D T   1     -19.973  -4.767  -6.703  1.00 14.49     0.285 C 
HETATM   35  C24   D T   1     -16.220  -5.008  -7.364  1.00 15.42     0.286 C 
ENDBRANCH  28  29
ENDBRANCH  25  28
BRANCH  26  36
HETATM   36  C19   D T   1     -12.793  -1.505  -9.705  1.00 14.58     0.419 C 
HETATM   37  F1    D T   1     -11.828  -0.702 -10.128  1.00 18.20    -0.166 F 
HETATM   38  F2    D T   1     -12.295  -2.737  -9.703  1.00 18.68    -0.166 F 
HETATM   39  F3    D T   1     -13.843  -1.480 -10.556  1.00 14.12    -0.166 F 
ENDBRANCH  26  36
ENDBRANCH   3  22
TORSDOF 7
ENDMDL
MODEL 4
REMARK VINA RESULT:    -9.291      4.069     11.393
REMARK INTER + INTRA:         -14.219
REMARK INTER:                 -14.437
REMARK INTRA:                   0.218
REMARK UNBOUND:                -1.126
REMARK  7 active torsions:
REMARK  status: ('A' for Active; 'I' for Inactive)
REMARK    1  A    between atoms: N3_2  and  C20_12 
REMARK    2  A    between atoms: C4_3  and  C5_4 
REMARK    3  A    between atoms: C13_9  and  N2_29 
REMARK    4  A    between atoms: C17_11  and  C19_33 
REMARK    5  A    between atoms: C20_12  and  C16_31 
REMARK    6  A    between atoms: C2_23  and  C3_24 
REMARK    7  A    between atoms: C9_25  and  C12_27 
REMARK       I    between atoms: C12_27  and  N2_29 
ROOT
HETATM    1  C12   D T   1     -12.240   4.498  -4.674  1.00  8.81     0.275 C 
HETATM    2  O1    D T   1     -13.455   4.457  -4.894  1.00 13.93    -0.266 OA
HETATM    3  N2    D T   1     -11.662   5.278  -3.716  1.00 10.31    -0.208 NA
ENDROOT
BRANCH   1   4
HETATM    4  C9    D T   1     -11.328   3.656  -5.489  1.00 12.21     0.037 A 
HETATM    5  C8    D T   1      -9.881   3.765  -5.432  1.00 10.40     0.036 A 
HETATM    6  C7    D T   1      -9.062   2.893  -6.267  1.00  7.63     0.028 A 
HETATM    7  C6    D T   1      -9.676   1.944  -7.128  1.00  7.91    -0.036 A 
HETATM    8  C5    D T   1     -11.123   1.848  -7.175  1.00 10.18     0.034 A 
HETATM    9  C11   D T   1      -8.784   1.035  -7.986  1.00  9.41     0.027 C 
HETATM   10  C10   D T   1     -11.921   2.689  -6.367  1.00 11.17     0.008 A 
BRANCH   8  11
HETATM   11  C4    D T   1     -11.825   0.898  -8.024  1.00 10.71    -0.059 C 
HETATM   12  C3    D T   1     -12.426   0.076  -8.660  1.00 12.15    -0.039 C 
BRANCH  12  13
HETATM   13  C2    D T   1     -13.149  -0.907  -9.350  1.00 14.46     0.145 A 
HETATM   14  N82   D T   1     -12.678  -1.679 -10.373  1.00 14.03    -0.203 N 
HETATM   15  N81   D T   1     -11.423  -1.644 -10.922  1.00 15.71    -0.162 NA
HETATM   16  C84   D T   1     -13.783  -2.513 -10.736  1.00 14.58     0.165 A 
HETATM   17  C83   D T   1     -11.267  -2.526 -11.922  1.00 17.09     0.121 A 
HETATM   18  C82   D T   1     -12.275  -3.429 -12.399  1.00 16.91     0.026 A 
HETATM   19  C81   D T   1     -13.533  -3.419 -11.802  1.00 15.47     0.041 A 
HETATM   20  N1    D T   1     -14.842  -2.255  -9.981  1.00 17.79    -0.223 NA
HETATM   21  C1    D T   1     -14.445  -1.247  -9.116  1.00 15.62     0.128 A 
ENDBRANCH  12  13
ENDBRANCH   8  11
ENDBRANCH   1   4
BRANCH   3  22
HETATM   22  C13   D T   1     -12.326   5.866  -2.593  1.00  8.39     0.085 A 
HETATM   23  C14   D T   1     -13.098   5.019  -1.770  1.00 14.59     0.019 A 
HETATM   24  C15   D T   1     -13.780   5.539  -0.632  1.00 11.91    -0.001 A 
HETATM   25  C16   D T   1     -13.700   6.917  -0.290  1.00 12.96     0.015 A 
HETATM   26  C17   D T   1     -12.909   7.810  -1.128  1.00 14.62     0.071 A 
HETATM   27  C18   D T   1     -12.235   7.260  -2.266  1.00 11.52     0.023 A 
BRANCH  25  28
HETATM   28  C20   D T   1     -14.459   7.391   0.959  1.00 11.54     0.277 C 
BRANCH  28  29
HETATM   29  N3    D T   1     -15.877   7.086   0.917  1.00 12.77     0.146 N 
HETATM   30  C21   D T   1     -16.407   6.842  -0.445  1.00  9.68     0.286 C 
HETATM   31  C22   D T   1     -17.948   6.673  -0.398  1.00 12.27     0.286 C 
HETATM   32  N4    D T   1     -18.347   5.587   0.538  1.00 14.63     0.143 N 
HETATM   33  C23   D T   1     -17.720   5.746   1.885  1.00 13.23     0.286 C 
HETATM   34  C25   D T   1     -19.808   5.498   0.641  1.00 14.49     0.285 C 
HETATM   35  C24   D T   1     -16.190   5.920   1.789  1.00 15.42     0.286 C 
ENDBRANCH  28  29
ENDBRANCH  25  28
BRANCH  26  36
HETATM   36  C19   D T   1     -12.763   9.295  -0.841  1.00 14.58     0.419 C 
HETATM   37  F1    D T   1     -11.486   9.582  -0.637  1.00 18.20    -0.166 F 
HETATM   38  F2    D T   1     -13.170  10.049  -1.856  1.00 18.68    -0.166 F 
HETATM   39  F3    D T   1     -13.504   9.618   0.243  1.00 14.12    -0.166 F 
ENDBRANCH  26  36
ENDBRANCH   3  22
TORSDOF 7
ENDMDL
MODEL 5
REMARK VINA RESULT:    -9.188      3.603     11.569
REMARK INTER + INTRA:         -14.074
REMARK INTER:                 -13.174
REMARK INTRA:                  -0.900
REMARK UNBOUND:                -1.126
REMARK  7 active torsions:
REMARK  status: ('A' for Active; 'I' for Inactive)
REMARK    1  A    between atoms: N3_2  and  C20_12 
REMARK    2  A    between atoms: C4_3  and  C5_4 
REMARK    3  A    between atoms: C13_9  and  N2_29 
REMARK    4  A    between atoms: C17_11  and  C19_33 
REMARK    5  A    between atoms: C20_12  and  C16_31 
REMARK    6  A    between atoms: C2_23  and  C3_24 
REMARK    7  A    between atoms: C9_25  and  C12_27 
REMARK       I    between atoms: C12_27  and  N2_29 
ROOT
HETATM    1  C12   D T   1     -13.581   2.630  -4.715  1.00  8.81     0.275 C 
HETATM    2  O1    D T   1     -14.095   1.697  -4.088  1.00 13.93    -0.266 OA
HETATM    3  N2    D T   1     -13.946   3.937  -4.575  1.00 10.31    -0.208 NA
ENDROOT
BRANCH   1   4
HETATM    4  C9    D T   1     -12.498   2.340  -5.688  1.00 12.21     0.037 A 
HETATM    5  C8    D T   1     -11.219   3.027  -5.683  1.00 10.40     0.036 A 
HETATM    6  C7    D T   1     -10.210   2.673  -6.676  1.00  7.63     0.028 A 
HETATM    7  C6    D T   1     -10.478   1.663  -7.639  1.00  7.91    -0.036 A 
HETATM    8  C5    D T   1     -11.761   0.986  -7.631  1.00 10.18     0.034 A 
HETATM    9  C11   D T   1      -9.390   1.308  -8.663  1.00  9.41     0.027 C 
HETATM   10  C10   D T   1     -12.741   1.324  -6.671  1.00 11.17     0.008 A 
BRANCH   8  11
HETATM   11  C4    D T   1     -12.107  -0.063  -8.578  1.00 10.71    -0.059 C 
HETATM   12  C3    D T   1     -12.415  -0.972  -9.300  1.00 12.15    -0.039 C 
BRANCH  12  13
HETATM   13  C2    D T   1     -12.799  -2.062 -10.093  1.00 14.46     0.145 A 
HETATM   14  N82   D T   1     -12.135  -2.528 -11.191  1.00 14.03    -0.203 N 
HETATM   15  N81   D T   1     -10.978  -2.028 -11.728  1.00 15.71    -0.162 NA
HETATM   16  C84   D T   1     -12.918  -3.637 -11.645  1.00 14.58     0.165 A 
HETATM   17  C83   D T   1     -10.574  -2.704 -12.816  1.00 17.09     0.121 A 
HETATM   18  C82   D T   1     -11.247  -3.834 -13.390  1.00 16.91     0.026 A 
HETATM   19  C81   D T   1     -12.420  -4.298 -12.800  1.00 15.47     0.041 A 
HETATM   20  N1    D T   1     -13.979  -3.819 -10.870  1.00 17.79    -0.223 NA
HETATM   21  C1    D T   1     -13.906  -2.830  -9.901  1.00 15.62     0.128 A 
ENDBRANCH  12  13
ENDBRANCH   8  11
ENDBRANCH   1   4
BRANCH   3  22
HETATM   22  C13   D T   1     -14.667   4.499  -3.474  1.00  8.39     0.085 A 
HETATM   23  C14   D T   1     -16.050   4.230  -3.389  1.00 14.59     0.019 A 
HETATM   24  C15   D T   1     -16.825   4.755  -2.315  1.00 11.91    -0.001 A 
HETATM   25  C16   D T   1     -16.233   5.555  -1.299  1.00 12.96     0.015 A 
HETATM   26  C17   D T   1     -14.806   5.845  -1.369  1.00 14.62     0.071 A 
HETATM   27  C18   D T   1     -14.051   5.306  -2.461  1.00 11.52     0.023 A 
BRANCH  25  28
HETATM   28  C20   D T   1     -17.141   6.070  -0.172  1.00 11.54     0.277 C 
BRANCH  28  29
HETATM   29  N3    D T   1     -17.821   5.009   0.545  1.00 12.77     0.146 N 
HETATM   30  C21   D T   1     -17.632   5.049   2.015  1.00  9.68     0.286 C 
HETATM   31  C22   D T   1     -18.270   3.797   2.672  1.00 12.27     0.286 C 
HETATM   32  N4    D T   1     -19.710   3.673   2.317  1.00 14.63     0.143 N 
HETATM   33  C23   D T   1     -19.936   3.757   0.843  1.00 13.23     0.286 C 
HETATM   34  C25   D T   1     -20.278   2.438   2.870  1.00 14.49     0.285 C 
HETATM   35  C24   D T   1     -19.277   5.011   0.232  1.00 15.42     0.286 C 
ENDBRANCH  28  29
ENDBRANCH  25  28
BRANCH  26  36
HETATM   36  C19   D T   1     -14.085   6.687  -0.329  1.00 14.58     0.419 C 
HETATM   37  F1    D T   1     -13.958   5.993   0.792  1.00 18.20    -0.166 F 
HETATM   38  F2    D T   1     -12.860   7.025  -0.714  1.00 18.68    -0.166 F 
HETATM   39  F3    D T   1     -14.783   7.825  -0.110  1.00 14.12    -0.166 F 
ENDBRANCH  26  36
ENDBRANCH   3  22
TORSDOF 7
ENDMDL
MODEL 6
REMARK VINA RESULT:    -9.155      4.081     11.287
REMARK INTER + INTRA:         -14.027
REMARK INTER:                 -12.971
REMARK INTRA:                  -1.056
REMARK UNBOUND:                -1.126
REMARK  7 active torsions:
REMARK  status: ('A' for Active; 'I' for Inactive)
REMARK    1  A    between atoms: N3_2  and  C20_12 
REMARK    2  A    between atoms: C4_3  and  C5_4 
REMARK    3  A    between atoms: C13_9  and  N2_29 
REMARK    4  A    between atoms: C17_11  and  C19_33 
REMARK    5  A    between atoms: C20_12  and  C16_31 
REMARK    6  A    between atoms: C2_23  and  C3_24 
REMARK    7  A    between atoms: C9_25  and  C12_27 
REMARK       I    between atoms: C12_27  and  N2_29 
ROOT
HETATM    1  C12   D T   1     -13.274   1.296  -6.058  1.00  8.81     0.275 C 
HETATM    2  O1    D T   1     -13.581   0.906  -4.926  1.00 13.93    -0.266 OA
HETATM    3  N2    D T   1     -13.081   2.605  -6.390  1.00 10.31    -0.208 NA
ENDROOT
BRANCH   1   4
HETATM    4  C9    D T   1     -13.100   0.299  -7.145  1.00 12.21     0.037 A 
HETATM    5  C8    D T   1     -12.196   0.492  -8.264  1.00 10.40     0.036 A 
HETATM    6  C7    D T   1     -12.086  -0.544  -9.285  1.00  7.63     0.028 A 
HETATM    7  C6    D T   1     -12.857  -1.733  -9.184  1.00  7.91    -0.036 A 
HETATM    8  C5    D T   1     -13.758  -1.911  -8.060  1.00 10.18     0.034 A 
HETATM    9  C11   D T   1     -12.710  -2.808 -10.270  1.00  9.41     0.027 C 
HETATM   10  C10   D T   1     -13.867  -0.911  -7.068  1.00 11.17     0.008 A 
BRANCH   8  11
HETATM   11  C4    D T   1     -14.574  -3.101  -7.882  1.00 10.71    -0.059 C 
HETATM   12  C3    D T   1     -15.310  -4.038  -7.727  1.00 12.15    -0.039 C 
BRANCH  12  13
HETATM   13  C2    D T   1     -16.217  -5.091  -7.548  1.00 14.46     0.145 A 
HETATM   14  N82   D T   1     -16.031  -6.385  -7.942  1.00 14.03    -0.203 N 
HETATM   15  N81   D T   1     -14.936  -6.902  -8.583  1.00 15.71    -0.162 NA
HETATM   16  C84   D T   1     -17.227  -7.062  -7.541  1.00 14.58     0.165 A 
HETATM   17  C83   D T   1     -15.056  -8.214  -8.843  1.00 17.09     0.121 A 
HETATM   18  C82   D T   1     -16.187  -9.029  -8.503  1.00 16.91     0.026 A 
HETATM   19  C81   D T   1     -17.272  -8.448  -7.852  1.00 15.47     0.041 A 
HETATM   20  N1    D T   1     -18.070  -6.227  -6.950  1.00 17.79    -0.223 NA
HETATM   21  C1    D T   1     -17.439  -4.993  -6.957  1.00 15.62     0.128 A 
ENDBRANCH  12  13
ENDBRANCH   8  11
ENDBRANCH   1   4
BRANCH   3  22
HETATM   22  C13   D T   1     -12.825   3.677  -5.478  1.00  8.39     0.085 A 
HETATM   23  C14   D T   1     -13.928   4.432  -5.025  1.00 14.59     0.019 A 
HETATM   24  C15   D T   1     -13.742   5.509  -4.112  1.00 11.91    -0.001 A 
HETATM   25  C16   D T   1     -12.450   5.853  -3.628  1.00 12.96     0.015 A 
HETATM   26  C17   D T   1     -11.297   5.087  -4.085  1.00 14.62     0.071 A 
HETATM   27  C18   D T   1     -11.512   4.010  -5.004  1.00 11.52     0.023 A 
BRANCH  25  28
HETATM   28  C20   D T   1     -12.343   7.023  -2.638  1.00 11.54     0.277 C 
BRANCH  28  29
HETATM   29  N3    D T   1     -13.304   6.945  -1.554  1.00 12.77     0.146 N 
HETATM   30  C21   D T   1     -13.177   5.731  -0.714  1.00  9.68     0.286 C 
HETATM   31  C22   D T   1     -14.334   5.669   0.317  1.00 12.27     0.286 C 
HETATM   32  N4    D T   1     -14.383   6.899   1.153  1.00 14.63     0.143 N 
HETATM   33  C23   D T   1     -14.384   8.143   0.324  1.00 13.23     0.286 C 
HETATM   34  C25   D T   1     -15.535   6.867   2.061  1.00 14.49     0.285 C 
HETATM   35  C24   D T   1     -13.224   8.157  -0.692  1.00 15.42     0.286 C 
ENDBRANCH  28  29
ENDBRANCH  25  28
BRANCH  26  36
HETATM   36  C19   D T   1      -9.879   5.378  -3.621  1.00 14.58     0.419 C 
HETATM   37  F1    D T   1      -9.847   5.421  -2.298  1.00 18.20    -0.166 F 
HETATM   38  F2    D T   1      -9.021   4.437  -3.997  1.00 18.68    -0.166 F 
HETATM   39  F3    D T   1      -9.466   6.553  -4.147  1.00 14.12    -0.166 F 
ENDBRANCH  26  36
ENDBRANCH   3  22
TORSDOF 7
ENDMDL
MODEL 7
REMARK VINA RESULT:    -9.033      1.432      1.777
REMARK INTER + INTRA:         -13.855
REMARK INTER:                 -12.958
REMARK INTRA:                  -0.897
REMARK UNBOUND:                -1.126
REMARK  7 active torsions:
REMARK  status: ('A' for Active; 'I' for Inactive)
REMARK    1  A    between atoms: N3_2  and  C20_12 
REMARK    2  A    between atoms: C4_3  and  C5_4 
REMARK    3  A    between atoms: C13_9  and  N2_29 
REMARK    4  A    between atoms: C17_11  and  C19_33 
REMARK    5  A    between atoms: C20_12  and  C16_31 
REMARK    6  A    between atoms: C2_23  and  C3_24 
REMARK    7  A    between atoms: C9_25  and  C12_27 
REMARK       I    between atoms: C12_27  and  N2_29 
ROOT
HETATM    1  C12   D T   1     -12.705   2.839  -6.130  1.00  8.81     0.275 C 
HETATM    2  O1    D T   1     -13.221   3.283  -7.162  1.00 13.93    -0.266 OA
HETATM    3  N2    D T   1     -12.760   1.530  -5.750  1.00 10.31    -0.208 NA
ENDROOT
BRANCH   1   4
HETATM    4  C9    D T   1     -11.975   3.765  -5.229  1.00 12.21     0.037 A 
HETATM    5  C8    D T   1     -10.583   4.130  -5.421  1.00 10.40     0.036 A 
HETATM    6  C7    D T   1      -9.947   5.052  -4.486  1.00  7.63     0.028 A 
HETATM    7  C6    D T   1     -10.685   5.589  -3.397  1.00  7.91    -0.036 A 
HETATM    8  C5    D T   1     -12.075   5.215  -3.218  1.00 10.18     0.034 A 
HETATM    9  C11   D T   1      -9.988   6.565  -2.438  1.00  9.41     0.027 C 
HETATM   10  C10   D T   1     -12.696   4.323  -4.121  1.00 11.17     0.008 A 
BRANCH   8  11
HETATM   11  C4    D T   1     -12.899   5.728  -2.134  1.00 10.71    -0.059 C 
HETATM   12  C3    D T   1     -13.603   6.079  -1.227  1.00 12.15    -0.039 C 
BRANCH  12  13
HETATM   13  C2    D T   1     -14.439   6.428  -0.157  1.00 14.46     0.145 A 
HETATM   14  N82   D T   1     -15.405   5.638   0.396  1.00 14.03    -0.203 N 
HETATM   15  N81   D T   1     -15.747   4.367   0.019  1.00 15.71    -0.162 NA
HETATM   16  C84   D T   1     -15.973   6.437   1.439  1.00 14.58     0.165 A 
HETATM   17  C83   D T   1     -16.745   3.855   0.756  1.00 17.09     0.121 A 
HETATM   18  C82   D T   1     -17.413   4.527   1.833  1.00 16.91     0.026 A 
HETATM   19  C81   D T   1     -17.022   5.821   2.172  1.00 15.47     0.041 A 
HETATM   20  N1    D T   1     -15.384   7.624   1.503  1.00 17.79    -0.223 NA
HETATM   21  C1    D T   1     -14.426   7.619   0.501  1.00 15.62     0.128 A 
ENDBRANCH  12  13
ENDBRANCH   8  11
ENDBRANCH   1   4
BRANCH   3  22
HETATM   22  C13   D T   1     -13.062   0.417  -6.599  1.00  8.39     0.085 A 
HETATM   23  C14   D T   1     -12.452   0.377  -7.870  1.00 14.59     0.019 A 
HETATM   24  C15   D T   1     -12.705  -0.705  -8.761  1.00 11.91    -0.001 A 
HETATM   25  C16   D T   1     -13.571  -1.774  -8.398  1.00 12.96     0.015 A 
HETATM   26  C17   D T   1     -14.212  -1.750  -7.089  1.00 14.62     0.071 A 
HETATM   27  C18   D T   1     -13.940  -0.650  -6.214  1.00 11.52     0.023 A 
BRANCH  25  28
HETATM   28  C20   D T   1     -13.779  -2.906  -9.416  1.00 11.54     0.277 C 
BRANCH  28  29
HETATM   29  N3    D T   1     -14.421  -2.463 -10.640  1.00 12.77     0.146 N 
HETATM   30  C21   D T   1     -14.126  -3.308 -11.821  1.00  9.68     0.286 C 
HETATM   31  C22   D T   1     -14.734  -2.673 -13.099  1.00 12.27     0.286 C 
HETATM   32  N4    D T   1     -16.197  -2.447 -12.950  1.00 14.63     0.143 N 
HETATM   33  C23   D T   1     -16.527  -1.704 -11.697  1.00 13.23     0.286 C 
HETATM   34  C25   D T   1     -16.741  -1.764 -14.129  1.00 14.49     0.285 C 
HETATM   35  C24   D T   1     -15.895  -2.365 -10.454  1.00 15.42     0.286 C 
ENDBRANCH  28  29
ENDBRANCH  25  28
BRANCH  26  36
HETATM   36  C19   D T   1     -15.149  -2.848  -6.612  1.00 14.58     0.419 C 
HETATM   37  F1    D T   1     -14.616  -4.031  -6.878  1.00 18.20    -0.166 F 
HETATM   38  F2    D T   1     -15.353  -2.803  -5.300  1.00 18.68    -0.166 F 
HETATM   39  F3    D T   1     -16.347  -2.715  -7.225  1.00 14.12    -0.166 F 
ENDBRANCH  26  36
ENDBRANCH   3  22
TORSDOF 7
ENDMDL
MODEL 8
REMARK VINA RESULT:    -8.874      2.780      4.003
REMARK INTER + INTRA:         -13.632
REMARK INTER:                 -13.106
REMARK INTRA:                  -0.525
REMARK UNBOUND:                -1.126
REMARK  7 active torsions:
REMARK  status: ('A' for Active; 'I' for Inactive)
REMARK    1  A    between atoms: N3_2  and  C20_12 
REMARK    2  A    between atoms: C4_3  and  C5_4 
REMARK    3  A    between atoms: C13_9  and  N2_29 
REMARK    4  A    between atoms: C17_11  and  C19_33 
REMARK    5  A    between atoms: C20_12  and  C16_31 
REMARK    6  A    between atoms: C2_23  and  C3_24 
REMARK    7  A    between atoms: C9_25  and  C12_27 
REMARK       I    between atoms: C12_27  and  N2_29 
ROOT
HETATM    1  C12   D T   1     -12.700   1.303  -7.282  1.00  8.81     0.275 C 
HETATM    2  O1    D T   1     -13.925   1.463  -7.260  1.00 13.93    -0.266 OA
HETATM    3  N2    D T   1     -12.074   0.279  -7.929  1.00 10.31    -0.208 NA
ENDROOT
BRANCH   1   4
HETATM    4  C9    D T   1     -11.831   2.271  -6.567  1.00 12.21     0.037 A 
HETATM    5  C8    D T   1     -10.439   2.498  -6.914  1.00 10.40     0.036 A 
HETATM    6  C7    D T   1      -9.660   3.473  -6.158  1.00  7.63     0.028 A 
HETATM    7  C6    D T   1     -10.260   4.195  -5.091  1.00  7.91    -0.036 A 
HETATM    8  C5    D T   1     -11.652   3.957  -4.756  1.00 10.18     0.034 A 
HETATM    9  C11   D T   1      -9.415   5.222  -4.323  1.00  9.41     0.027 C 
HETATM   10  C10   D T   1     -12.410   3.014  -5.485  1.00 11.17     0.008 A 
BRANCH   8  11
HETATM   11  C4    D T   1     -12.338   4.661  -3.684  1.00 10.71    -0.059 C 
HETATM   12  C3    D T   1     -12.836   5.248  -2.763  1.00 12.15    -0.039 C 
BRANCH  12  13
HETATM   13  C2    D T   1     -13.361   5.943  -1.664  1.00 14.46     0.145 A 
HETATM   14  N82   D T   1     -14.145   5.413  -0.680  1.00 14.03    -0.203 N 
HETATM   15  N81   D T   1     -14.571   4.115  -0.575  1.00 15.71    -0.162 NA
HETATM   16  C84   D T   1     -14.420   6.511   0.196  1.00 14.58     0.165 A 
HETATM   17  C83   D T   1     -15.338   3.905   0.507  1.00 17.09     0.121 A 
HETATM   18  C82   D T   1     -15.699   4.899   1.476  1.00 16.91     0.026 A 
HETATM   19  C81   D T   1     -15.237   6.203   1.316  1.00 15.47     0.041 A 
HETATM   20  N1    D T   1     -13.839   7.622  -0.238  1.00 17.79    -0.223 NA
HETATM   21  C1    D T   1     -13.179   7.266  -1.404  1.00 15.62     0.128 A 
ENDBRANCH  12  13
ENDBRANCH   8  11
ENDBRANCH   1   4
BRANCH   3  22
HETATM   22  C13   D T   1     -12.636  -0.534  -8.965  1.00  8.39     0.085 A 
HETATM   23  C14   D T   1     -14.037  -0.705  -8.978  1.00 14.59     0.019 A 
HETATM   24  C15   D T   1     -14.660  -1.497  -9.984  1.00 11.91    -0.001 A 
HETATM   25  C16   D T   1     -13.897  -2.131 -11.003  1.00 12.96     0.015 A 
HETATM   26  C17   D T   1     -12.449  -1.969 -11.007  1.00 14.62     0.071 A 
HETATM   27  C18   D T   1     -11.848  -1.168  -9.982  1.00 11.52     0.023 A 
BRANCH  25  28
HETATM   28  C20   D T   1     -14.652  -2.958 -12.055  1.00 11.54     0.277 C 
BRANCH  28  29
HETATM   29  N3    D T   1     -15.925  -2.375 -12.435  1.00 12.77     0.146 N 
HETATM   30  C21   D T   1     -15.828  -1.335 -13.487  1.00  9.68     0.286 C 
HETATM   31  C22   D T   1     -17.212  -0.674 -13.716  1.00 12.27     0.286 C 
HETATM   32  N4    D T   1     -18.249  -1.687 -14.054  1.00 14.63     0.143 N 
HETATM   33  C23   D T   1     -18.277  -2.813 -13.071  1.00 13.23     0.286 C 
HETATM   34  C25   D T   1     -19.570  -1.060 -14.178  1.00 14.49     0.285 C 
HETATM   35  C24   D T   1     -16.880  -3.433 -12.869  1.00 15.42     0.286 C 
ENDBRANCH  28  29
ENDBRANCH  25  28
BRANCH  26  36
HETATM   36  C19   D T   1     -11.551  -2.605 -12.055  1.00 14.58     0.419 C 
HETATM   37  F1    D T   1     -10.283  -2.394 -11.739  1.00 18.20    -0.166 F 
HETATM   38  F2    D T   1     -11.716  -3.920 -12.131  1.00 18.68    -0.166 F 
HETATM   39  F3    D T   1     -11.834  -2.078 -13.268  1.00 14.12    -0.166 F 
ENDBRANCH  26  36
ENDBRANCH   3  22
TORSDOF 7
ENDMDL
MODEL 9
REMARK VINA RESULT:    -8.844      2.965      4.055
REMARK INTER + INTRA:         -13.590
REMARK INTER:                 -13.001
REMARK INTRA:                  -0.588
REMARK UNBOUND:                -1.126
REMARK  7 active torsions:
REMARK  status: ('A' for Active; 'I' for Inactive)
REMARK    1  A    between atoms: N3_2  and  C20_12 
REMARK    2  A    between atoms: C4_3  and  C5_4 
REMARK    3  A    between atoms: C13_9  and  N2_29 
REMARK    4  A    between atoms: C17_11  and  C19_33 
REMARK    5  A    between atoms: C20_12  and  C16_31 
REMARK    6  A    between atoms: C2_23  and  C3_24 
REMARK    7  A    between atoms: C9_25  and  C12_27 
REMARK       I    between atoms: C12_27  and  N2_29 
ROOT
HETATM    1  C12   D T   1     -12.694   1.304  -7.237  1.00  8.81     0.275 C 
HETATM    2  O1    D T   1     -13.922   1.437  -7.199  1.00 13.93    -0.266 OA
HETATM    3  N2    D T   1     -12.054   0.300  -7.903  1.00 10.31    -0.208 NA
ENDROOT
BRANCH   1   4
HETATM    4  C9    D T   1     -11.837   2.281  -6.520  1.00 12.21     0.037 A 
HETATM    5  C8    D T   1     -10.449   2.526  -6.866  1.00 10.40     0.036 A 
HETATM    6  C7    D T   1      -9.682   3.509  -6.109  1.00  7.63     0.028 A 
HETATM    7  C6    D T   1     -10.291   4.222  -5.041  1.00  7.91    -0.036 A 
HETATM    8  C5    D T   1     -11.679   3.966  -4.706  1.00 10.18     0.034 A 
HETATM    9  C11   D T   1      -9.459   5.258  -4.271  1.00  9.41     0.027 C 
HETATM   10  C10   D T   1     -12.426   3.015  -5.437  1.00 11.17     0.008 A 
BRANCH   8  11
HETATM   11  C4    D T   1     -12.374   4.660  -3.633  1.00 10.71    -0.059 C 
HETATM   12  C3    D T   1     -12.912   5.186  -2.697  1.00 12.15    -0.039 C 
BRANCH  12  13
HETATM   13  C2    D T   1     -13.503   5.766  -1.566  1.00 14.46     0.145 A 
HETATM   14  N82   D T   1     -14.317   5.131  -0.673  1.00 14.03    -0.203 N 
HETATM   15  N81   D T   1     -14.714   3.820  -0.706  1.00 15.71    -0.162 NA
HETATM   16  C84   D T   1     -14.660   6.139   0.285  1.00 14.58     0.165 A 
HETATM   17  C83   D T   1     -15.523   3.495   0.314  1.00 17.09     0.121 A 
HETATM   18  C82   D T   1     -15.954   4.388   1.352  1.00 16.91     0.026 A 
HETATM   19  C81   D T   1     -15.519   5.711   1.333  1.00 15.47     0.041 A 
HETATM   20  N1    D T   1     -14.089   7.296  -0.018  1.00 17.79    -0.223 NA
HETATM   21  C1    D T   1     -13.368   7.063  -1.179  1.00 15.62     0.128 A 
ENDBRANCH  12  13
ENDBRANCH   8  11
ENDBRANCH   1   4
BRANCH   3  22
HETATM   22  C13   D T   1     -12.611  -0.512  -8.942  1.00  8.39     0.085 A 
HETATM   23  C14   D T   1     -14.010  -0.698  -8.951  1.00 14.59     0.019 A 
HETATM   24  C15   D T   1     -14.629  -1.490  -9.961  1.00 11.91    -0.001 A 
HETATM   25  C16   D T   1     -13.862  -2.110 -10.986  1.00 12.96     0.015 A 
HETATM   26  C17   D T   1     -12.416  -1.931 -10.994  1.00 14.62     0.071 A 
HETATM   27  C18   D T   1     -11.820  -1.131  -9.966  1.00 11.52     0.023 A 
BRANCH  25  28
HETATM   28  C20   D T   1     -14.613  -2.938 -12.041  1.00 11.54     0.277 C 
BRANCH  28  29
HETATM   29  N3    D T   1     -15.349  -4.053 -11.475  1.00 12.77     0.146 N 
HETATM   30  C21   D T   1     -16.329  -4.667 -12.401  1.00  9.68     0.286 C 
HETATM   31  C22   D T   1     -17.163  -5.745 -11.661  1.00 12.27     0.286 C 
HETATM   32  N4    D T   1     -16.288  -6.777 -11.041  1.00 14.63     0.143 N 
HETATM   33  C23   D T   1     -15.211  -6.171 -10.201  1.00 13.23     0.286 C 
HETATM   34  C25   D T   1     -17.083  -7.739 -10.268  1.00 14.49     0.285 C 
HETATM   35  C24   D T   1     -14.415  -5.099 -10.974  1.00 15.42     0.286 C 
ENDBRANCH  28  29
ENDBRANCH  25  28
BRANCH  26  36
HETATM   36  C19   D T   1     -11.515  -2.551 -12.049  1.00 14.58     0.419 C 
HETATM   37  F1    D T   1     -10.248  -2.361 -11.717  1.00 18.20    -0.166 F 
HETATM   38  F2    D T   1     -11.692  -3.863 -12.157  1.00 18.68    -0.166 F 
HETATM   39  F3    D T   1     -11.783  -1.994 -13.252  1.00 14.12    -0.166 F 
ENDBRANCH  26  36
ENDBRANCH   3  22
TORSDOF 7
ENDMDL
