MODEL 1
REMARK VINA RESULT:    -9.678      0.000      0.000
REMARK INTER + INTRA:         -14.175
REMARK INTER:                 -13.639
REMARK INTRA:                  -0.536
REMARK UNBOUND:                -0.536
REMARK  7 active torsions:
REMARK  status: ('A' for Active; 'I' for Inactive)
REMARK    1  A    between atoms: N3_2  and  C20_12 
REMARK    2  A    between atoms: C4_3  and  C5_4 
REMARK    3  A    between atoms: C13_9  and  N2_29 
REMARK    4  A    between atoms: C17_11  and  C19_33 
REMARK    5  A    between atoms: C20_12  and  C16_31 
REMARK    6  A    between atoms: C2_23  and  C3_24 
REMARK    7  A    between atoms: C9_25  and  C12_27 
REMARK       I    between atoms: C12_27  and  N2_29 
ROOT
HETATM    1  C12   D T   1       9.217   2.945  -0.141  1.00  8.81     0.275 C 
HETATM    2  O1    D T   1       8.627   3.992   0.146  1.00 13.93    -0.266 OA
HETATM    3  N2    D T   1       9.047   2.267  -1.312  1.00 10.31    -0.208 NA
ENDROOT
BRANCH   1   4
HETATM    4  C9    D T   1      10.177   2.364   0.832  1.00 12.21     0.037 A 
HETATM    5  C8    D T   1      10.824   3.143   1.874  1.00 10.40     0.036 A 
HETATM    6  C7    D T   1      11.751   2.486   2.789  1.00  7.63     0.028 A 
HETATM    7  C6    D T   1      12.017   1.096   2.663  1.00  7.91    -0.036 A 
HETATM    8  C5    D T   1      11.364   0.332   1.617  1.00 10.18     0.034 A 
HETATM    9  C11   D T   1      12.990   0.436   3.650  1.00  9.41     0.027 C 
HETATM   10  C10   D T   1      10.464   0.962   0.728  1.00 11.17     0.008 A 
BRANCH   8  11
HETATM   11  C4    D T   1      11.578  -1.095   1.429  1.00 10.71    -0.059 C 
HETATM   12  C3    D T   1      11.755  -2.259   1.199  1.00 12.15    -0.039 C 
BRANCH  12  13
HETATM   13  C2    D T   1      11.969  -3.605   0.868  1.00 14.46     0.145 A 
HETATM   14  N82   D T   1      12.139  -4.104  -0.390  1.00 14.03    -0.203 N 
HETATM   15  N81   D T   1      12.132  -3.399  -1.565  1.00 15.71    -0.162 NA
HETATM   16  C84   D T   1      12.315  -5.511  -0.202  1.00 14.58     0.165 A 
HETATM   17  C83   D T   1      12.320  -4.177  -2.642  1.00 17.09     0.121 A 
HETATM   18  C82   D T   1      12.513  -5.599  -2.618  1.00 16.91     0.026 A 
HETATM   19  C81   D T   1      12.510  -6.263  -1.392  1.00 15.47     0.041 A 
HETATM   20  N1    D T   1      12.255  -5.831   1.084  1.00 17.79    -0.223 NA
HETATM   21  C1    D T   1      12.034  -4.636   1.752  1.00 15.62     0.128 A 
ENDBRANCH  12  13
ENDBRANCH   8  11
ENDBRANCH   1   4
BRANCH   3  22
HETATM   22  C13   D T   1       8.492   2.798  -2.520  1.00  8.39     0.085 A 
HETATM   23  C14   D T   1       7.094   2.700  -2.699  1.00 14.59     0.019 A 
HETATM   24  C15   D T   1       6.478   3.215  -3.876  1.00 11.91    -0.001 A 
HETATM   25  C16   D T   1       7.243   3.842  -4.897  1.00 12.96     0.015 A 
HETATM   26  C17   D T   1       8.687   3.951  -4.732  1.00 14.62     0.071 A 
HETATM   27  C18   D T   1       9.280   3.426  -3.539  1.00 11.52     0.023 A 
BRANCH  25  28
HETATM   28  C20   D T   1       6.494   4.376  -6.128  1.00 11.54     0.277 C 
BRANCH  28  29
HETATM   29  N3    D T   1       5.934   3.327  -6.957  1.00 12.77     0.146 N 
HETATM   30  C21   D T   1       5.792   3.691  -8.388  1.00  9.68     0.286 C 
HETATM   31  C22   D T   1       5.052   2.566  -9.156  1.00 12.27     0.286 C 
HETATM   32  N4    D T   1       5.742   1.256  -9.000  1.00 14.63     0.143 N 
HETATM   33  C23   D T   1       6.007   0.928  -7.566  1.00 13.23     0.286 C 
HETATM   34  C25   D T   1       4.982   0.185  -9.656  1.00 14.49     0.285 C 
HETATM   35  C24   D T   1       6.735   2.079  -6.840  1.00 15.42     0.286 C 
ENDBRANCH  28  29
ENDBRANCH  25  28
BRANCH  26  36
HETATM   36  C19   D T   1       9.587   4.609  -5.767  1.00 14.58     0.419 C 
HETATM   37  F1    D T   1       9.003   4.558  -6.955  1.00 18.20    -0.166 F 
HETATM   38  F2    D T   1       9.810   5.890  -5.500  1.00 18.68    -0.166 F 
HETATM   39  F3    D T   1      10.780   3.973  -5.793  1.00 14.12    -0.166 F 
ENDBRANCH  26  36
ENDBRANCH   3  22
TORSDOF 7
ENDMDL
MODEL 2
REMARK VINA RESULT:    -9.462      5.640     11.037
REMARK INTER + INTRA:         -13.869
REMARK INTER:                 -12.944
REMARK INTRA:                  -0.925
REMARK UNBOUND:                -0.536
REMARK  7 active torsions:
REMARK  status: ('A' for Active; 'I' for Inactive)
REMARK    1  A    between atoms: N3_2  and  C20_12 
REMARK    2  A    between atoms: C4_3  and  C5_4 
REMARK    3  A    between atoms: C13_9  and  N2_29 
REMARK    4  A    between atoms: C17_11  and  C19_33 
REMARK    5  A    between atoms: C20_12  and  C16_31 
REMARK    6  A    between atoms: C2_23  and  C3_24 
REMARK    7  A    between atoms: C9_25  and  C12_27 
REMARK       I    between atoms: C12_27  and  N2_29 
ROOT
HETATM    1  C12   D T   1       9.259   5.142  -2.181  1.00  8.81     0.275 C 
HETATM    2  O1    D T   1       8.479   5.292  -1.234  1.00 13.93    -0.266 OA
HETATM    3  N2    D T   1      10.087   6.117  -2.653  1.00 10.31    -0.208 NA
ENDROOT
BRANCH   1   4
HETATM    4  C9    D T   1       9.317   3.827  -2.870  1.00 12.21     0.037 A 
HETATM    5  C8    D T   1      10.139   2.722  -2.406  1.00 10.40     0.036 A 
HETATM    6  C7    D T   1      10.130   1.464  -3.144  1.00  7.63     0.028 A 
HETATM    7  C6    D T   1       9.323   1.320  -4.305  1.00  7.91    -0.036 A 
HETATM    8  C5    D T   1       8.508   2.433  -4.755  1.00 10.18     0.034 A 
HETATM    9  C11   D T   1       9.331  -0.022  -5.051  1.00  9.41     0.027 C 
HETATM   10  C10   D T   1       8.512   3.654  -4.044  1.00 11.17     0.008 A 
BRANCH   8  11
HETATM   11  C4    D T   1       7.650   2.361  -5.928  1.00 10.71    -0.059 C 
HETATM   12  C3    D T   1       6.912   2.237  -6.866  1.00 12.15    -0.039 C 
BRANCH  12  13
HETATM   13  C2    D T   1       6.022   2.046  -7.932  1.00 14.46     0.145 A 
HETATM   14  N82   D T   1       5.392   3.029  -8.638  1.00 14.03    -0.203 N 
HETATM   15  N81   D T   1       5.500   4.382  -8.444  1.00 15.71    -0.162 NA
HETATM   16  C84   D T   1       4.599   2.333  -9.604  1.00 14.58     0.165 A 
HETATM   17  C83   D T   1       4.748   5.093  -9.297  1.00 17.09     0.121 A 
HETATM   18  C82   D T   1       3.905   4.543 -10.320  1.00 16.91     0.026 A 
HETATM   19  C81   D T   1       3.834   3.159 -10.470  1.00 15.47     0.041 A 
HETATM   20  N1    D T   1       4.747   1.020  -9.484  1.00 17.79    -0.223 NA
HETATM   21  C1    D T   1       5.636   0.842  -8.434  1.00 15.62     0.128 A 
ENDBRANCH  12  13
ENDBRANCH   8  11
ENDBRANCH   1   4
BRANCH   3  22
HETATM   22  C13   D T   1      10.481   7.300  -1.951  1.00  8.39     0.085 A 
HETATM   23  C14   D T   1      11.769   7.324  -1.375  1.00 14.59     0.019 A 
HETATM   24  C15   D T   1      12.225   8.474  -0.668  1.00 11.91    -0.001 A 
HETATM   25  C16   D T   1      11.405   9.627  -0.525  1.00 12.96     0.015 A 
HETATM   26  C17   D T   1      10.071   9.622  -1.111  1.00 14.62     0.071 A 
HETATM   27  C18   D T   1       9.639   8.453  -1.817  1.00 11.52     0.023 A 
BRANCH  25  28
HETATM   28  C20   D T   1      11.982  10.825   0.245  1.00 11.54     0.277 C 
BRANCH  28  29
HETATM   29  N3    D T   1      13.431  10.823   0.306  1.00 12.77     0.146 N 
HETATM   30  C21   D T   1      14.056  12.131  -0.006  1.00  9.68     0.286 C 
HETATM   31  C22   D T   1      15.599  11.988  -0.059  1.00 12.27     0.286 C 
HETATM   32  N4    D T   1      16.136  11.424   1.209  1.00 14.63     0.143 N 
HETATM   33  C23   D T   1      15.432  10.168   1.609  1.00 13.23     0.286 C 
HETATM   34  C25   D T   1      17.585  11.209   1.111  1.00 14.49     0.285 C 
HETATM   35  C24   D T   1      13.900  10.355   1.638  1.00 15.42     0.286 C 
ENDBRANCH  28  29
ENDBRANCH  25  28
BRANCH  26  36
HETATM   36  C19   D T   1       9.125  10.808  -1.015  1.00 14.58     0.419 C 
HETATM   37  F1    D T   1       8.789  11.003   0.252  1.00 18.20    -0.166 F 
HETATM   38  F2    D T   1       9.682  11.934  -1.444  1.00 18.68    -0.166 F 
HETATM   39  F3    D T   1       8.028  10.570  -1.769  1.00 14.12    -0.166 F 
ENDBRANCH  26  36
ENDBRANCH   3  22
TORSDOF 7
ENDMDL
MODEL 3
REMARK VINA RESULT:    -9.296      5.416     11.014
REMARK INTER + INTRA:         -13.636
REMARK INTER:                 -12.548
REMARK INTRA:                  -1.088
REMARK UNBOUND:                -0.536
REMARK  7 active torsions:
REMARK  status: ('A' for Active; 'I' for Inactive)
REMARK    1  A    between atoms: N3_2  and  C20_12 
REMARK    2  A    between atoms: C4_3  and  C5_4 
REMARK    3  A    between atoms: C13_9  and  N2_29 
REMARK    4  A    between atoms: C17_11  and  C19_33 
REMARK    5  A    between atoms: C20_12  and  C16_31 
REMARK    6  A    between atoms: C2_23  and  C3_24 
REMARK    7  A    between atoms: C9_25  and  C12_27 
REMARK       I    between atoms: C12_27  and  N2_29 
ROOT
HETATM    1  C12   D T   1       9.083   5.085  -2.086  1.00  8.81     0.275 C 
HETATM    2  O1    D T   1       8.229   5.195  -1.200  1.00 13.93    -0.266 OA
HETATM    3  N2    D T   1       9.930   6.086  -2.461  1.00 10.31    -0.208 NA
ENDROOT
BRANCH   1   4
HETATM    4  C9    D T   1       9.216   3.794  -2.808  1.00 12.21     0.037 A 
HETATM    5  C8    D T   1      10.083   2.717  -2.358  1.00 10.40     0.036 A 
HETATM    6  C7    D T   1      10.147   1.480  -3.129  1.00  7.63     0.028 A 
HETATM    7  C6    D T   1       9.367   1.330  -4.307  1.00  7.91    -0.036 A 
HETATM    8  C5    D T   1       8.508   2.414  -4.744  1.00 10.18     0.034 A 
HETATM    9  C11   D T   1       9.453   0.010  -5.088  1.00  9.41     0.027 C 
HETATM   10  C10   D T   1       8.441   3.614  -4.001  1.00 11.17     0.008 A 
BRANCH   8  11
HETATM   11  C4    D T   1       7.675   2.333  -5.934  1.00 10.71    -0.059 C 
HETATM   12  C3    D T   1       6.944   2.215  -6.878  1.00 12.15    -0.039 C 
BRANCH  12  13
HETATM   13  C2    D T   1       6.053   2.042  -7.946  1.00 14.46     0.145 A 
HETATM   14  N82   D T   1       5.418   3.037  -8.630  1.00 14.03    -0.203 N 
HETATM   15  N81   D T   1       5.523   4.386  -8.410  1.00 15.71    -0.162 NA
HETATM   16  C84   D T   1       4.626   2.358  -9.609  1.00 14.58     0.165 A 
HETATM   17  C83   D T   1       4.766   5.111  -9.248  1.00 17.09     0.121 A 
HETATM   18  C82   D T   1       3.923   4.580 -10.279  1.00 16.91     0.026 A 
HETATM   19  C81   D T   1       3.856   3.199 -10.457  1.00 15.47     0.041 A 
HETATM   20  N1    D T   1       4.778   1.043  -9.515  1.00 17.79    -0.223 NA
HETATM   21  C1    D T   1       5.669   0.847  -8.471  1.00 15.62     0.128 A 
ENDBRANCH  12  13
ENDBRANCH   8  11
ENDBRANCH   1   4
BRANCH   3  22
HETATM   22  C13   D T   1      10.248   7.252  -1.694  1.00  8.39     0.085 A 
HETATM   23  C14   D T   1      11.207   7.120  -0.666  1.00 14.59     0.019 A 
HETATM   24  C15   D T   1      11.573   8.243   0.130  1.00 11.91    -0.001 A 
HETATM   25  C16   D T   1      10.993   9.524  -0.087  1.00 12.96     0.015 A 
HETATM   26  C17   D T   1      10.001   9.680  -1.142  1.00 14.62     0.071 A 
HETATM   27  C18   D T   1       9.652   8.534  -1.928  1.00 11.52     0.023 A 
BRANCH  25  28
HETATM   28  C20   D T   1      11.455  10.681   0.813  1.00 11.54     0.277 C 
BRANCH  28  29
HETATM   29  N3    D T   1      10.885  10.632   2.146  1.00 12.77     0.146 N 
HETATM   30  C21   D T   1      11.759   9.995   3.160  1.00  9.68     0.286 C 
HETATM   31  C22   D T   1      11.005   9.859   4.508  1.00 12.27     0.286 C 
HETATM   32  N4    D T   1      10.501  11.176   4.984  1.00 14.63     0.143 N 
HETATM   33  C23   D T   1       9.720  11.893   3.930  1.00 13.23     0.286 C 
HETATM   34  C25   D T   1       9.712  11.019   6.211  1.00 14.49     0.285 C 
HETATM   35  C24   D T   1      10.505  11.995   2.605  1.00 15.42     0.286 C 
ENDBRANCH  28  29
ENDBRANCH  25  28
BRANCH  26  36
HETATM   36  C19   D T   1       9.330  11.009  -1.451  1.00 14.58     0.419 C 
HETATM   37  F1    D T   1      10.256  11.935  -1.650  1.00 18.20    -0.166 F 
HETATM   38  F2    D T   1       8.593  10.958  -2.554  1.00 18.68    -0.166 F 
HETATM   39  F3    D T   1       8.522  11.354  -0.423  1.00 14.12    -0.166 F 
ENDBRANCH  26  36
ENDBRANCH   3  22
TORSDOF 7
ENDMDL
MODEL 4
REMARK VINA RESULT:    -9.113      5.256     11.162
REMARK INTER + INTRA:         -13.377
REMARK INTER:                 -12.416
REMARK INTRA:                  -0.961
REMARK UNBOUND:                -0.536
REMARK  7 active torsions:
REMARK  status: ('A' for Active; 'I' for Inactive)
REMARK    1  A    between atoms: N3_2  and  C20_12 
REMARK    2  A    between atoms: C4_3  and  C5_4 
REMARK    3  A    between atoms: C13_9  and  N2_29 
REMARK    4  A    between atoms: C17_11  and  C19_33 
REMARK    5  A    between atoms: C20_12  and  C16_31 
REMARK    6  A    between atoms: C2_23  and  C3_24 
REMARK    7  A    between atoms: C9_25  and  C12_27 
REMARK       I    between atoms: C12_27  and  N2_29 
ROOT
HETATM    1  C12   D T   1       9.272   5.204  -1.147  1.00  8.81     0.275 C 
HETATM    2  O1    D T   1       8.151   5.725  -1.161  1.00 13.93    -0.266 OA
HETATM    3  N2    D T   1      10.332   5.688  -0.438  1.00 10.31    -0.208 NA
ENDROOT
BRANCH   1   4
HETATM    4  C9    D T   1       9.508   3.973  -1.944  1.00 12.21     0.037 A 
HETATM    5  C8    D T   1      10.434   2.929  -1.539  1.00 10.40     0.036 A 
HETATM    6  C7    D T   1      10.599   1.751  -2.384  1.00  7.63     0.028 A 
HETATM    7  C6    D T   1       9.860   1.626  -3.591  1.00  7.91    -0.036 A 
HETATM    8  C5    D T   1       8.940   2.678  -3.982  1.00 10.18     0.034 A 
HETATM    9  C11   D T   1      10.052   0.368  -4.450  1.00  9.41     0.027 C 
HETATM   10  C10   D T   1       8.775   3.821  -3.167  1.00 11.17     0.008 A 
BRANCH   8  11
HETATM   11  C4    D T   1       8.143   2.619  -5.197  1.00 10.71    -0.059 C 
HETATM   12  C3    D T   1       7.488   2.495  -6.195  1.00 12.15    -0.039 C 
BRANCH  12  13
HETATM   13  C2    D T   1       6.720   2.287  -7.349  1.00 14.46     0.145 A 
HETATM   14  N82   D T   1       5.952   3.222  -7.980  1.00 14.03    -0.203 N 
HETATM   15  N81   D T   1       5.778   4.531  -7.613  1.00 15.71    -0.162 NA
HETATM   16  C84   D T   1       5.373   2.529  -9.089  1.00 14.58     0.165 A 
HETATM   17  C83   D T   1       4.953   5.198  -8.434  1.00 17.09     0.121 A 
HETATM   18  C82   D T   1       4.300   4.646  -9.585  1.00 16.91     0.026 A 
HETATM   19  C81   D T   1       4.513   3.307  -9.910  1.00 15.47     0.041 A 
HETATM   20  N1    D T   1       5.770   1.263  -9.119  1.00 17.79    -0.223 NA
HETATM   21  C1    D T   1       6.610   1.113  -8.027  1.00 15.62     0.128 A 
ENDBRANCH  12  13
ENDBRANCH   8  11
ENDBRANCH   1   4
BRANCH   3  22
HETATM   22  C13   D T   1      10.264   6.601   0.662  1.00  8.39     0.085 A 
HETATM   23  C14   D T   1       9.967   6.071   1.937  1.00 14.59     0.019 A 
HETATM   24  C15   D T   1       9.891   6.925   3.075  1.00 11.91    -0.001 A 
HETATM   25  C16   D T   1      10.114   8.325   2.965  1.00 12.96     0.015 A 
HETATM   26  C17   D T   1      10.420   8.891   1.657  1.00 14.62     0.071 A 
HETATM   27  C18   D T   1      10.491   8.010   0.530  1.00 11.52     0.023 A 
BRANCH  25  28
HETATM   28  C20   D T   1      10.020   9.168   4.246  1.00 11.54     0.277 C 
BRANCH  28  29
HETATM   29  N3    D T   1       9.306   8.503   5.318  1.00 12.77     0.146 N 
HETATM   30  C21   D T   1      10.183   7.860   6.327  1.00  9.68     0.286 C 
HETATM   31  C22   D T   1       9.330   7.056   7.342  1.00 12.27     0.286 C 
HETATM   32  N4    D T   1       8.303   7.915   7.991  1.00 14.63     0.143 N 
HETATM   33  C23   D T   1       7.489   8.671   6.991  1.00 13.23     0.286 C 
HETATM   34  C25   D T   1       7.446   7.122   8.880  1.00 14.49     0.285 C 
HETATM   35  C24   D T   1       8.378   9.447   5.997  1.00 15.42     0.286 C 
ENDBRANCH  28  29
ENDBRANCH  25  28
BRANCH  26  36
HETATM   36  C19   D T   1      10.677  10.374   1.442  1.00 14.58     0.419 C 
HETATM   37  F1    D T   1       9.597  11.063   1.776  1.00 18.20    -0.166 F 
HETATM   38  F2    D T   1      11.673  10.828   2.194  1.00 18.68    -0.166 F 
HETATM   39  F3    D T   1      11.000  10.591   0.146  1.00 14.12    -0.166 F 
ENDBRANCH  26  36
ENDBRANCH   3  22
TORSDOF 7
ENDMDL
MODEL 5
REMARK VINA RESULT:    -9.109      5.744     11.168
REMARK INTER + INTRA:         -13.372
REMARK INTER:                 -12.321
REMARK INTRA:                  -1.051
REMARK UNBOUND:                -0.536
REMARK  7 active torsions:
REMARK  status: ('A' for Active; 'I' for Inactive)
REMARK    1  A    between atoms: N3_2  and  C20_12 
REMARK    2  A    between atoms: C4_3  and  C5_4 
REMARK    3  A    between atoms: C13_9  and  N2_29 
REMARK    4  A    between atoms: C17_11  and  C19_33 
REMARK    5  A    between atoms: C20_12  and  C16_31 
REMARK    6  A    between atoms: C2_23  and  C3_24 
REMARK    7  A    between atoms: C9_25  and  C12_27 
REMARK       I    between atoms: C12_27  and  N2_29 
ROOT
HETATM    1  C12   D T   1       9.605   3.814   0.550  1.00  8.81     0.275 C 
HETATM    2  O1    D T   1       8.440   3.709   0.951  1.00 13.93    -0.266 OA
HETATM    3  N2    D T   1      10.485   4.755   0.997  1.00 10.31    -0.208 NA
ENDROOT
BRANCH   1   4
HETATM    4  C9    D T   1      10.102   2.872  -0.485  1.00 12.21     0.037 A 
HETATM    5  C8    D T   1      11.259   2.015  -0.289  1.00 10.40     0.036 A 
HETATM    6  C7    D T   1      11.674   1.116  -1.361  1.00  7.63     0.028 A 
HETATM    7  C6    D T   1      10.951   1.078  -2.584  1.00  7.91    -0.036 A 
HETATM    8  C5    D T   1       9.799   1.941  -2.764  1.00 10.18     0.034 A 
HETATM    9  C11   D T   1      11.411   0.114  -3.686  1.00  9.41     0.027 C 
HETATM   10  C10   D T   1       9.392   2.814  -1.729  1.00 11.17     0.008 A 
BRANCH   8  11
HETATM   11  C4    D T   1       9.005   1.955  -3.983  1.00 10.71    -0.059 C 
HETATM   12  C3    D T   1       8.308   2.024  -4.957  1.00 12.15    -0.039 C 
BRANCH  12  13
HETATM   13  C2    D T   1       7.466   2.154  -6.071  1.00 14.46     0.145 A 
HETATM   14  N82   D T   1       7.358   3.255  -6.869  1.00 14.03    -0.203 N 
HETATM   15  N81   D T   1       8.040   4.437  -6.741  1.00 15.71    -0.162 NA
HETATM   16  C84   D T   1       6.379   2.899  -7.850  1.00 14.58     0.165 A 
HETATM   17  C83   D T   1       7.708   5.335  -7.682  1.00 17.09     0.121 A 
HETATM   18  C82   D T   1       6.751   5.128  -8.729  1.00 16.91     0.026 A 
HETATM   19  C81   D T   1       6.087   3.905  -8.810  1.00 15.47     0.041 A 
HETATM   20  N1    D T   1       5.933   1.665  -7.650  1.00 17.79    -0.223 NA
HETATM   21  C1    D T   1       6.612   1.202  -6.533  1.00 15.62     0.128 A 
ENDBRANCH  12  13
ENDBRANCH   8  11
ENDBRANCH   1   4
BRANCH   3  22
HETATM   22  C13   D T   1      10.376   5.502   2.212  1.00  8.39     0.085 A 
HETATM   23  C14   D T   1      10.305   6.909   2.113  1.00 14.59     0.019 A 
HETATM   24  C15   D T   1      10.189   7.711   3.285  1.00 11.91    -0.001 A 
HETATM   25  C16   D T   1      10.136   7.126   4.580  1.00 12.96     0.015 A 
HETATM   26  C17   D T   1      10.209   5.676   4.703  1.00 14.62     0.071 A 
HETATM   27  C18   D T   1      10.325   4.893   3.509  1.00 11.52     0.023 A 
BRANCH  25  28
HETATM   28  C20   D T   1      10.001   8.068   5.787  1.00 11.54     0.277 C 
BRANCH  28  29
HETATM   29  N3    D T   1       8.645   8.158   6.294  1.00 12.77     0.146 N 
HETATM   30  C21   D T   1       8.494   7.736   7.707  1.00  9.68     0.286 C 
HETATM   31  C22   D T   1       6.996   7.727   8.106  1.00 12.27     0.286 C 
HETATM   32  N4    D T   1       6.363   9.054   7.870  1.00 14.63     0.143 N 
HETATM   33  C23   D T   1       6.610   9.556   6.484  1.00 13.23     0.286 C 
HETATM   34  C25   D T   1       4.926   9.005   8.166  1.00 14.49     0.285 C 
HETATM   35  C24   D T   1       8.112   9.537   6.128  1.00 15.42     0.286 C 
ENDBRANCH  28  29
ENDBRANCH  25  28
BRANCH  26  36
HETATM   36  C19   D T   1      10.156   4.959   6.043  1.00 14.58     0.419 C 
HETATM   37  F1    D T   1      10.611   3.724   5.902  1.00 18.20    -0.166 F 
HETATM   38  F2    D T   1      10.914   5.548   6.960  1.00 18.68    -0.166 F 
HETATM   39  F3    D T   1       8.882   4.950   6.497  1.00 14.12    -0.166 F 
ENDBRANCH  26  36
ENDBRANCH   3  22
TORSDOF 7
ENDMDL
MODEL 6
REMARK VINA RESULT:    -9.039      5.041     11.054
REMARK INTER + INTRA:         -13.274
REMARK INTER:                 -12.172
REMARK INTRA:                  -1.102
REMARK UNBOUND:                -0.536
REMARK  7 active torsions:
REMARK  status: ('A' for Active; 'I' for Inactive)
REMARK    1  A    between atoms: N3_2  and  C20_12 
REMARK    2  A    between atoms: C4_3  and  C5_4 
REMARK    3  A    between atoms: C13_9  and  N2_29 
REMARK    4  A    between atoms: C17_11  and  C19_33 
REMARK    5  A    between atoms: C20_12  and  C16_31 
REMARK    6  A    between atoms: C2_23  and  C3_24 
REMARK    7  A    between atoms: C9_25  and  C12_27 
REMARK       I    between atoms: C12_27  and  N2_29 
ROOT
HETATM    1  C12   D T   1      10.824   4.085  -0.429  1.00  8.81     0.275 C 
HETATM    2  O1    D T   1      11.921   4.173   0.132  1.00 13.93    -0.266 OA
HETATM    3  N2    D T   1       9.730   4.827  -0.092  1.00 10.31    -0.208 NA
ENDROOT
BRANCH   1   4
HETATM    4  C9    D T   1      10.656   3.118  -1.543  1.00 12.21     0.037 A 
HETATM    5  C8    D T   1      11.152   1.753  -1.494  1.00 10.40     0.036 A 
HETATM    6  C7    D T   1      10.937   0.870  -2.635  1.00  7.63     0.028 A 
HETATM    7  C6    D T   1      10.247   1.342  -3.785  1.00  7.91    -0.036 A 
HETATM    8  C5    D T   1       9.758   2.707  -3.819  1.00 10.18     0.034 A 
HETATM    9  C11   D T   1      10.031   0.382  -4.964  1.00  9.41     0.027 C 
HETATM   10  C10   D T   1       9.963   3.567  -2.716  1.00 11.17     0.008 A 
BRANCH   8  11
HETATM   11  C4    D T   1       9.037   3.260  -4.955  1.00 10.71    -0.059 C 
HETATM   12  C3    D T   1       8.406   3.763  -5.844  1.00 12.15    -0.039 C 
BRANCH  12  13
HETATM   13  C2    D T   1       7.646   4.391  -6.840  1.00 14.46     0.145 A 
HETATM   14  N82   D T   1       6.816   3.770  -7.727  1.00 14.03    -0.203 N 
HETATM   15  N81   D T   1       6.567   2.426  -7.821  1.00 15.71    -0.162 NA
HETATM   16  C84   D T   1       6.283   4.828  -8.528  1.00 14.58     0.165 A 
HETATM   17  C83   D T   1       5.705   2.122  -8.804  1.00 17.09     0.121 A 
HETATM   18  C82   D T   1       5.085   3.067  -9.687  1.00 16.91     0.026 A 
HETATM   19  C81   D T   1       5.377   4.422  -9.545  1.00 15.47     0.041 A 
HETATM   20  N1    D T   1       6.762   6.005  -8.144  1.00 17.79    -0.223 NA
HETATM   21  C1    D T   1       7.618   5.728  -7.089  1.00 15.62     0.128 A 
ENDBRANCH  12  13
ENDBRANCH   8  11
ENDBRANCH   1   4
BRANCH   3  22
HETATM   22  C13   D T   1       9.737   6.046   0.659  1.00  8.39     0.085 A 
HETATM   23  C14   D T   1       9.810   5.950   2.066  1.00 14.59     0.019 A 
HETATM   24  C15   D T   1       9.827   7.125   2.871  1.00 11.91    -0.001 A 
HETATM   25  C16   D T   1       9.777   8.421   2.288  1.00 12.96     0.015 A 
HETATM   26  C17   D T   1       9.700   8.541   0.838  1.00 14.62     0.071 A 
HETATM   27  C18   D T   1       9.685   7.344   0.053  1.00 11.52     0.023 A 
BRANCH  25  28
HETATM   28  C20   D T   1       9.810   9.633   3.233  1.00 11.54     0.277 C 
BRANCH  28  29
HETATM   29  N3    D T   1       9.803   9.266   4.635  1.00 12.77     0.146 N 
HETATM   30  C21   D T   1      10.965   9.774   5.404  1.00  9.68     0.286 C 
HETATM   31  C22   D T   1      10.941   9.207   6.847  1.00 12.27     0.286 C 
HETATM   32  N4    D T   1       9.660   9.525   7.536  1.00 14.63     0.143 N 
HETATM   33  C23   D T   1       8.472   9.132   6.719  1.00 13.23     0.286 C 
HETATM   34  C25   D T   1       9.616   8.905   8.865  1.00 14.49     0.285 C 
HETATM   35  C24   D T   1       8.543   9.710   5.289  1.00 15.42     0.286 C 
ENDBRANCH  28  29
ENDBRANCH  25  28
BRANCH  26  36
HETATM   36  C19   D T   1       9.647   9.883   0.125  1.00 14.58     0.419 C 
HETATM   37  F1    D T   1       8.490  10.474   0.382  1.00 18.20    -0.166 F 
HETATM   38  F2    D T   1      10.602  10.710   0.533  1.00 18.68    -0.166 F 
HETATM   39  F3    D T   1       9.800   9.691  -1.205  1.00 14.12    -0.166 F 
ENDBRANCH  26  36
ENDBRANCH   3  22
TORSDOF 7
ENDMDL
MODEL 7
REMARK VINA RESULT:    -8.931      5.066     11.265
REMARK INTER + INTRA:         -13.121
REMARK INTER:                 -12.372
REMARK INTRA:                  -0.749
REMARK UNBOUND:                -0.536
REMARK  7 active torsions:
REMARK  status: ('A' for Active; 'I' for Inactive)
REMARK    1  A    between atoms: N3_2  and  C20_12 
REMARK    2  A    between atoms: C4_3  and  C5_4 
REMARK    3  A    between atoms: C13_9  and  N2_29 
REMARK    4  A    between atoms: C17_11  and  C19_33 
REMARK    5  A    between atoms: C20_12  and  C16_31 
REMARK    6  A    between atoms: C2_23  and  C3_24 
REMARK    7  A    between atoms: C9_25  and  C12_27 
REMARK       I    between atoms: C12_27  and  N2_29 
ROOT
HETATM    1  C12   D T   1       9.083   4.045  -0.195  1.00  8.81     0.275 C 
HETATM    2  O1    D T   1       7.993   3.807   0.336  1.00 13.93    -0.266 OA
HETATM    3  N2    D T   1       9.879   5.103   0.134  1.00 10.31    -0.208 NA
ENDROOT
BRANCH   1   4
HETATM    4  C9    D T   1       9.582   3.142  -1.264  1.00 12.21     0.037 A 
HETATM    5  C8    D T   1      10.767   2.316  -1.117  1.00 10.40     0.036 A 
HETATM    6  C7    D T   1      11.181   1.454  -2.220  1.00  7.63     0.028 A 
HETATM    7  C6    D T   1      10.429   1.424  -3.426  1.00  7.91    -0.036 A 
HETATM    8  C5    D T   1       9.248   2.257  -3.557  1.00 10.18     0.034 A 
HETATM    9  C11   D T   1      10.888   0.499  -4.562  1.00  9.41     0.027 C 
HETATM   10  C10   D T   1       8.842   3.092  -2.492  1.00 11.17     0.008 A 
BRANCH   8  11
HETATM   11  C4    D T   1       8.423   2.276  -4.755  1.00 10.71    -0.059 C 
HETATM   12  C3    D T   1       7.778   2.227  -5.766  1.00 12.15    -0.039 C 
BRANCH  12  13
HETATM   13  C2    D T   1       7.050   2.113  -6.958  1.00 14.46     0.145 A 
HETATM   14  N82   D T   1       6.344   3.112  -7.565  1.00 14.03    -0.203 N 
HETATM   15  N81   D T   1       6.208   4.405  -7.133  1.00 15.71    -0.162 NA
HETATM   16  C84   D T   1       5.784   2.503  -8.732  1.00 14.58     0.165 A 
HETATM   17  C83   D T   1       5.443   5.149  -7.947  1.00 17.09     0.121 A 
HETATM   18  C82   D T   1       4.815   4.686  -9.151  1.00 16.91     0.026 A 
HETATM   19  C81   D T   1       4.989   3.360  -9.541  1.00 15.47     0.041 A 
HETATM   20  N1    D T   1       6.132   1.226  -8.817  1.00 17.79    -0.223 NA
HETATM   21  C1    D T   1       6.922   0.983  -7.703  1.00 15.62     0.128 A 
ENDBRANCH  12  13
ENDBRANCH   8  11
ENDBRANCH   1   4
BRANCH   3  22
HETATM   22  C13   D T   1       9.808   5.867   1.342  1.00  8.39     0.085 A 
HETATM   23  C14   D T   1      10.031   5.190   2.561  1.00 14.59     0.019 A 
HETATM   24  C15   D T   1       9.981   5.894   3.799  1.00 11.91    -0.001 A 
HETATM   25  C16   D T   1       9.711   7.289   3.846  1.00 12.96     0.015 A 
HETATM   26  C17   D T   1       9.476   8.005   2.599  1.00 14.62     0.071 A 
HETATM   27  C18   D T   1       9.533   7.274   1.369  1.00 11.52     0.023 A 
BRANCH  25  28
HETATM   28  C20   D T   1       9.685   7.968   5.224  1.00 11.54     0.277 C 
BRANCH  28  29
HETATM   29  N3    D T   1      10.424   7.238   6.236  1.00 12.77     0.146 N 
HETATM   30  C21   D T   1      11.292   8.086   7.088  1.00  9.68     0.286 C 
HETATM   31  C22   D T   1      12.146   7.201   8.032  1.00 12.27     0.286 C 
HETATM   32  N4    D T   1      11.290   6.306   8.859  1.00 14.63     0.143 N 
HETATM   33  C23   D T   1      10.319   5.532   8.028  1.00 13.23     0.286 C 
HETATM   34  C25   D T   1      12.114   5.411   9.680  1.00 14.49     0.285 C 
HETATM   35  C24   D T   1       9.500   6.452   7.098  1.00 15.42     0.286 C 
ENDBRANCH  28  29
ENDBRANCH  25  28
BRANCH  26  36
HETATM   36  C19   D T   1       9.184   9.497   2.548  1.00 14.58     0.419 C 
HETATM   37  F1    D T   1       8.304   9.807   3.488  1.00 18.20    -0.166 F 
HETATM   38  F2    D T   1      10.267  10.231   2.776  1.00 18.68    -0.166 F 
HETATM   39  F3    D T   1       8.710   9.820   1.324  1.00 14.12    -0.166 F 
ENDBRANCH  26  36
ENDBRANCH   3  22
TORSDOF 7
ENDMDL
MODEL 8
REMARK VINA RESULT:    -8.821      6.681     10.176
REMARK INTER + INTRA:         -12.966
REMARK INTER:                 -12.298
REMARK INTRA:                  -0.668
REMARK UNBOUND:                -0.536
REMARK  7 active torsions:
REMARK  status: ('A' for Active; 'I' for Inactive)
REMARK    1  A    between atoms: N3_2  and  C20_12 
REMARK    2  A    between atoms: C4_3  and  C5_4 
REMARK    3  A    between atoms: C13_9  and  N2_29 
REMARK    4  A    between atoms: C17_11  and  C19_33 
REMARK    5  A    between atoms: C20_12  and  C16_31 
REMARK    6  A    between atoms: C2_23  and  C3_24 
REMARK    7  A    between atoms: C9_25  and  C12_27 
REMARK       I    between atoms: C12_27  and  N2_29 
ROOT
HETATM    1  C12   D T   1       9.543   7.315   0.263  1.00  8.81     0.275 C 
HETATM    2  O1    D T   1       9.180   6.278   0.830  1.00 13.93    -0.266 OA
HETATM    3  N2    D T   1       9.941   7.374  -1.040  1.00 10.31    -0.208 NA
ENDROOT
BRANCH   1   4
HETATM    4  C9    D T   1       9.559   8.590   1.025  1.00 12.21     0.037 A 
HETATM    5  C8    D T   1       9.843   9.877   0.415  1.00 10.40     0.036 A 
HETATM    6  C7    D T   1       9.832  11.080   1.242  1.00  7.63     0.028 A 
HETATM    7  C6    D T   1       9.546  10.991   2.631  1.00  7.91    -0.036 A 
HETATM    8  C5    D T   1       9.266   9.697   3.225  1.00 10.18     0.034 A 
HETATM    9  C11   D T   1       9.535  12.278   3.468  1.00  9.41     0.027 C 
HETATM   10  C10   D T   1       9.274   8.529   2.430  1.00 11.17     0.008 A 
BRANCH   8  11
HETATM   11  C4    D T   1       8.958   9.526   4.636  1.00 10.71    -0.059 C 
HETATM   12  C3    D T   1       8.731   9.314   5.796  1.00 12.15    -0.039 C 
BRANCH  12  13
HETATM   13  C2    D T   1       8.496   9.011   7.144  1.00 14.46     0.145 A 
HETATM   14  N82   D T   1       8.767   9.823   8.207  1.00 14.03    -0.203 N 
HETATM   15  N81   D T   1       9.317  11.078   8.168  1.00 15.71    -0.162 NA
HETATM   16  C84   D T   1       8.358   9.070   9.353  1.00 14.58     0.165 A 
HETATM   17  C83   D T   1       9.466  11.620   9.386  1.00 17.09     0.121 A 
HETATM   18  C82   D T   1       9.103  10.996  10.625  1.00 16.91     0.026 A 
HETATM   19  C81   D T   1       8.547   9.718  10.604  1.00 15.47     0.041 A 
HETATM   20  N1    D T   1       7.874   7.887   8.997  1.00 17.79    -0.223 NA
HETATM   21  C1    D T   1       7.965   7.850   7.614  1.00 15.62     0.128 A 
ENDBRANCH  12  13
ENDBRANCH   8  11
ENDBRANCH   1   4
BRANCH   3  22
HETATM   22  C13   D T   1       9.664   6.401  -2.051  1.00  8.39     0.085 A 
HETATM   23  C14   D T   1      10.252   6.588  -3.321  1.00 14.59     0.019 A 
HETATM   24  C15   D T   1      10.021   5.652  -4.371  1.00 11.91    -0.001 A 
HETATM   25  C16   D T   1       9.202   4.507  -4.172  1.00 12.96     0.015 A 
HETATM   26  C17   D T   1       8.585   4.297  -2.869  1.00 14.62     0.071 A 
HETATM   27  C18   D T   1       8.834   5.253  -1.832  1.00 11.52     0.023 A 
BRANCH  25  28
HETATM   28  C20   D T   1       9.016   3.546  -5.357  1.00 11.54     0.277 C 
BRANCH  28  29
HETATM   29  N3    D T   1       7.901   3.901  -6.213  1.00 12.77     0.146 N 
HETATM   30  C21   D T   1       8.253   4.819  -7.323  1.00  9.68     0.286 C 
HETATM   31  C22   D T   1       6.974   5.253  -8.085  1.00 12.27     0.286 C 
HETATM   32  N4    D T   1       6.212   4.076  -8.582  1.00 14.63     0.143 N 
HETATM   33  C23   D T   1       5.954   3.076  -7.501  1.00 13.23     0.286 C 
HETATM   34  C25   D T   1       4.959   4.498  -9.221  1.00 14.49     0.285 C 
HETATM   35  C24   D T   1       7.252   2.681  -6.765  1.00 15.42     0.286 C 
ENDBRANCH  28  29
ENDBRANCH  25  28
BRANCH  26  36
HETATM   36  C19   D T   1       7.698   3.100  -2.562  1.00 14.58     0.419 C 
HETATM   37  F1    D T   1       7.226   3.206  -1.329  1.00 18.20    -0.166 F 
HETATM   38  F2    D T   1       6.649   3.028  -3.372  1.00 18.68    -0.166 F 
HETATM   39  F3    D T   1       8.415   1.962  -2.703  1.00 14.12    -0.166 F 
ENDBRANCH  26  36
ENDBRANCH   3  22
TORSDOF 7
ENDMDL
MODEL 9
REMARK VINA RESULT:    -8.688      5.175      8.371
REMARK INTER + INTRA:         -12.778
REMARK INTER:                 -12.435
REMARK INTRA:                  -0.344
REMARK UNBOUND:                -0.536
REMARK  7 active torsions:
REMARK  status: ('A' for Active; 'I' for Inactive)
REMARK    1  A    between atoms: N3_2  and  C20_12 
REMARK    2  A    between atoms: C4_3  and  C5_4 
REMARK    3  A    between atoms: C13_9  and  N2_29 
REMARK    4  A    between atoms: C17_11  and  C19_33 
REMARK    5  A    between atoms: C20_12  and  C16_31 
REMARK    6  A    between atoms: C2_23  and  C3_24 
REMARK    7  A    between atoms: C9_25  and  C12_27 
REMARK       I    between atoms: C12_27  and  N2_29 
ROOT
HETATM    1  C12   D T   1       8.825   4.730  -1.257  1.00  8.81     0.275 C 
HETATM    2  O1    D T   1       8.132   3.922  -0.628  1.00 13.93    -0.266 OA
HETATM    3  N2    D T   1       9.207   4.562  -2.555  1.00 10.31    -0.208 NA
ENDROOT
BRANCH   1   4
HETATM    4  C9    D T   1       9.286   5.969  -0.579  1.00 12.21     0.037 A 
HETATM    5  C8    D T   1       9.587   7.199  -1.291  1.00 10.40     0.036 A 
HETATM    6  C7    D T   1      10.031   8.370  -0.542  1.00  7.63     0.028 A 
HETATM    7  C6    D T   1      10.166   8.306   0.872  1.00  7.91    -0.036 A 
HETATM    8  C5    D T   1       9.862   7.070   1.567  1.00 10.18     0.034 A 
HETATM    9  C11   D T   1      10.626   9.560   1.628  1.00  9.41     0.027 C 
HETATM   10  C10   D T   1       9.431   5.933   0.847  1.00 11.17     0.008 A 
BRANCH   8  11
HETATM   11  C4    D T   1       9.969   6.929   3.011  1.00 10.71    -0.059 C 
HETATM   12  C3    D T   1       9.982   6.831   4.207  1.00 12.15    -0.039 C 
BRANCH  12  13
HETATM   13  C2    D T   1       9.936   6.726   5.604  1.00 14.46     0.145 A 
HETATM   14  N82   D T   1       9.483   7.682   6.466  1.00 14.03    -0.203 N 
HETATM   15  N81   D T   1       8.993   8.920   6.141  1.00 15.71    -0.162 NA
HETATM   16  C84   D T   1       9.643   7.105   7.765  1.00 14.58     0.165 A 
HETATM   17  C83   D T   1       8.632   9.637   7.216  1.00 17.09     0.121 A 
HETATM   18  C82   D T   1       8.729   9.199   8.579  1.00 16.91     0.026 A 
HETATM   19  C81   D T   1       9.236   7.929   8.850  1.00 15.47     0.041 A 
HETATM   20  N1    D T   1      10.158   5.885   7.685  1.00 17.79    -0.223 NA
HETATM   21  C1    D T   1      10.344   5.650   6.331  1.00 15.62     0.128 A 
ENDBRANCH  12  13
ENDBRANCH   8  11
ENDBRANCH   1   4
BRANCH   3  22
HETATM   22  C13   D T   1       8.602   3.679  -3.504  1.00  8.39     0.085 A 
HETATM   23  C14   D T   1       7.350   4.051  -4.041  1.00 14.59     0.019 A 
HETATM   24  C15   D T   1       6.696   3.219  -4.996  1.00 11.91    -0.001 A 
HETATM   25  C16   D T   1       7.282   2.001  -5.438  1.00 12.96     0.015 A 
HETATM   26  C17   D T   1       8.573   1.599  -4.895  1.00 14.62     0.071 A 
HETATM   27  C18   D T   1       9.207   2.454  -3.937  1.00 11.52     0.023 A 
BRANCH  25  28
HETATM   28  C20   D T   1       6.510   1.172  -6.477  1.00 11.54     0.277 C 
BRANCH  28  29
HETATM   29  N3    D T   1       5.781   1.984  -7.431  1.00 12.77     0.146 N 
HETATM   30  C21   D T   1       6.506   3.198  -7.878  1.00  9.68     0.286 C 
HETATM   31  C22   D T   1       5.589   4.070  -8.775  1.00 12.27     0.286 C 
HETATM   32  N4    D T   1       5.070   3.296  -9.935  1.00 14.63     0.143 N 
HETATM   33  C23   D T   1       4.445   2.005  -9.515  1.00 13.23     0.286 C 
HETATM   34  C25   D T   1       4.133   4.105 -10.723  1.00 14.49     0.285 C 
HETATM   35  C24   D T   1       5.388   1.177  -8.618  1.00 15.42     0.286 C 
ENDBRANCH  28  29
ENDBRANCH  25  28
BRANCH  26  36
HETATM   36  C19   D T   1       9.278   0.317  -5.310  1.00 14.58     0.419 C 
HETATM   37  F1    D T   1       8.740  -0.710  -4.669  1.00 18.20    -0.166 F 
HETATM   38  F2    D T   1       9.153   0.071  -6.609  1.00 18.68    -0.166 F 
HETATM   39  F3    D T   1      10.597   0.419  -5.028  1.00 14.12    -0.166 F 
ENDBRANCH  26  36
ENDBRANCH   3  22
TORSDOF 7
ENDMDL
