MODEL 1
REMARK VINA RESULT:    -9.387      0.000      0.000
REMARK INTER + INTRA:         -13.192
REMARK INTER:                 -12.131
REMARK INTRA:                  -1.061
REMARK UNBOUND:                -1.061
REMARK  5 active torsions:
REMARK  status: ('A' for Active; 'I' for Inactive)
REMARK    1  A    between atoms: C3_3  and  C48_30 
REMARK    2  A    between atoms: C7_6  and  C10_8 
REMARK    3  A    between atoms: C13_11  and  C24_18 
REMARK    4  A    between atoms: N27_20  and  C31_23 
REMARK    5  A    between atoms: C48_30  and  N51_31 
ROOT
HETATM    1  C10   D T   1      -1.049   4.475  10.349  1.00 15.48     0.019 A 
HETATM    2  C11   D T   1      -1.318   3.320  11.110  1.00 17.77     0.099 A 
HETATM    3  N12   D T   1      -0.323   2.640  11.760  1.00 14.42    -0.242 NA
HETATM    4  C13   D T   1      -0.611   1.533  12.489  1.00 16.70     0.103 A 
HETATM    5  C14   D T   1      -1.936   1.090  12.559  1.00 16.81     0.118 A 
HETATM    6  N16   D T   1      -2.923   1.742  11.912  1.00 18.92    -0.241 NA
HETATM    7  C17   D T   1      -2.645   2.853  11.194  1.00 19.63     0.099 A 
HETATM    8  C18   D T   1      -3.693   3.520  10.537  1.00 16.22     0.021 A 
HETATM    9  C20   D T   1      -3.418   4.662   9.778  1.00 16.47     0.002 A 
HETATM   10  C22   D T   1      -2.100   5.146   9.692  1.00 11.45     0.002 A 
ENDROOT
BRANCH   1  11
HETATM   11  C7    D T   1       0.327   5.019  10.171  1.00 15.00     0.006 A 
HETATM   12  C5    D T   1       0.500   6.376  10.474  1.00 16.13     0.030 A 
HETATM   13  C4    D T   1       1.747   6.992  10.330  1.00 20.46     0.140 A 
HETATM   14  C3    D T   1       2.846   6.237   9.884  1.00 19.71     0.055 A 
HETATM   15  F47   D T   1       1.858   8.294  10.627  1.00 18.81    -0.204 F 
HETATM   16  C2    D T   1       2.664   4.876   9.567  1.00 20.82     0.140 A 
HETATM   17  F1    D T   1       3.675   4.116   9.144  1.00 22.79    -0.204 F 
HETATM   18  C8    D T   1       1.411   4.266   9.708  1.00 15.46     0.030 A 
BRANCH  14  19
HETATM   19  C48   D T   1       4.229   6.900   9.754  1.00 20.25     0.129 C 
BRANCH  19  20
HETATM   20  N51   D T   1       4.610   7.020   8.299  1.00 24.07    -0.361 N 
HETATM   21  C52   D T   1       6.053   6.734   8.018  1.00 22.40     0.130 C 
HETATM   22  C55   D T   1       6.418   6.855   6.514  1.00 27.40     0.166 C 
HETATM   23  O58   D T   1       5.933   8.104   5.983  1.00 26.30    -0.350 OA
HETATM   24  C59   D T   1       4.497   8.188   6.061  1.00 25.21     0.166 C 
HETATM   25  C62   D T   1       4.066   8.201   7.553  1.00 22.22     0.130 C 
ENDBRANCH  19  20
ENDBRANCH  14  19
ENDBRANCH   1  11
BRANCH   4  26
HETATM   26  C24   D T   1       0.512   0.818  13.220  1.00 15.92     0.059 A 
HETATM   27  C25   D T   1       1.671   1.298  13.750  1.00 18.01     0.098 A 
HETATM   28  N27   D T   1       2.303   0.277  14.274  1.00 18.37    -0.251 N 
HETATM   29  N28   D T   1       1.589  -0.857  14.080  1.00 18.72    -0.168 NA
HETATM   30  C29   D T   1       0.506  -0.624  13.460  1.00 18.29     0.123 A 
BRANCH  28  31
HETATM   31  C31   D T   1       3.592   0.197  14.948  1.00 23.01     0.110 C 
HETATM   32  C33   D T   1       4.394   1.513  14.716  1.00 23.05     0.063 C 
HETATM   33  C36   D T   1       5.774   1.481  15.422  1.00 27.20     0.292 C 
HETATM   34  N39   D T   1       5.560   1.133  16.843  1.00 30.30     0.339 N 
HETATM   35  C41   D T   1       4.966  -0.217  17.058  1.00 26.52     0.292 C 
HETATM   36  C44   D T   1       3.534  -0.243  16.437  1.00 29.21     0.063 C 
ENDBRANCH  28  31
ENDBRANCH   4  26
TORSDOF 5
ENDMDL
MODEL 2
REMARK VINA RESULT:    -9.303      1.516      2.437
REMARK INTER + INTRA:         -13.083
REMARK INTER:                 -11.817
REMARK INTRA:                  -1.266
REMARK UNBOUND:                -1.061
REMARK  5 active torsions:
REMARK  status: ('A' for Active; 'I' for Inactive)
REMARK    1  A    between atoms: C3_3  and  C48_30 
REMARK    2  A    between atoms: C7_6  and  C10_8 
REMARK    3  A    between atoms: C13_11  and  C24_18 
REMARK    4  A    between atoms: N27_20  and  C31_23 
REMARK    5  A    between atoms: C48_30  and  N51_31 
ROOT
HETATM    1  C10   D T   1      -1.448   4.373  10.404  1.00 15.48     0.019 A 
HETATM    2  C11   D T   1      -1.639   3.216  11.186  1.00 17.77     0.099 A 
HETATM    3  N12   D T   1      -0.589   2.576  11.790  1.00 14.42    -0.242 NA
HETATM    4  C13   D T   1      -0.803   1.467  12.543  1.00 16.70     0.103 A 
HETATM    5  C14   D T   1      -2.107   0.982  12.684  1.00 16.81     0.118 A 
HETATM    6  N16   D T   1      -3.146   1.594  12.083  1.00 18.92    -0.241 NA
HETATM    7  C17   D T   1      -2.943   2.706  11.343  1.00 19.63     0.099 A 
HETATM    8  C18   D T   1      -4.045   3.331  10.735  1.00 16.22     0.021 A 
HETATM    9  C20   D T   1      -3.848   4.475   9.953  1.00 16.47     0.002 A 
HETATM   10  C22   D T   1      -2.554   5.001   9.796  1.00 11.45     0.002 A 
ENDROOT
BRANCH   1  11
HETATM   11  C7    D T   1      -0.102   4.960  10.151  1.00 15.00     0.006 A 
HETATM   12  C5    D T   1       0.788   4.170   9.411  1.00 16.13     0.030 A 
HETATM   13  C4    D T   1       2.082   4.618   9.127  1.00 20.46     0.140 A 
HETATM   14  C3    D T   1       2.493   5.883   9.582  1.00 19.71     0.055 A 
HETATM   15  F47   D T   1       2.897   3.822   8.421  1.00 18.81    -0.204 F 
HETATM   16  C2    D T   1       1.599   6.668  10.338  1.00 20.82     0.140 A 
HETATM   17  F1    D T   1       1.940   7.876  10.788  1.00 22.79    -0.204 F 
HETATM   18  C8    D T   1       0.306   6.212  10.624  1.00 15.46     0.030 A 
BRANCH  14  19
HETATM   19  C48   D T   1       3.905   6.397   9.245  1.00 20.25     0.129 C 
BRANCH  19  20
HETATM   20  N51   D T   1       4.943   5.535   9.919  1.00 24.07    -0.361 N 
HETATM   21  C52   D T   1       5.372   6.032  11.265  1.00 22.40     0.130 C 
HETATM   22  C55   D T   1       6.433   5.124  11.941  1.00 27.40     0.166 C 
HETATM   23  O58   D T   1       7.511   4.850  11.025  1.00 26.30    -0.350 OA
HETATM   24  C59   D T   1       7.046   4.136   9.863  1.00 25.21     0.166 C 
HETATM   25  C62   D T   1       6.070   5.041   9.063  1.00 22.22     0.130 C 
ENDBRANCH  19  20
ENDBRANCH  14  19
ENDBRANCH   1  11
BRANCH   4  26
HETATM   26  C24   D T   1       0.380   0.798  13.221  1.00 15.92     0.059 A 
HETATM   27  C25   D T   1       1.534   1.326  13.715  1.00 18.01     0.098 A 
HETATM   28  N27   D T   1       2.233   0.329  14.199  1.00 18.37    -0.251 N 
HETATM   29  N28   D T   1       1.567  -0.835  14.015  1.00 18.72    -0.168 NA
HETATM   30  C29   D T   1       0.452  -0.646  13.439  1.00 18.29     0.123 A 
BRANCH  28  31
HETATM   31  C31   D T   1       3.549   0.302  14.824  1.00 23.01     0.110 C 
HETATM   32  C33   D T   1       4.255   1.679  14.633  1.00 23.05     0.063 C 
HETATM   33  C36   D T   1       5.659   1.704  15.289  1.00 27.20     0.292 C 
HETATM   34  N39   D T   1       5.521   1.273  16.696  1.00 30.30     0.339 N 
HETATM   35  C41   D T   1       5.025  -0.123  16.862  1.00 26.52     0.292 C 
HETATM   36  C44   D T   1       3.575  -0.214  16.289  1.00 29.21     0.063 C 
ENDBRANCH  28  31
ENDBRANCH   4  26
TORSDOF 5
ENDMDL
MODEL 3
REMARK VINA RESULT:    -8.978      2.842      6.959
REMARK INTER + INTRA:         -12.663
REMARK INTER:                 -11.332
REMARK INTRA:                  -1.331
REMARK UNBOUND:                -1.061
REMARK  5 active torsions:
REMARK  status: ('A' for Active; 'I' for Inactive)
REMARK    1  A    between atoms: C3_3  and  C48_30 
REMARK    2  A    between atoms: C7_6  and  C10_8 
REMARK    3  A    between atoms: C13_11  and  C24_18 
REMARK    4  A    between atoms: N27_20  and  C31_23 
REMARK    5  A    between atoms: C48_30  and  N51_31 
ROOT
HETATM    1  C10   D T   1       3.734   6.807   9.040  1.00 15.48     0.019 A 
HETATM    2  C11   D T   1       4.892   6.531   9.795  1.00 17.77     0.099 A 
HETATM    3  N12   D T   1       4.868   5.664  10.855  1.00 14.42    -0.242 NA
HETATM    4  C13   D T   1       6.000   5.412  11.561  1.00 16.70     0.103 A 
HETATM    5  C14   D T   1       7.186   6.058  11.198  1.00 16.81     0.118 A 
HETATM    6  N16   D T   1       7.220   6.924  10.166  1.00 18.92    -0.241 NA
HETATM    7  C17   D T   1       6.100   7.170   9.450  1.00 19.63     0.099 A 
HETATM    8  C18   D T   1       6.164   8.069   8.372  1.00 16.22     0.021 A 
HETATM    9  C20   D T   1       5.009   8.345   7.632  1.00 16.47     0.002 A 
HETATM   10  C22   D T   1       3.799   7.708   7.958  1.00 11.45     0.002 A 
ENDROOT
BRANCH   1  11
HETATM   11  C7    D T   1       2.406   6.210   9.356  1.00 15.00     0.006 A 
HETATM   12  C5    D T   1       2.037   5.090   8.599  1.00 16.13     0.030 A 
HETATM   13  C4    D T   1       0.806   4.459   8.803  1.00 20.46     0.140 A 
HETATM   14  C3    D T   1      -0.069   4.947   9.788  1.00 19.71     0.055 A 
HETATM   15  F47   D T   1       0.497   3.395   8.048  1.00 18.81    -0.204 F 
HETATM   16  C2    D T   1       0.301   6.082  10.537  1.00 20.82     0.140 A 
HETATM   17  F1    D T   1      -0.492   6.582  11.486  1.00 22.79    -0.204 F 
HETATM   18  C8    D T   1       1.533   6.714  10.325  1.00 15.46     0.030 A 
BRANCH  14  19
HETATM   19  C48   D T   1      -1.412   4.238  10.041  1.00 20.25     0.129 C 
BRANCH  19  20
HETATM   20  N51   D T   1      -1.305   3.348  11.256  1.00 24.07    -0.361 N 
HETATM   21  C52   D T   1      -0.163   2.381  11.208  1.00 22.40     0.130 C 
HETATM   22  C55   D T   1      -0.069   1.485  12.472  1.00 27.40     0.166 C 
HETATM   23  O58   D T   1      -1.352   0.894  12.759  1.00 26.30    -0.350 OA
HETATM   24  C59   D T   1      -2.342   1.899  13.047  1.00 25.21     0.166 C 
HETATM   25  C62   D T   1      -2.581   2.760  11.776  1.00 22.22     0.130 C 
ENDBRANCH  19  20
ENDBRANCH  14  19
ENDBRANCH   1  11
BRANCH   4  26
HETATM   26  C24   D T   1       5.944   4.425  12.714  1.00 15.92     0.059 A 
HETATM   27  C25   D T   1       5.367   3.195  12.801  1.00 18.01     0.098 A 
HETATM   28  N27   D T   1       5.600   2.749  14.010  1.00 18.37    -0.251 N 
HETATM   29  N28   D T   1       6.299   3.668  14.715  1.00 18.72    -0.168 NA
HETATM   30  C29   D T   1       6.548   4.699  14.018  1.00 18.29     0.123 A 
BRANCH  28  31
HETATM   31  C31   D T   1       5.201   1.507  14.662  1.00 23.01     0.110 C 
HETATM   32  C33   D T   1       6.018   1.312  15.975  1.00 23.05     0.063 C 
HETATM   33  C36   D T   1       5.624   0.006  16.711  1.00 27.20     0.292 C 
HETATM   34  N39   D T   1       4.157  -0.000  16.892  1.00 30.30     0.339 N 
HETATM   35  C41   D T   1       3.385  -0.009  15.617  1.00 26.52     0.292 C 
HETATM   36  C44   D T   1       3.670   1.319  14.846  1.00 29.21     0.063 C 
ENDBRANCH  28  31
ENDBRANCH   4  26
TORSDOF 5
ENDMDL
MODEL 4
REMARK VINA RESULT:    -8.869      3.462      7.739
REMARK INTER + INTRA:         -12.522
REMARK INTER:                 -11.201
REMARK INTRA:                  -1.320
REMARK UNBOUND:                -1.061
REMARK  5 active torsions:
REMARK  status: ('A' for Active; 'I' for Inactive)
REMARK    1  A    between atoms: C3_3  and  C48_30 
REMARK    2  A    between atoms: C7_6  and  C10_8 
REMARK    3  A    between atoms: C13_11  and  C24_18 
REMARK    4  A    between atoms: N27_20  and  C31_23 
REMARK    5  A    between atoms: C48_30  and  N51_31 
ROOT
HETATM    1  C10   D T   1       4.967   4.610   9.857  1.00 15.48     0.019 A 
HETATM    2  C11   D T   1       3.582   4.544   9.602  1.00 17.77     0.099 A 
HETATM    3  N12   D T   1       2.739   3.819  10.402  1.00 14.42    -0.242 NA
HETATM    4  C13   D T   1       1.409   3.777  10.137  1.00 16.70     0.103 A 
HETATM    5  C14   D T   1       0.913   4.476   9.031  1.00 16.81     0.118 A 
HETATM    6  N16   D T   1       1.734   5.181   8.228  1.00 18.92    -0.241 NA
HETATM    7  C17   D T   1       3.058   5.238   8.493  1.00 19.63     0.099 A 
HETATM    8  C18   D T   1       3.891   5.989   7.647  1.00 16.22     0.021 A 
HETATM    9  C20   D T   1       5.266   6.044   7.900  1.00 16.47     0.002 A 
HETATM   10  C22   D T   1       5.802   5.364   9.008  1.00 11.45     0.002 A 
ENDROOT
BRANCH   1  11
HETATM   11  C7    D T   1       5.614   3.878  10.981  1.00 15.00     0.006 A 
HETATM   12  C5    D T   1       5.698   4.565  12.200  1.00 16.13     0.030 A 
HETATM   13  C4    D T   1       6.298   3.977  13.317  1.00 20.46     0.140 A 
HETATM   14  C3    D T   1       6.817   2.674  13.221  1.00 19.71     0.055 A 
HETATM   15  F47   D T   1       6.359   4.679  14.457  1.00 18.81    -0.204 F 
HETATM   16  C2    D T   1       6.743   1.993  11.990  1.00 20.82     0.140 A 
HETATM   17  F1    D T   1       7.216   0.753  11.848  1.00 22.79    -0.204 F 
HETATM   18  C8    D T   1       6.145   2.588  10.872  1.00 15.46     0.030 A 
BRANCH  14  19
HETATM   19  C48   D T   1       7.449   2.008  14.456  1.00 20.25     0.129 C 
BRANCH  19  20
HETATM   20  N51   D T   1       6.373   1.602  15.432  1.00 24.07    -0.361 N 
HETATM   21  C52   D T   1       6.861   1.397  16.833  1.00 22.40     0.130 C 
HETATM   22  C55   D T   1       5.734   0.989  17.819  1.00 27.40     0.166 C 
HETATM   23  O58   D T   1       4.971  -0.107  17.277  1.00 26.30    -0.350 OA
HETATM   24  C59   D T   1       4.320   0.263  16.046  1.00 25.21     0.166 C 
HETATM   25  C62   D T   1       5.397   0.563  14.968  1.00 22.22     0.130 C 
ENDBRANCH  19  20
ENDBRANCH  14  19
ENDBRANCH   1  11
BRANCH   4  26
HETATM   26  C24   D T   1       0.498   2.985  11.060  1.00 15.92     0.059 A 
HETATM   27  C25   D T   1      -0.830   3.122  11.326  1.00 18.01     0.098 A 
HETATM   28  N27   D T   1      -1.142   2.193  12.195  1.00 18.37    -0.251 N 
HETATM   29  N28   D T   1      -0.044   1.467  12.510  1.00 18.72    -0.168 NA
HETATM   30  C29   D T   1       0.979   1.872  11.877  1.00 18.29     0.123 A 
BRANCH  28  31
HETATM   31  C31   D T   1      -2.408   1.885  12.848  1.00 23.01     0.110 C 
HETATM   32  C33   D T   1      -3.594   2.249  11.904  1.00 23.05     0.063 C 
HETATM   33  C36   D T   1      -4.966   1.932  12.552  1.00 27.20     0.292 C 
HETATM   34  N39   D T   1      -4.951   0.526  13.007  1.00 30.30     0.339 N 
HETATM   35  C41   D T   1      -3.934   0.234  14.056  1.00 26.52     0.292 C 
HETATM   36  C44   D T   1      -2.510   0.458  13.455  1.00 29.21     0.063 C 
ENDBRANCH  28  31
ENDBRANCH   4  26
TORSDOF 5
ENDMDL
MODEL 5
REMARK VINA RESULT:    -8.637      3.458      8.254
REMARK INTER + INTRA:         -12.222
REMARK INTER:                 -10.829
REMARK INTRA:                  -1.393
REMARK UNBOUND:                -1.061
REMARK  5 active torsions:
REMARK  status: ('A' for Active; 'I' for Inactive)
REMARK    1  A    between atoms: C3_3  and  C48_30 
REMARK    2  A    between atoms: C7_6  and  C10_8 
REMARK    3  A    between atoms: C13_11  and  C24_18 
REMARK    4  A    between atoms: N27_20  and  C31_23 
REMARK    5  A    between atoms: C48_30  and  N51_31 
ROOT
HETATM    1  C10   D T   1       6.120   4.426  10.179  1.00 15.48     0.019 A 
HETATM    2  C11   D T   1       4.849   4.676   9.624  1.00 17.77     0.099 A 
HETATM    3  N12   D T   1       3.703   4.228  10.224  1.00 14.42    -0.242 NA
HETATM    4  C13   D T   1       2.491   4.487   9.670  1.00 16.70     0.103 A 
HETATM    5  C14   D T   1       2.431   5.209   8.474  1.00 16.81     0.118 A 
HETATM    6  N16   D T   1       3.552   5.643   7.865  1.00 18.92    -0.241 NA
HETATM    7  C17   D T   1       4.762   5.400   8.417  1.00 19.63     0.099 A 
HETATM    8  C18   D T   1       5.915   5.872   7.768  1.00 16.22     0.021 A 
HETATM    9  C20   D T   1       7.174   5.614   8.321  1.00 16.47     0.002 A 
HETATM   10  C22   D T   1       7.277   4.902   9.529  1.00 11.45     0.002 A 
ENDROOT
BRANCH   1  11
HETATM   11  C7    D T   1       6.312   3.637  11.428  1.00 15.00     0.006 A 
HETATM   12  C5    D T   1       6.651   2.288  11.261  1.00 16.13     0.030 A 
HETATM   13  C4    D T   1       6.841   1.453  12.367  1.00 20.46     0.140 A 
HETATM   14  C3    D T   1       6.700   1.976  13.664  1.00 19.71     0.055 A 
HETATM   15  F47   D T   1       7.157   0.168  12.153  1.00 18.81    -0.204 F 
HETATM   16  C2    D T   1       6.346   3.330  13.826  1.00 20.82     0.140 A 
HETATM   17  F1    D T   1       6.204   3.875  15.035  1.00 22.79    -0.204 F 
HETATM   18  C8    D T   1       6.151   4.161  12.716  1.00 15.46     0.030 A 
BRANCH  14  19
HETATM   19  C48   D T   1       6.941   1.070  14.885  1.00 20.25     0.129 C 
BRANCH  19  20
HETATM   20  N51   D T   1       5.643   0.837  15.619  1.00 24.07    -0.361 N 
HETATM   21  C52   D T   1       5.800   0.148  16.939  1.00 22.40     0.130 C 
HETATM   22  C55   D T   1       4.453  -0.072  17.677  1.00 27.40     0.166 C 
HETATM   23  O58   D T   1       3.492  -0.677  16.789  1.00 26.30    -0.350 OA
HETATM   24  C59   D T   1       3.205   0.176  15.665  1.00 25.21     0.166 C 
HETATM   25  C62   D T   1       4.488   0.338  14.805  1.00 22.22     0.130 C 
ENDBRANCH  19  20
ENDBRANCH  14  19
ENDBRANCH   1  11
BRANCH   4  26
HETATM   26  C24   D T   1       1.239   3.999  10.377  1.00 15.92     0.059 A 
HETATM   27  C25   D T   1       0.822   2.737  10.672  1.00 18.01     0.098 A 
HETATM   28  N27   D T   1      -0.328   2.849  11.288  1.00 18.37    -0.251 N 
HETATM   29  N28   D T   1      -0.675   4.154  11.385  1.00 18.72    -0.168 NA
HETATM   30  C29   D T   1       0.204   4.909  10.868  1.00 18.29     0.123 A 
BRANCH  28  31
HETATM   31  C31   D T   1      -1.235   1.833  11.808  1.00 23.01     0.110 C 
HETATM   32  C33   D T   1      -0.435   0.782  12.636  1.00 23.05     0.063 C 
HETATM   33  C36   D T   1      -1.358  -0.318  13.218  1.00 27.20     0.292 C 
HETATM   34  N39   D T   1      -2.456   0.340  13.956  1.00 30.30     0.339 N 
HETATM   35  C41   D T   1      -3.335   1.196  13.110  1.00 26.52     0.292 C 
HETATM   36  C44   D T   1      -2.491   2.380  12.542  1.00 29.21     0.063 C 
ENDBRANCH  28  31
ENDBRANCH   4  26
TORSDOF 5
ENDMDL
MODEL 6
REMARK VINA RESULT:    -8.120      3.188      7.578
REMARK INTER + INTRA:         -11.554
REMARK INTER:                 -10.905
REMARK INTRA:                  -0.649
REMARK UNBOUND:                -1.061
REMARK  5 active torsions:
REMARK  status: ('A' for Active; 'I' for Inactive)
REMARK    1  A    between atoms: C3_3  and  C48_30 
REMARK    2  A    between atoms: C7_6  and  C10_8 
REMARK    3  A    between atoms: C13_11  and  C24_18 
REMARK    4  A    between atoms: N27_20  and  C31_23 
REMARK    5  A    between atoms: C48_30  and  N51_31 
ROOT
HETATM    1  C10   D T   1       4.741   7.356   7.297  1.00 15.48     0.019 A 
HETATM    2  C11   D T   1       5.919   6.582   7.291  1.00 17.77     0.099 A 
HETATM    3  N12   D T   1       6.124   5.580   8.202  1.00 14.42    -0.242 NA
HETATM    4  C13   D T   1       7.266   4.847   8.170  1.00 16.70     0.103 A 
HETATM    5  C14   D T   1       8.233   5.136   7.202  1.00 16.81     0.118 A 
HETATM    6  N16   D T   1       8.050   6.129   6.310  1.00 18.92    -0.241 NA
HETATM    7  C17   D T   1       6.910   6.855   6.327  1.00 19.63     0.099 A 
HETATM    8  C18   D T   1       6.739   7.877   5.378  1.00 16.22     0.021 A 
HETATM    9  C20   D T   1       5.570   8.647   5.394  1.00 16.47     0.002 A 
HETATM   10  C22   D T   1       4.569   8.381   6.344  1.00 11.45     0.002 A 
ENDROOT
BRANCH   1  11
HETATM   11  C7    D T   1       3.658   7.166   8.302  1.00 15.00     0.006 A 
HETATM   12  C5    D T   1       3.361   5.840   8.647  1.00 16.13     0.030 A 
HETATM   13  C4    D T   1       2.353   5.547   9.571  1.00 20.46     0.140 A 
HETATM   14  C3    D T   1       1.634   6.596  10.170  1.00 19.71     0.055 A 
HETATM   15  F47   D T   1       2.103   4.263   9.862  1.00 18.81    -0.204 F 
HETATM   16  C2    D T   1       1.928   7.927   9.809  1.00 20.82     0.140 A 
HETATM   17  F1    D T   1       1.277   8.957  10.352  1.00 22.79    -0.204 F 
HETATM   18  C8    D T   1       2.935   8.215   8.879  1.00 15.46     0.030 A 
BRANCH  14  19
HETATM   19  C48   D T   1       0.546   6.283  11.213  1.00 20.25     0.129 C 
BRANCH  19  20
HETATM   20  N51   D T   1      -0.539   5.439  10.589  1.00 24.07    -0.361 N 
HETATM   21  C52   D T   1      -1.733   6.218  10.131  1.00 22.40     0.130 C 
HETATM   22  C55   D T   1      -2.830   5.330   9.486  1.00 27.40     0.166 C 
HETATM   23  O58   D T   1      -3.129   4.208  10.341  1.00 26.30    -0.350 OA
HETATM   24  C59   D T   1      -1.977   3.363  10.523  1.00 25.21     0.166 C 
HETATM   25  C62   D T   1      -0.877   4.154  11.282  1.00 22.22     0.130 C 
ENDBRANCH  19  20
ENDBRANCH  14  19
ENDBRANCH   1  11
BRANCH   4  26
HETATM   26  C24   D T   1       7.450   3.726   9.178  1.00 15.92     0.059 A 
HETATM   27  C25   D T   1       6.619   3.265  10.153  1.00 18.01     0.098 A 
HETATM   28  N27   D T   1       7.242   2.281  10.752  1.00 18.37    -0.251 N 
HETATM   29  N28   D T   1       8.465   2.105  10.200  1.00 18.72    -0.168 NA
HETATM   30  C29   D T   1       8.671   2.924   9.253  1.00 18.29     0.123 A 
BRANCH  28  31
HETATM   31  C31   D T   1       6.843   1.442  11.876  1.00 23.01     0.110 C 
HETATM   32  C33   D T   1       8.070   0.637  12.399  1.00 23.05     0.063 C 
HETATM   33  C36   D T   1       7.698  -0.267  13.601  1.00 27.20     0.292 C 
HETATM   34  N39   D T   1       7.030   0.569  14.621  1.00 30.30     0.339 N 
HETATM   35  C41   D T   1       5.750   1.181  14.167  1.00 26.52     0.292 C 
HETATM   36  C44   D T   1       6.051   2.170  12.996  1.00 29.21     0.063 C 
ENDBRANCH  28  31
ENDBRANCH   4  26
TORSDOF 5
ENDMDL
MODEL 7
REMARK VINA RESULT:    -8.073      3.344      8.675
REMARK INTER + INTRA:         -11.493
REMARK INTER:                 -10.126
REMARK INTRA:                  -1.367
REMARK UNBOUND:                -1.061
REMARK  5 active torsions:
REMARK  status: ('A' for Active; 'I' for Inactive)
REMARK    1  A    between atoms: C3_3  and  C48_30 
REMARK    2  A    between atoms: C7_6  and  C10_8 
REMARK    3  A    between atoms: C13_11  and  C24_18 
REMARK    4  A    between atoms: N27_20  and  C31_23 
REMARK    5  A    between atoms: C48_30  and  N51_31 
ROOT
HETATM    1  C10   D T   1       7.160   5.686   8.570  1.00 15.48     0.019 A 
HETATM    2  C11   D T   1       5.883   6.177   8.232  1.00 17.77     0.099 A 
HETATM    3  N12   D T   1       4.790   5.940   9.022  1.00 14.42    -0.242 NA
HETATM    4  C13   D T   1       3.573   6.430   8.676  1.00 16.70     0.103 A 
HETATM    5  C14   D T   1       3.449   7.171   7.496  1.00 16.81     0.118 A 
HETATM    6  N16   D T   1       4.514   7.399   6.702  1.00 18.92    -0.241 NA
HETATM    7  C17   D T   1       5.731   6.926   7.048  1.00 19.63     0.099 A 
HETATM    8  C18   D T   1       6.828   7.187   6.208  1.00 16.22     0.021 A 
HETATM    9  C20   D T   1       8.091   6.690   6.546  1.00 16.47     0.002 A 
HETATM   10  C22   D T   1       8.260   5.949   7.729  1.00 11.45     0.002 A 
ENDROOT
BRANCH   1  11
HETATM   11  C7    D T   1       7.407   4.853   9.781  1.00 15.00     0.006 A 
HETATM   12  C5    D T   1       7.376   3.465   9.593  1.00 16.13     0.030 A 
HETATM   13  C4    D T   1       7.583   2.590  10.664  1.00 20.46     0.140 A 
HETATM   14  C3    D T   1       7.834   3.109  11.946  1.00 19.71     0.055 A 
HETATM   15  F47   D T   1       7.536   1.270  10.433  1.00 18.81    -0.204 F 
HETATM   16  C2    D T   1       7.849   4.506  12.132  1.00 20.82     0.140 A 
HETATM   17  F1    D T   1       8.087   5.048  13.327  1.00 22.79    -0.204 F 
HETATM   18  C8    D T   1       7.637   5.378  11.057  1.00 15.46     0.030 A 
BRANCH  14  19
HETATM   19  C48   D T   1       8.094   2.152  13.123  1.00 20.25     0.129 C 
BRANCH  19  20
HETATM   20  N51   D T   1       6.973   2.253  14.128  1.00 24.07    -0.361 N 
HETATM   21  C52   D T   1       7.369   1.887  15.526  1.00 22.40     0.130 C 
HETATM   22  C55   D T   1       6.201   2.007  16.541  1.00 27.40     0.166 C 
HETATM   23  O58   D T   1       5.035   1.322  16.043  1.00 26.30    -0.350 OA
HETATM   24  C59   D T   1       4.566   1.908  14.813  1.00 25.21     0.166 C 
HETATM   25  C62   D T   1       5.641   1.710  13.710  1.00 22.22     0.130 C 
ENDBRANCH  19  20
ENDBRANCH  14  19
ENDBRANCH   1  11
BRANCH   4  26
HETATM   26  C24   D T   1       2.387   6.170   9.589  1.00 15.92     0.059 A 
HETATM   27  C25   D T   1       1.585   5.077   9.711  1.00 18.01     0.098 A 
HETATM   28  N27   D T   1       0.703   5.353  10.640  1.00 18.37    -0.251 N 
HETATM   29  N28   D T   1       0.905   6.606  11.111  1.00 18.72    -0.168 NA
HETATM   30  C29   D T   1       1.890   7.165  10.539  1.00 18.29     0.123 A 
BRANCH  28  31
HETATM   31  C31   D T   1      -0.406   4.567  11.166  1.00 23.01     0.110 C 
HETATM   32  C33   D T   1      -1.695   4.850  10.338  1.00 23.05     0.063 C 
HETATM   33  C36   D T   1      -2.905   4.030  10.855  1.00 27.20     0.292 C 
HETATM   34  N39   D T   1      -2.510   2.607  10.912  1.00 30.30     0.339 N 
HETATM   35  C41   D T   1      -1.396   2.319  11.859  1.00 26.52     0.292 C 
HETATM   36  C44   D T   1      -0.110   3.055  11.363  1.00 29.21     0.063 C 
ENDBRANCH  28  31
ENDBRANCH   4  26
TORSDOF 5
ENDMDL
MODEL 8
REMARK VINA RESULT:    -7.755      1.623      2.224
REMARK INTER + INTRA:         -11.082
REMARK INTER:                 -10.709
REMARK INTRA:                  -0.373
REMARK UNBOUND:                -1.061
REMARK  5 active torsions:
REMARK  status: ('A' for Active; 'I' for Inactive)
REMARK    1  A    between atoms: C3_3  and  C48_30 
REMARK    2  A    between atoms: C7_6  and  C10_8 
REMARK    3  A    between atoms: C13_11  and  C24_18 
REMARK    4  A    between atoms: N27_20  and  C31_23 
REMARK    5  A    between atoms: C48_30  and  N51_31 
ROOT
HETATM    1  C10   D T   1      -0.392   4.094  10.022  1.00 15.48     0.019 A 
HETATM    2  C11   D T   1      -0.779   3.148  10.993  1.00 17.77     0.099 A 
HETATM    3  N12   D T   1       0.143   2.392  11.666  1.00 14.42    -0.242 NA
HETATM    4  C13   D T   1      -0.258   1.492  12.600  1.00 16.70     0.103 A 
HETATM    5  C14   D T   1      -1.624   1.342  12.858  1.00 16.81     0.118 A 
HETATM    6  N16   D T   1      -2.543   2.069  12.192  1.00 18.92    -0.241 NA
HETATM    7  C17   D T   1      -2.151   2.976  11.269  1.00 19.63     0.099 A 
HETATM    8  C18   D T   1      -3.127   3.730  10.596  1.00 16.22     0.021 A 
HETATM    9  C20   D T   1      -2.736   4.661   9.628  1.00 16.47     0.002 A 
HETATM   10  C22   D T   1      -1.372   4.851   9.348  1.00 11.45     0.002 A 
ENDROOT
BRANCH   1  11
HETATM   11  C7    D T   1       1.030   4.315   9.637  1.00 15.00     0.006 A 
HETATM   12  C5    D T   1       1.984   3.560  10.332  1.00 16.13     0.030 A 
HETATM   13  C4    D T   1       3.348   3.698  10.059  1.00 20.46     0.140 A 
HETATM   14  C3    D T   1       3.769   4.601   9.068  1.00 19.71     0.055 A 
HETATM   15  F47   D T   1       4.221   2.958  10.757  1.00 18.81    -0.204 F 
HETATM   16  C2    D T   1       2.807   5.369   8.382  1.00 20.82     0.140 A 
HETATM   17  F1    D T   1       3.155   6.236   7.429  1.00 22.79    -0.204 F 
HETATM   18  C8    D T   1       1.442   5.230   8.662  1.00 15.46     0.030 A 
BRANCH  14  19
HETATM   19  C48   D T   1       5.267   4.735   8.739  1.00 20.25     0.129 C 
BRANCH  19  20
HETATM   20  N51   D T   1       5.831   5.974   9.392  1.00 24.07    -0.361 N 
HETATM   21  C52   D T   1       6.247   7.040   8.426  1.00 22.40     0.130 C 
HETATM   22  C55   D T   1       6.814   8.306   9.122  1.00 27.40     0.166 C 
HETATM   23  O58   D T   1       7.819   7.936  10.087  1.00 26.30    -0.350 OA
HETATM   24  C59   D T   1       7.268   7.111  11.131  1.00 25.21     0.166 C 
HETATM   25  C62   D T   1       6.793   5.764  10.521  1.00 22.22     0.130 C 
ENDBRANCH  19  20
ENDBRANCH  14  19
ENDBRANCH   1  11
BRANCH   4  26
HETATM   26  C24   D T   1       0.793   0.690  13.348  1.00 15.92     0.059 A 
HETATM   27  C25   D T   1       1.928   1.090  13.984  1.00 18.01     0.098 A 
HETATM   28  N27   D T   1       2.492   0.013  14.472  1.00 18.37    -0.251 N 
HETATM   29  N28   D T   1       1.758  -1.079  14.152  1.00 18.72    -0.168 NA
HETATM   30  C29   D T   1       0.726  -0.765  13.482  1.00 18.29     0.123 A 
BRANCH  28  31
HETATM   31  C31   D T   1       3.731  -0.160  15.220  1.00 23.01     0.110 C 
HETATM   32  C33   D T   1       4.790   0.878  14.739  1.00 23.05     0.063 C 
HETATM   33  C36   D T   1       6.126   0.740  15.511  1.00 27.20     0.292 C 
HETATM   34  N39   D T   1       5.832   0.787  16.959  1.00 30.30     0.339 N 
HETATM   35  C41   D T   1       4.970  -0.327  17.444  1.00 26.52     0.292 C 
HETATM   36  C44   D T   1       3.569  -0.215  16.764  1.00 29.21     0.063 C 
ENDBRANCH  28  31
ENDBRANCH   4  26
TORSDOF 5
ENDMDL
MODEL 9
REMARK VINA RESULT:    -7.566      3.804      8.593
REMARK INTER + INTRA:         -10.838
REMARK INTER:                  -9.470
REMARK INTRA:                  -1.368
REMARK UNBOUND:                -1.061
REMARK  5 active torsions:
REMARK  status: ('A' for Active; 'I' for Inactive)
REMARK    1  A    between atoms: C3_3  and  C48_30 
REMARK    2  A    between atoms: C7_6  and  C10_8 
REMARK    3  A    between atoms: C13_11  and  C24_18 
REMARK    4  A    between atoms: N27_20  and  C31_23 
REMARK    5  A    between atoms: C48_30  and  N51_31 
ROOT
HETATM    1  C10   D T   1       7.201   6.441   7.621  1.00 15.48     0.019 A 
HETATM    2  C11   D T   1       5.801   6.522   7.474  1.00 17.77     0.099 A 
HETATM    3  N12   D T   1       4.958   5.699   8.172  1.00 14.42    -0.242 NA
HETATM    4  C13   D T   1       3.613   5.802   8.015  1.00 16.70     0.103 A 
HETATM    5  C14   D T   1       3.104   6.752   7.124  1.00 16.81     0.118 A 
HETATM    6  N16   D T   1       3.923   7.557   6.420  1.00 18.92    -0.241 NA
HETATM    7  C17   D T   1       5.263   7.469   6.581  1.00 19.63     0.099 A 
HETATM    8  C18   D T   1       6.095   8.328   5.843  1.00 16.22     0.021 A 
HETATM    9  C20   D T   1       7.484   8.237   5.988  1.00 16.47     0.002 A 
HETATM   10  C22   D T   1       8.036   7.303   6.882  1.00 11.45     0.002 A 
ENDROOT
BRANCH   1  11
HETATM   11  C7    D T   1       7.860   5.445   8.511  1.00 15.00     0.006 A 
HETATM   12  C5    D T   1       8.289   4.258   7.901  1.00 16.13     0.030 A 
HETATM   13  C4    D T   1       8.909   3.250   8.645  1.00 20.46     0.140 A 
HETATM   14  C3    D T   1       9.113   3.432  10.024  1.00 19.71     0.055 A 
HETATM   15  F47   D T   1       9.294   2.132   8.016  1.00 18.81    -0.204 F 
HETATM   16  C2    D T   1       8.667   4.620  10.636  1.00 20.82     0.140 A 
HETATM   17  F1    D T   1       8.841   4.843  11.940  1.00 22.79    -0.204 F 
HETATM   18  C8    D T   1       8.042   5.625   9.887  1.00 15.46     0.030 A 
BRANCH  14  19
HETATM   19  C48   D T   1       9.824   2.340  10.844  1.00 20.25     0.129 C 
BRANCH  19  20
HETATM   20  N51   D T   1       8.870   1.208  11.133  1.00 24.07    -0.361 N 
HETATM   21  C52   D T   1       8.169   1.318  12.453  1.00 22.40     0.130 C 
HETATM   22  C55   D T   1       7.187   0.147  12.722  1.00 27.40     0.166 C 
HETATM   23  O58   D T   1       7.842  -1.116  12.487  1.00 26.30    -0.350 OA
HETATM   24  C59   D T   1       8.261  -1.245  11.115  1.00 25.21     0.166 C 
HETATM   25  C62   D T   1       9.345  -0.176  10.809  1.00 22.22     0.130 C 
ENDBRANCH  19  20
ENDBRANCH  14  19
ENDBRANCH   1  11
BRANCH   4  26
HETATM   26  C24   D T   1       2.705   4.893   8.825  1.00 15.92     0.059 A 
HETATM   27  C25   D T   1       1.347   4.815   8.878  1.00 18.01     0.098 A 
HETATM   28  N27   D T   1       1.052   3.867   9.732  1.00 18.37    -0.251 N 
HETATM   29  N28   D T   1       2.187   3.340  10.248  1.00 18.72    -0.168 NA
HETATM   30  C29   D T   1       3.220   3.894   9.760  1.00 18.29     0.123 A 
BRANCH  28  31
HETATM   31  C31   D T   1      -0.236   3.370  10.198  1.00 23.01     0.110 C 
HETATM   32  C33   D T   1      -0.035   2.474  11.457  1.00 23.05     0.063 C 
HETATM   33  C36   D T   1      -1.381   1.926  11.996  1.00 27.20     0.292 C 
HETATM   34  N39   D T   1      -2.301   3.065  12.193  1.00 30.30     0.339 N 
HETATM   35  C41   D T   1      -2.639   3.800  10.941  1.00 26.52     0.292 C 
HETATM   36  C44   D T   1      -1.339   4.451  10.371  1.00 29.21     0.063 C 
ENDBRANCH  28  31
ENDBRANCH   4  26
TORSDOF 5
ENDMDL
