MODEL 1
REMARK VINA RESULT:    -9.739      0.000      0.000
REMARK INTER + INTRA:         -13.740
REMARK INTER:                 -12.586
REMARK INTRA:                  -1.154
REMARK UNBOUND:                -1.154
REMARK  5 active torsions:
REMARK  status: ('A' for Active; 'I' for Inactive)
REMARK    1  A    between atoms: C3_3  and  C48_30 
REMARK    2  A    between atoms: C7_6  and  C10_8 
REMARK    3  A    between atoms: C13_11  and  C24_18 
REMARK    4  A    between atoms: N27_20  and  C31_23 
REMARK    5  A    between atoms: C48_30  and  N51_31 
ROOT
HETATM    1  C10   D T   1     -12.477   5.438  -2.907  1.00 15.48     0.019 A 
HETATM    2  C11   D T   1     -11.555   4.958  -3.859  1.00 17.77     0.099 A 
HETATM    3  N12   D T   1     -11.865   3.924  -4.700  1.00 14.42    -0.242 NA
HETATM    4  C13   D T   1     -10.959   3.484  -5.612  1.00 16.70     0.103 A 
HETATM    5  C14   D T   1      -9.704   4.098  -5.672  1.00 16.81     0.118 A 
HETATM    6  N16   D T   1      -9.380   5.107  -4.839  1.00 18.92    -0.241 NA
HETATM    7  C17   D T   1     -10.282   5.558  -3.937  1.00 19.63     0.099 A 
HETATM    8  C18   D T   1      -9.924   6.619  -3.088  1.00 16.22     0.021 A 
HETATM    9  C20   D T   1     -10.842   7.085  -2.140  1.00 16.47     0.002 A 
HETATM   10  C22   D T   1     -12.119   6.503  -2.056  1.00 11.45     0.002 A 
ENDROOT
BRANCH   1  11
HETATM   11  C7    D T   1     -13.830   4.841  -2.725  1.00 15.00     0.006 A 
HETATM   12  C5    D T   1     -14.037   4.128  -1.536  1.00 16.13     0.030 A 
HETATM   13  C4    D T   1     -15.265   3.516  -1.269  1.00 20.46     0.140 A 
HETATM   14  C3    D T   1     -16.311   3.623  -2.202  1.00 19.71     0.055 A 
HETATM   15  F47   D T   1     -15.409   2.841  -0.120  1.00 18.81    -0.204 F 
HETATM   16  C2    D T   1     -16.094   4.328  -3.402  1.00 20.82     0.140 A 
HETATM   17  F1    D T   1     -17.055   4.462  -4.318  1.00 22.79    -0.204 F 
HETATM   18  C8    D T   1     -14.860   4.936  -3.668  1.00 15.46     0.030 A 
BRANCH  14  19
HETATM   19  C48   D T   1     -17.677   2.979  -1.900  1.00 20.25     0.129 C 
BRANCH  19  20
HETATM   20  N51   D T   1     -18.307   3.643  -0.700  1.00 24.07    -0.361 N 
HETATM   21  C52   D T   1     -19.195   2.742   0.101  1.00 22.40     0.130 C 
HETATM   22  C55   D T   1     -19.824   3.443   1.335  1.00 27.40     0.166 C 
HETATM   23  O58   D T   1     -20.423   4.695   0.943  1.00 26.30    -0.350 OA
HETATM   24  C59   D T   1     -19.442   5.606   0.412  1.00 25.21     0.166 C 
HETATM   25  C62   D T   1     -18.859   5.021  -0.903  1.00 22.22     0.130 C 
ENDBRANCH  19  20
ENDBRANCH  14  19
ENDBRANCH   1  11
BRANCH   4  26
HETATM   26  C24   D T   1     -11.345   2.354  -6.548  1.00 15.92     0.059 A 
HETATM   27  C25   D T   1     -12.437   1.539  -6.551  1.00 18.01     0.098 A 
HETATM   28  N27   D T   1     -12.301   0.723  -7.567  1.00 18.37    -0.251 N 
HETATM   29  N28   D T   1     -11.138   0.977  -8.211  1.00 18.72    -0.168 NA
HETATM   30  C29   D T   1     -10.506   1.935  -7.670  1.00 18.29     0.123 A 
BRANCH  28  31
HETATM   31  C31   D T   1     -13.151  -0.366  -8.035  1.00 23.01     0.110 C 
HETATM   32  C33   D T   1     -12.620  -0.902  -9.400  1.00 23.05     0.063 C 
HETATM   33  C36   D T   1     -13.487  -2.068  -9.938  1.00 27.20     0.292 C 
HETATM   34  N39   D T   1     -13.601  -3.090  -8.876  1.00 30.30     0.339 N 
HETATM   35  C41   D T   1     -14.287  -2.617  -7.642  1.00 26.52     0.292 C 
HETATM   36  C44   D T   1     -13.431  -1.482  -6.993  1.00 29.21     0.063 C 
ENDBRANCH  28  31
ENDBRANCH   4  26
TORSDOF 5
ENDMDL
MODEL 2
REMARK VINA RESULT:    -9.522      1.336      1.924
REMARK INTER + INTRA:         -13.458
REMARK INTER:                 -12.274
REMARK INTRA:                  -1.184
REMARK UNBOUND:                -1.154
REMARK  5 active torsions:
REMARK  status: ('A' for Active; 'I' for Inactive)
REMARK    1  A    between atoms: C3_3  and  C48_30 
REMARK    2  A    between atoms: C7_6  and  C10_8 
REMARK    3  A    between atoms: C13_11  and  C24_18 
REMARK    4  A    between atoms: N27_20  and  C31_23 
REMARK    5  A    between atoms: C48_30  and  N51_31 
ROOT
HETATM    1  C10   D T   1     -12.387   4.626  -3.819  1.00 15.48     0.019 A 
HETATM    2  C11   D T   1     -11.667   3.957  -4.828  1.00 17.77     0.099 A 
HETATM    3  N12   D T   1     -12.236   2.960  -5.575  1.00 14.42    -0.242 NA
HETATM    4  C13   D T   1     -11.519   2.335  -6.545  1.00 16.70     0.103 A 
HETATM    5  C14   D T   1     -10.193   2.719  -6.764  1.00 16.81     0.118 A 
HETATM    6  N16   D T   1      -9.616   3.688  -6.027  1.00 18.92    -0.241 NA
HETATM    7  C17   D T   1     -10.327   4.323  -5.067  1.00 19.63     0.099 A 
HETATM    8  C18   D T   1      -9.707   5.338  -4.318  1.00 16.22     0.021 A 
HETATM    9  C20   D T   1     -10.426   5.993  -3.312  1.00 16.47     0.002 A 
HETATM   10  C22   D T   1     -11.765   5.645  -3.069  1.00 11.45     0.002 A 
ENDROOT
BRANCH   1  11
HETATM   11  C7    D T   1     -13.794   4.280  -3.470  1.00 15.00     0.006 A 
HETATM   12  C5    D T   1     -13.987   3.642  -2.236  1.00 16.13     0.030 A 
HETATM   13  C4    D T   1     -15.264   3.261  -1.816  1.00 20.46     0.140 A 
HETATM   14  C3    D T   1     -16.373   3.529  -2.636  1.00 19.71     0.055 A 
HETATM   15  F47   D T   1     -15.394   2.648  -0.631  1.00 18.81    -0.204 F 
HETATM   16  C2    D T   1     -16.174   4.157  -3.881  1.00 20.82     0.140 A 
HETATM   17  F1    D T   1     -17.194   4.438  -4.695  1.00 22.79    -0.204 F 
HETATM   18  C8    D T   1     -14.891   4.533  -4.301  1.00 15.46     0.030 A 
BRANCH  14  19
HETATM   19  C48   D T   1     -17.787   3.142  -2.165  1.00 20.25     0.129 C 
BRANCH  19  20
HETATM   20  N51   D T   1     -18.394   4.272  -1.369  1.00 24.07    -0.361 N 
HETATM   21  C52   D T   1     -18.438   4.026   0.107  1.00 22.40     0.130 C 
HETATM   22  C55   D T   1     -19.057   5.204   0.905  1.00 27.40     0.166 C 
HETATM   23  O58   D T   1     -20.314   5.595   0.317  1.00 26.30    -0.350 OA
HETATM   24  C59   D T   1     -20.142   6.064  -1.034  1.00 25.21     0.166 C 
HETATM   25  C62   D T   1     -19.642   4.892  -1.921  1.00 22.22     0.130 C 
ENDBRANCH  19  20
ENDBRANCH  14  19
ENDBRANCH   1  11
BRANCH   4  26
HETATM   26  C24   D T   1     -12.189   1.253  -7.373  1.00 15.92     0.059 A 
HETATM   27  C25   D T   1     -11.659   0.333  -8.226  1.00 18.01     0.098 A 
HETATM   28  N27   D T   1     -12.658  -0.375  -8.692  1.00 18.37    -0.251 N 
HETATM   29  N28   D T   1     -13.825   0.076  -8.175  1.00 18.72    -0.168 NA
HETATM   30  C29   D T   1     -13.637   1.045  -7.377  1.00 18.29     0.123 A 
BRANCH  28  31
HETATM   31  C31   D T   1     -12.682  -1.473  -9.651  1.00 23.01     0.110 C 
HETATM   32  C33   D T   1     -14.119  -1.631 -10.239  1.00 23.05     0.063 C 
HETATM   33  C36   D T   1     -14.195  -2.784 -11.272  1.00 27.20     0.292 C 
HETATM   34  N39   D T   1     -13.136  -2.574 -12.280  1.00 30.30     0.339 N 
HETATM   35  C41   D T   1     -11.751  -2.618 -11.733  1.00 26.52     0.292 C 
HETATM   36  C44   D T   1     -11.567  -1.433 -10.731  1.00 29.21     0.063 C 
ENDBRANCH  28  31
ENDBRANCH   4  26
TORSDOF 5
ENDMDL
MODEL 3
REMARK VINA RESULT:    -9.458      2.999      8.114
REMARK INTER + INTRA:         -13.376
REMARK INTER:                 -12.888
REMARK INTRA:                  -0.489
REMARK UNBOUND:                -1.154
REMARK  5 active torsions:
REMARK  status: ('A' for Active; 'I' for Inactive)
REMARK    1  A    between atoms: C3_3  and  C48_30 
REMARK    2  A    between atoms: C7_6  and  C10_8 
REMARK    3  A    between atoms: C13_11  and  C24_18 
REMARK    4  A    between atoms: N27_20  and  C31_23 
REMARK    5  A    between atoms: C48_30  and  N51_31 
ROOT
HETATM    1  C10   D T   1     -11.125   4.593  -4.538  1.00 15.48     0.019 A 
HETATM    2  C11   D T   1     -11.962   5.090  -3.520  1.00 17.77     0.099 A 
HETATM    3  N12   D T   1     -13.238   4.624  -3.348  1.00 14.42    -0.242 NA
HETATM    4  C13   D T   1     -14.021   5.119  -2.355  1.00 16.70     0.103 A 
HETATM    5  C14   D T   1     -13.509   6.115  -1.518  1.00 16.81     0.118 A 
HETATM    6  N16   D T   1     -12.261   6.593  -1.685  1.00 18.92    -0.241 NA
HETATM    7  C17   D T   1     -11.471   6.098  -2.664  1.00 19.63     0.099 A 
HETATM    8  C18   D T   1     -10.169   6.605  -2.812  1.00 16.22     0.021 A 
HETATM    9  C20   D T   1      -9.345   6.111  -3.830  1.00 16.47     0.002 A 
HETATM   10  C22   D T   1      -9.818   5.101  -4.685  1.00 11.45     0.002 A 
ENDROOT
BRANCH   1  11
HETATM   11  C7    D T   1     -11.571   3.557  -5.513  1.00 15.00     0.006 A 
HETATM   12  C5    D T   1     -10.556   2.870  -6.193  1.00 16.13     0.030 A 
HETATM   13  C4    D T   1     -10.862   1.888  -7.139  1.00 20.46     0.140 A 
HETATM   14  C3    D T   1     -12.206   1.578  -7.407  1.00 19.71     0.055 A 
HETATM   15  F47   D T   1      -9.855   1.264  -7.766  1.00 18.81    -0.204 F 
HETATM   16  C2    D T   1     -13.223   2.281  -6.732  1.00 20.82     0.140 A 
HETATM   17  F1    D T   1     -14.514   2.022  -6.947  1.00 22.79    -0.204 F 
HETATM   18  C8    D T   1     -12.912   3.268  -5.788  1.00 15.46     0.030 A 
BRANCH  14  19
HETATM   19  C48   D T   1     -12.551   0.474  -8.424  1.00 20.25     0.129 C 
BRANCH  19  20
HETATM   20  N51   D T   1     -13.605  -0.443  -7.854  1.00 24.07    -0.361 N 
HETATM   21  C52   D T   1     -13.062  -1.530  -6.978  1.00 22.40     0.130 C 
HETATM   22  C55   D T   1     -14.165  -2.454  -6.397  1.00 27.40     0.166 C 
HETATM   23  O58   D T   1     -15.042  -2.904  -7.450  1.00 26.30    -0.350 OA
HETATM   24  C59   D T   1     -15.724  -1.800  -8.075  1.00 25.21     0.166 C 
HETATM   25  C62   D T   1     -14.683  -0.896  -8.791  1.00 22.22     0.130 C 
ENDBRANCH  19  20
ENDBRANCH  14  19
ENDBRANCH   1  11
BRANCH   4  26
HETATM   26  C24   D T   1     -15.421   4.560  -2.175  1.00 15.92     0.059 A 
HETATM   27  C25   D T   1     -16.223   4.513  -1.075  1.00 18.01     0.098 A 
HETATM   28  N27   D T   1     -17.337   3.928  -1.440  1.00 18.37    -0.251 N 
HETATM   29  N28   D T   1     -17.270   3.578  -2.746  1.00 18.72    -0.168 NA
HETATM   30  C29   D T   1     -16.161   3.919  -3.262  1.00 18.29     0.123 A 
BRANCH  28  31
HETATM   31  C31   D T   1     -18.532   3.592  -0.675  1.00 23.01     0.110 C 
HETATM   32  C33   D T   1     -18.509   2.080  -0.292  1.00 23.05     0.063 C 
HETATM   33  C36   D T   1     -19.758   1.674   0.530  1.00 27.20     0.292 C 
HETATM   34  N39   D T   1     -19.879   2.599   1.677  1.00 30.30     0.339 N 
HETATM   35  C41   D T   1     -20.096   4.022   1.295  1.00 26.52     0.292 C 
HETATM   36  C44   D T   1     -18.839   4.534   0.521  1.00 29.21     0.063 C 
ENDBRANCH  28  31
ENDBRANCH   4  26
TORSDOF 5
ENDMDL
MODEL 4
REMARK VINA RESULT:    -9.158      3.278      8.574
REMARK INTER + INTRA:         -12.989
REMARK INTER:                 -12.419
REMARK INTRA:                  -0.570
REMARK UNBOUND:                -1.154
REMARK  5 active torsions:
REMARK  status: ('A' for Active; 'I' for Inactive)
REMARK    1  A    between atoms: C3_3  and  C48_30 
REMARK    2  A    between atoms: C7_6  and  C10_8 
REMARK    3  A    between atoms: C13_11  and  C24_18 
REMARK    4  A    between atoms: N27_20  and  C31_23 
REMARK    5  A    between atoms: C48_30  and  N51_31 
ROOT
HETATM    1  C10   D T   1     -11.287   2.435  -6.447  1.00 15.48     0.019 A 
HETATM    2  C11   D T   1     -11.639   3.343  -5.429  1.00 17.77     0.099 A 
HETATM    3  N12   D T   1     -12.915   3.412  -4.938  1.00 14.42    -0.242 NA
HETATM    4  C13   D T   1     -13.225   4.294  -3.953  1.00 16.70     0.103 A 
HETATM    5  C14   D T   1     -12.225   5.135  -3.454  1.00 16.81     0.118 A 
HETATM    6  N16   D T   1     -10.969   5.088  -3.939  1.00 18.92    -0.241 NA
HETATM    7  C17   D T   1     -10.650   4.204  -4.911  1.00 19.63     0.099 A 
HETATM    8  C18   D T   1      -9.330   4.167  -5.392  1.00 16.22     0.021 A 
HETATM    9  C20   D T   1      -8.989   3.267  -6.408  1.00 16.47     0.002 A 
HETATM   10  C22   D T   1      -9.962   2.397  -6.928  1.00 11.45     0.002 A 
ENDROOT
BRANCH   1  11
HETATM   11  C7    D T   1     -12.273   1.515  -7.081  1.00 15.00     0.006 A 
HETATM   12  C5    D T   1     -11.806   0.762  -8.167  1.00 16.13     0.030 A 
HETATM   13  C4    D T   1     -12.651  -0.123  -8.845  1.00 20.46     0.140 A 
HETATM   14  C3    D T   1     -13.985  -0.267  -8.425  1.00 19.71     0.055 A 
HETATM   15  F47   D T   1     -12.158  -0.815  -9.881  1.00 18.81    -0.204 F 
HETATM   16  C2    D T   1     -14.453   0.503  -7.342  1.00 20.82     0.140 A 
HETATM   17  F1    D T   1     -15.709   0.401  -6.903  1.00 22.79    -0.204 F 
HETATM   18  C8    D T   1     -13.605   1.392  -6.670  1.00 15.46     0.030 A 
BRANCH  14  19
HETATM   19  C48   D T   1     -14.912  -1.263  -9.146  1.00 20.25     0.129 C 
BRANCH  19  20
HETATM   20  N51   D T   1     -14.929  -2.579  -8.408  1.00 24.07    -0.361 N 
HETATM   21  C52   D T   1     -14.511  -3.753  -9.238  1.00 22.40     0.130 C 
HETATM   22  C55   D T   1     -14.528  -5.093  -8.456  1.00 27.40     0.166 C 
HETATM   23  O58   D T   1     -15.786  -5.252  -7.770  1.00 26.30    -0.350 OA
HETATM   24  C59   D T   1     -15.993  -4.210  -6.798  1.00 25.21     0.166 C 
HETATM   25  C62   D T   1     -16.114  -2.845  -7.529  1.00 22.22     0.130 C 
ENDBRANCH  19  20
ENDBRANCH  14  19
ENDBRANCH   1  11
BRANCH   4  26
HETATM   26  C24   D T   1     -14.644   4.325  -3.413  1.00 15.92     0.059 A 
HETATM   27  C25   D T   1     -15.105   4.467  -2.139  1.00 18.01     0.098 A 
HETATM   28  N27   D T   1     -16.413   4.427  -2.201  1.00 18.37    -0.251 N 
HETATM   29  N28   D T   1     -16.810   4.245  -3.482  1.00 18.72    -0.168 NA
HETATM   30  C29   D T   1     -15.818   4.175  -4.271  1.00 18.29     0.123 A 
BRANCH  28  31
HETATM   31  C31   D T   1     -17.419   4.506  -1.149  1.00 23.01     0.110 C 
HETATM   32  C33   D T   1     -17.582   3.113  -0.466  1.00 23.05     0.063 C 
HETATM   33  C36   D T   1     -18.639   3.146   0.667  1.00 27.20     0.292 C 
HETATM   34  N39   D T   1     -18.295   4.248   1.590  1.00 30.30     0.339 N 
HETATM   35  C41   D T   1     -18.332   5.601   0.968  1.00 26.52     0.292 C 
HETATM   36  C44   D T   1     -17.237   5.675  -0.144  1.00 29.21     0.063 C 
ENDBRANCH  28  31
ENDBRANCH   4  26
TORSDOF 5
ENDMDL
MODEL 5
REMARK VINA RESULT:    -9.057      3.238      8.442
REMARK INTER + INTRA:         -12.859
REMARK INTER:                 -12.028
REMARK INTRA:                  -0.830
REMARK UNBOUND:                -1.154
REMARK  5 active torsions:
REMARK  status: ('A' for Active; 'I' for Inactive)
REMARK    1  A    between atoms: C3_3  and  C48_30 
REMARK    2  A    between atoms: C7_6  and  C10_8 
REMARK    3  A    between atoms: C13_11  and  C24_18 
REMARK    4  A    between atoms: N27_20  and  C31_23 
REMARK    5  A    between atoms: C48_30  and  N51_31 
ROOT
HETATM    1  C10   D T   1     -11.770   3.020  -5.358  1.00 15.48     0.019 A 
HETATM    2  C11   D T   1     -12.439   3.896  -4.482  1.00 17.77     0.099 A 
HETATM    3  N12   D T   1     -13.752   3.708  -4.143  1.00 14.42    -0.242 NA
HETATM    4  C13   D T   1     -14.372   4.567  -3.291  1.00 16.70     0.103 A 
HETATM    5  C14   D T   1     -13.652   5.648  -2.774  1.00 16.81     0.118 A 
HETATM    6  N16   D T   1     -12.363   5.853  -3.110  1.00 18.92    -0.241 NA
HETATM    7  C17   D T   1     -11.736   4.996  -3.948  1.00 19.63     0.099 A 
HETATM    8  C18   D T   1     -10.389   5.225  -4.275  1.00 16.22     0.021 A 
HETATM    9  C20   D T   1      -9.733   4.355  -5.152  1.00 16.47     0.002 A 
HETATM   10  C22   D T   1     -10.417   3.249  -5.685  1.00 11.45     0.002 A 
ENDROOT
BRANCH   1  11
HETATM   11  C7    D T   1     -12.442   1.855  -6.000  1.00 15.00     0.006 A 
HETATM   12  C5    D T   1     -12.037   1.551  -7.307  1.00 16.13     0.030 A 
HETATM   13  C4    D T   1     -12.611   0.487  -8.009  1.00 20.46     0.140 A 
HETATM   14  C3    D T   1     -13.603  -0.295  -7.392  1.00 19.71     0.055 A 
HETATM   15  F47   D T   1     -12.193   0.241  -9.258  1.00 18.81    -0.204 F 
HETATM   16  C2    D T   1     -14.018   0.023  -6.084  1.00 20.82     0.140 A 
HETATM   17  F1    D T   1     -14.952  -0.691  -5.453  1.00 22.79    -0.204 F 
HETATM   18  C8    D T   1     -13.442   1.093  -5.387  1.00 15.46     0.030 A 
BRANCH  14  19
HETATM   19  C48   D T   1     -14.217  -1.489  -8.147  1.00 20.25     0.129 C 
BRANCH  19  20
HETATM   20  N51   D T   1     -15.389  -1.028  -8.977  1.00 24.07    -0.361 N 
HETATM   21  C52   D T   1     -16.724  -1.408  -8.417  1.00 22.40     0.130 C 
HETATM   22  C55   D T   1     -17.914  -0.915  -9.283  1.00 27.40     0.166 C 
HETATM   23  O58   D T   1     -17.709  -1.281 -10.663  1.00 26.30    -0.350 OA
HETATM   24  C59   D T   1     -16.527  -0.660 -11.203  1.00 25.21     0.166 C 
HETATM   25  C62   D T   1     -15.277  -1.208 -10.461  1.00 22.22     0.130 C 
ENDBRANCH  19  20
ENDBRANCH  14  19
ENDBRANCH   1  11
BRANCH   4  26
HETATM   26  C24   D T   1     -15.820   4.313  -2.916  1.00 15.92     0.059 A 
HETATM   27  C25   D T   1     -16.426   4.270  -1.697  1.00 18.01     0.098 A 
HETATM   28  N27   D T   1     -17.693   4.015  -1.909  1.00 18.37    -0.251 N 
HETATM   29  N28   D T   1     -17.920   3.873  -3.236  1.00 18.72    -0.168 NA
HETATM   30  C29   D T   1     -16.857   4.037  -3.910  1.00 18.29     0.123 A 
BRANCH  28  31
HETATM   31  C31   D T   1     -18.799   3.836  -0.976  1.00 23.01     0.110 C 
HETATM   32  C33   D T   1     -18.663   2.462  -0.250  1.00 23.05     0.063 C 
HETATM   33  C36   D T   1     -19.814   2.227   0.760  1.00 27.20     0.292 C 
HETATM   34  N39   D T   1     -19.885   3.395   1.662  1.00 30.30     0.339 N 
HETATM   35  C41   D T   1     -20.209   4.678   0.978  1.00 26.52     0.292 C 
HETATM   36  C44   D T   1     -19.052   5.027  -0.012  1.00 29.21     0.063 C 
ENDBRANCH  28  31
ENDBRANCH   4  26
TORSDOF 5
ENDMDL
MODEL 6
REMARK VINA RESULT:    -9.009      2.321      3.134
REMARK INTER + INTRA:         -12.797
REMARK INTER:                 -11.871
REMARK INTRA:                  -0.926
REMARK UNBOUND:                -1.154
REMARK  5 active torsions:
REMARK  status: ('A' for Active; 'I' for Inactive)
REMARK    1  A    between atoms: C3_3  and  C48_30 
REMARK    2  A    between atoms: C7_6  and  C10_8 
REMARK    3  A    between atoms: C13_11  and  C24_18 
REMARK    4  A    between atoms: N27_20  and  C31_23 
REMARK    5  A    between atoms: C48_30  and  N51_31 
ROOT
HETATM    1  C10   D T   1     -11.973   5.530  -2.402  1.00 15.48     0.019 A 
HETATM    2  C11   D T   1     -11.869   4.718  -3.549  1.00 17.77     0.099 A 
HETATM    3  N12   D T   1     -12.838   3.807  -3.874  1.00 14.42    -0.242 NA
HETATM    4  C13   D T   1     -12.714   3.040  -4.988  1.00 16.70     0.103 A 
HETATM    5  C14   D T   1     -11.579   3.188  -5.792  1.00 16.81     0.118 A 
HETATM    6  N16   D T   1     -10.611   4.069  -5.476  1.00 18.92    -0.241 NA
HETATM    7  C17   D T   1     -10.733   4.845  -4.374  1.00 19.63     0.099 A 
HETATM    8  C18   D T   1      -9.715   5.765  -4.072  1.00 16.22     0.021 A 
HETATM    9  C20   D T   1      -9.821   6.563  -2.928  1.00 16.47     0.002 A 
HETATM   10  C22   D T   1     -10.951   6.454  -2.100  1.00 11.45     0.002 A 
ENDROOT
BRANCH   1  11
HETATM   11  C7    D T   1     -13.116   5.437  -1.451  1.00 15.00     0.006 A 
HETATM   12  C5    D T   1     -13.622   6.654  -0.972  1.00 16.13     0.030 A 
HETATM   13  C4    D T   1     -14.685   6.683  -0.065  1.00 20.46     0.140 A 
HETATM   14  C3    D T   1     -15.262   5.476   0.366  1.00 19.71     0.055 A 
HETATM   15  F47   D T   1     -15.128   7.872   0.368  1.00 18.81    -0.204 F 
HETATM   16  C2    D T   1     -14.741   4.255  -0.107  1.00 20.82     0.140 A 
HETATM   17  F1    D T   1     -15.256   3.083   0.269  1.00 22.79    -0.204 F 
HETATM   18  C8    D T   1     -13.672   4.231  -1.012  1.00 15.46     0.030 A 
BRANCH  14  19
HETATM   19  C48   D T   1     -16.455   5.501   1.340  1.00 20.25     0.129 C 
BRANCH  19  20
HETATM   20  N51   D T   1     -17.706   5.931   0.614  1.00 24.07    -0.361 N 
HETATM   21  C52   D T   1     -18.424   7.076   1.256  1.00 22.40     0.130 C 
HETATM   22  C55   D T   1     -19.702   7.506   0.487  1.00 27.40     0.166 C 
HETATM   23  O58   D T   1     -20.524   6.355   0.207  1.00 26.30    -0.350 OA
HETATM   24  C59   D T   1     -19.838   5.410  -0.637  1.00 25.21     0.166 C 
HETATM   25  C62   D T   1     -18.611   4.840   0.126  1.00 22.22     0.130 C 
ENDBRANCH  19  20
ENDBRANCH  14  19
ENDBRANCH   1  11
BRANCH   4  26
HETATM   26  C24   D T   1     -13.820   2.060  -5.333  1.00 15.92     0.059 A 
HETATM   27  C25   D T   1     -13.761   0.754  -5.715  1.00 18.01     0.098 A 
HETATM   28  N27   D T   1     -14.995   0.353  -5.897  1.00 18.37    -0.251 N 
HETATM   29  N28   D T   1     -15.852   1.373  -5.659  1.00 18.72    -0.168 NA
HETATM   30  C29   D T   1     -15.236   2.428  -5.316  1.00 18.29     0.123 A 
BRANCH  28  31
HETATM   31  C31   D T   1     -15.525  -0.935  -6.328  1.00 23.01     0.110 C 
HETATM   32  C33   D T   1     -14.447  -2.045  -6.130  1.00 23.05     0.063 C 
HETATM   33  C36   D T   1     -14.966  -3.438  -6.568  1.00 27.20     0.292 C 
HETATM   34  N39   D T   1     -16.247  -3.694  -5.878  1.00 30.30     0.339 N 
HETATM   35  C41   D T   1     -17.332  -2.734  -6.226  1.00 26.52     0.292 C 
HETATM   36  C44   D T   1     -16.916  -1.307  -5.746  1.00 29.21     0.063 C 
ENDBRANCH  28  31
ENDBRANCH   4  26
TORSDOF 5
ENDMDL
MODEL 7
REMARK VINA RESULT:    -8.823      3.924      9.329
REMARK INTER + INTRA:         -12.556
REMARK INTER:                 -11.423
REMARK INTRA:                  -1.133
REMARK UNBOUND:                -1.154
REMARK  5 active torsions:
REMARK  status: ('A' for Active; 'I' for Inactive)
REMARK    1  A    between atoms: C3_3  and  C48_30 
REMARK    2  A    between atoms: C7_6  and  C10_8 
REMARK    3  A    between atoms: C13_11  and  C24_18 
REMARK    4  A    between atoms: N27_20  and  C31_23 
REMARK    5  A    between atoms: C48_30  and  N51_31 
ROOT
HETATM    1  C10   D T   1     -12.028   0.911  -7.307  1.00 15.48     0.019 A 
HETATM    2  C11   D T   1     -12.160   1.934  -6.348  1.00 17.77     0.099 A 
HETATM    3  N12   D T   1     -13.251   2.010  -5.524  1.00 14.42    -0.242 NA
HETATM    4  C13   D T   1     -13.350   3.005  -4.605  1.00 16.70     0.103 A 
HETATM    5  C14   D T   1     -12.327   3.954  -4.519  1.00 16.81     0.118 A 
HETATM    6  N16   D T   1     -11.254   3.900  -5.333  1.00 18.92    -0.241 NA
HETATM    7  C17   D T   1     -11.143   2.906  -6.243  1.00 19.63     0.099 A 
HETATM    8  C18   D T   1     -10.010   2.864  -7.073  1.00 16.22     0.021 A 
HETATM    9  C20   D T   1      -9.890   1.849  -8.028  1.00 16.47     0.002 A 
HETATM   10  C22   D T   1     -10.890   0.869  -8.139  1.00 11.45     0.002 A 
ENDROOT
BRANCH   1  11
HETATM   11  C7    D T   1     -13.069  -0.135  -7.516  1.00 15.00     0.006 A 
HETATM   12  C5    D T   1     -13.730  -0.111  -8.753  1.00 16.13     0.030 A 
HETATM   13  C4    D T   1     -14.733  -1.037  -9.049  1.00 20.46     0.140 A 
HETATM   14  C3    D T   1     -15.079  -2.013  -8.100  1.00 19.71     0.055 A 
HETATM   15  F47   D T   1     -15.339  -0.967 -10.243  1.00 18.81    -0.204 F 
HETATM   16  C2    D T   1     -14.423  -2.025  -6.853  1.00 20.82     0.140 A 
HETATM   17  F1    D T   1     -14.711  -2.933  -5.919  1.00 22.79    -0.204 F 
HETATM   18  C8    D T   1     -13.421  -1.091  -6.558  1.00 15.46     0.030 A 
BRANCH  14  19
HETATM   19  C48   D T   1     -16.161  -3.058  -8.432  1.00 20.25     0.129 C 
BRANCH  19  20
HETATM   20  N51   D T   1     -15.517  -4.322  -8.947  1.00 24.07    -0.361 N 
HETATM   21  C52   D T   1     -15.837  -4.634 -10.376  1.00 22.40     0.130 C 
HETATM   22  C55   D T   1     -15.158  -5.932 -10.886  1.00 27.40     0.166 C 
HETATM   23  O58   D T   1     -15.395  -7.013  -9.961  1.00 26.30    -0.350 OA
HETATM   24  C59   D T   1     -14.826  -6.736  -8.668  1.00 25.21     0.166 C 
HETATM   25  C62   D T   1     -15.553  -5.515  -8.040  1.00 22.22     0.130 C 
ENDBRANCH  19  20
ENDBRANCH  14  19
ENDBRANCH   1  11
BRANCH   4  26
HETATM   26  C24   D T   1     -14.560   3.043  -3.690  1.00 15.92     0.059 A 
HETATM   27  C25   D T   1     -14.647   2.983  -2.332  1.00 18.01     0.098 A 
HETATM   28  N27   D T   1     -15.919   3.054  -2.028  1.00 18.37    -0.251 N 
HETATM   29  N28   D T   1     -16.661   3.141  -3.157  1.00 18.72    -0.168 NA
HETATM   30  C29   D T   1     -15.929   3.143  -4.194  1.00 18.29     0.123 A 
BRANCH  28  31
HETATM   31  C31   D T   1     -16.594   3.014  -0.736  1.00 23.01     0.110 C 
HETATM   32  C33   D T   1     -16.188   4.258   0.113  1.00 23.05     0.063 C 
HETATM   33  C36   D T   1     -16.887   4.265   1.496  1.00 27.20     0.292 C 
HETATM   34  N39   D T   1     -18.341   4.112   1.283  1.00 30.30     0.339 N 
HETATM   35  C41   D T   1     -18.734   2.826   0.642  1.00 26.52     0.292 C 
HETATM   36  C44   D T   1     -18.127   2.773  -0.796  1.00 29.21     0.063 C 
ENDBRANCH  28  31
ENDBRANCH   4  26
TORSDOF 5
ENDMDL
MODEL 8
REMARK VINA RESULT:    -8.620      3.623      8.681
REMARK INTER + INTRA:         -12.293
REMARK INTER:                 -11.609
REMARK INTRA:                  -0.684
REMARK UNBOUND:                -1.154
REMARK  5 active torsions:
REMARK  status: ('A' for Active; 'I' for Inactive)
REMARK    1  A    between atoms: C3_3  and  C48_30 
REMARK    2  A    between atoms: C7_6  and  C10_8 
REMARK    3  A    between atoms: C13_11  and  C24_18 
REMARK    4  A    between atoms: N27_20  and  C31_23 
REMARK    5  A    between atoms: C48_30  and  N51_31 
ROOT
HETATM    1  C10   D T   1     -11.638   1.088  -7.351  1.00 15.48     0.019 A 
HETATM    2  C11   D T   1     -11.442   2.202  -6.511  1.00 17.77     0.099 A 
HETATM    3  N12   D T   1     -12.451   2.700  -5.732  1.00 14.42    -0.242 NA
HETATM    4  C13   D T   1     -12.233   3.773  -4.928  1.00 16.70     0.103 A 
HETATM    5  C14   D T   1     -10.966   4.365  -4.915  1.00 16.81     0.118 A 
HETATM    6  N16   D T   1      -9.968   3.894  -5.688  1.00 18.92    -0.241 NA
HETATM    7  C17   D T   1     -10.175   2.819  -6.482  1.00 19.63     0.099 A 
HETATM    8  C18   D T   1      -9.115   2.340  -7.271  1.00 16.22     0.021 A 
HETATM    9  C20   D T   1      -9.319   1.238  -8.108  1.00 16.47     0.002 A 
HETATM   10  C22   D T   1     -10.574   0.606  -8.141  1.00 11.45     0.002 A 
ENDROOT
BRANCH   1  11
HETATM   11  C7    D T   1     -12.952   0.396  -7.477  1.00 15.00     0.006 A 
HETATM   12  C5    D T   1     -13.392   0.137  -8.782  1.00 16.13     0.030 A 
HETATM   13  C4    D T   1     -14.617  -0.495  -9.016  1.00 20.46     0.140 A 
HETATM   14  C3    D T   1     -15.415  -0.885  -7.927  1.00 19.71     0.055 A 
HETATM   15  F47   D T   1     -14.994  -0.715 -10.283  1.00 18.81    -0.204 F 
HETATM   16  C2    D T   1     -14.976  -0.609  -6.617  1.00 20.82     0.140 A 
HETATM   17  F1    D T   1     -15.695  -0.962  -5.550  1.00 22.79    -0.204 F 
HETATM   18  C8    D T   1     -13.750   0.029  -6.388  1.00 15.46     0.030 A 
BRANCH  14  19
HETATM   19  C48   D T   1     -16.750  -1.611  -8.176  1.00 20.25     0.129 C 
BRANCH  19  20
HETATM   20  N51   D T   1     -16.499  -3.071  -8.460  1.00 24.07    -0.361 N 
HETATM   21  C52   D T   1     -17.737  -3.913  -8.476  1.00 22.40     0.130 C 
HETATM   22  C55   D T   1     -17.455  -5.409  -8.778  1.00 27.40     0.166 C 
HETATM   23  O58   D T   1     -16.400  -5.898  -7.926  1.00 26.30    -0.350 OA
HETATM   24  C59   D T   1     -15.165  -5.195  -8.159  1.00 25.21     0.166 C 
HETATM   25  C62   D T   1     -15.339  -3.706  -7.753  1.00 22.22     0.130 C 
ENDBRANCH  19  20
ENDBRANCH  14  19
ENDBRANCH   1  11
BRANCH   4  26
HETATM   26  C24   D T   1     -13.366   4.282  -4.056  1.00 15.92     0.059 A 
HETATM   27  C25   D T   1     -13.481   4.353  -2.701  1.00 18.01     0.098 A 
HETATM   28  N27   D T   1     -14.656   4.870  -2.444  1.00 18.37    -0.251 N 
HETATM   29  N28   D T   1     -15.315   5.119  -3.599  1.00 18.72    -0.168 NA
HETATM   30  C29   D T   1     -14.617   4.799  -4.611  1.00 18.29     0.123 A 
BRANCH  28  31
HETATM   31  C31   D T   1     -15.316   5.152  -1.174  1.00 23.01     0.110 C 
HETATM   32  C33   D T   1     -16.017   3.864  -0.643  1.00 23.05     0.063 C 
HETATM   33  C36   D T   1     -16.728   4.112   0.711  1.00 27.20     0.292 C 
HETATM   34  N39   D T   1     -15.753   4.712   1.645  1.00 30.30     0.339 N 
HETATM   35  C41   D T   1     -15.234   6.041   1.216  1.00 26.52     0.292 C 
HETATM   36  C44   D T   1     -14.434   5.865  -0.114  1.00 29.21     0.063 C 
ENDBRANCH  28  31
ENDBRANCH   4  26
TORSDOF 5
ENDMDL
MODEL 9
REMARK VINA RESULT:    -8.588      1.707      3.168
REMARK INTER + INTRA:         -12.252
REMARK INTER:                 -11.016
REMARK INTRA:                  -1.235
REMARK UNBOUND:                -1.154
REMARK  5 active torsions:
REMARK  status: ('A' for Active; 'I' for Inactive)
REMARK    1  A    between atoms: C3_3  and  C48_30 
REMARK    2  A    between atoms: C7_6  and  C10_8 
REMARK    3  A    between atoms: C13_11  and  C24_18 
REMARK    4  A    between atoms: N27_20  and  C31_23 
REMARK    5  A    between atoms: C48_30  and  N51_31 
ROOT
HETATM    1  C10   D T   1     -12.341   3.664  -4.582  1.00 15.48     0.019 A 
HETATM    2  C11   D T   1     -11.934   2.835  -5.646  1.00 17.77     0.099 A 
HETATM    3  N12   D T   1     -12.742   1.843  -6.133  1.00 14.42    -0.242 NA
HETATM    4  C13   D T   1     -12.326   1.062  -7.164  1.00 16.70     0.103 A 
HETATM    5  C14   D T   1     -11.058   1.280  -7.712  1.00 16.81     0.118 A 
HETATM    6  N16   D T   1     -10.246   2.242  -7.232  1.00 18.92    -0.241 NA
HETATM    7  C17   D T   1     -10.659   3.032  -6.215  1.00 19.63     0.099 A 
HETATM    8  C18   D T   1      -9.798   4.036  -5.739  1.00 16.22     0.021 A 
HETATM    9  C20   D T   1     -10.207   4.851  -4.677  1.00 16.47     0.002 A 
HETATM   10  C22   D T   1     -11.478   4.672  -4.106  1.00 11.45     0.002 A 
ENDROOT
BRANCH   1  11
HETATM   11  C7    D T   1     -13.653   3.504  -3.894  1.00 15.00     0.006 A 
HETATM   12  C5    D T   1     -14.764   4.061  -4.544  1.00 16.13     0.030 A 
HETATM   13  C4    D T   1     -16.041   3.981  -3.980  1.00 20.46     0.140 A 
HETATM   14  C3    D T   1     -16.216   3.325  -2.750  1.00 19.71     0.055 A 
HETATM   15  F47   D T   1     -17.068   4.536  -4.638  1.00 18.81    -0.204 F 
HETATM   16  C2    D T   1     -15.096   2.779  -2.094  1.00 20.82     0.140 A 
HETATM   17  F1    D T   1     -15.210   2.143  -0.927  1.00 22.79    -0.204 F 
HETATM   18  C8    D T   1     -13.817   2.866  -2.660  1.00 15.46     0.030 A 
BRANCH  14  19
HETATM   19  C48   D T   1     -17.625   3.204  -2.140  1.00 20.25     0.129 C 
BRANCH  19  20
HETATM   20  N51   D T   1     -17.884   4.360  -1.205  1.00 24.07    -0.361 N 
HETATM   21  C52   D T   1     -17.637   4.048   0.238  1.00 22.40     0.130 C 
HETATM   22  C55   D T   1     -17.901   5.253   1.179  1.00 27.40     0.166 C 
HETATM   23  O58   D T   1     -19.191   5.831   0.896  1.00 26.30    -0.350 OA
HETATM   24  C59   D T   1     -19.256   6.342  -0.449  1.00 25.21     0.166 C 
HETATM   25  C62   D T   1     -19.126   5.162  -1.451  1.00 22.22     0.130 C 
ENDBRANCH  19  20
ENDBRANCH  14  19
ENDBRANCH   1  11
BRANCH   4  26
HETATM   26  C24   D T   1     -13.258  -0.010  -7.697  1.00 15.92     0.059 A 
HETATM   27  C25   D T   1     -14.214  -0.748  -7.067  1.00 18.01     0.098 A 
HETATM   28  N27   D T   1     -14.741  -1.539  -7.968  1.00 18.37    -0.251 N 
HETATM   29  N28   D T   1     -14.138  -1.345  -9.164  1.00 18.72    -0.168 NA
HETATM   30  C29   D T   1     -13.241  -0.448  -9.092  1.00 18.29     0.123 A 
BRANCH  28  31
HETATM   31  C31   D T   1     -15.783  -2.553  -7.854  1.00 23.01     0.110 C 
HETATM   32  C33   D T   1     -15.135  -3.968  -7.744  1.00 23.05     0.063 C 
HETATM   33  C36   D T   1     -16.204  -5.082  -7.613  1.00 27.20     0.292 C 
HETATM   34  N39   D T   1     -17.109  -4.730  -6.499  1.00 30.30     0.339 N 
HETATM   35  C41   D T   1     -17.870  -3.466  -6.705  1.00 26.52     0.292 C 
HETATM   36  C44   D T   1     -16.862  -2.275  -6.773  1.00 29.21     0.063 C 
ENDBRANCH  28  31
ENDBRANCH   4  26
TORSDOF 5
ENDMDL
