MODEL 1
REMARK VINA RESULT:      -8.0      0.000      0.000
REMARK  5 active torsions:
REMARK  status: ('A' for Active; 'I' for Inactive)
REMARK    1  A    between atoms: C3_3  and  C48_30 
REMARK    2  A    between atoms: C7_6  and  C10_8 
REMARK    3  A    between atoms: C13_11  and  C24_18 
REMARK    4  A    between atoms: N27_20  and  C31_23 
REMARK    5  A    between atoms: C48_30  and  N51_31 
ROOT
HETATM    1  C10   D T   1      18.351   6.662   8.615  1.00 15.48     0.019 A 
HETATM    2  C11   D T   1      17.444   6.793   7.545  1.00 17.77     0.099 A 
HETATM    3  N12   D T   1      17.405   7.922   6.771  1.00 14.42    -0.242 NA
HETATM    4  C13   D T   1      16.524   8.020   5.742  1.00 16.70     0.103 A 
HETATM    5  C14   D T   1      15.652   6.956   5.492  1.00 16.81     0.118 A 
HETATM    6  N16   D T   1      15.669   5.846   6.255  1.00 18.92    -0.241 NA
HETATM    7  C17   D T   1      16.553   5.736   7.272  1.00 19.63     0.099 A 
HETATM    8  C18   D T   1      16.558   4.563   8.047  1.00 16.22     0.021 A 
HETATM    9  C20   D T   1      17.456   4.443   9.113  1.00 16.47     0.002 A 
HETATM   10  C22   D T   1      18.358   5.484   9.391  1.00 11.45     0.002 A 
ENDROOT
BRANCH   1  11
HETATM   11  C7    D T   1      19.303   7.741   9.001  1.00 15.00     0.006 A 
HETATM   12  C5    D T   1      20.629   7.579   8.576  1.00 16.13     0.030 A 
HETATM   13  C4    D T   1      21.607   8.525   8.895  1.00 20.46     0.140 A 
HETATM   14  C3    D T   1      21.255   9.661   9.644  1.00 19.71     0.055 A 
HETATM   15  F47   D T   1      22.861   8.320   8.469  1.00 18.81    -0.204 F 
HETATM   16  C2    D T   1      19.924   9.813  10.082  1.00 20.82     0.140 A 
HETATM   17  F1    D T   1      19.539  10.875  10.793  1.00 22.79    -0.204 F 
HETATM   18  C8    D T   1      18.949   8.860   9.764  1.00 15.46     0.030 A 
BRANCH  14  19
HETATM   19  C48   D T   1      22.320  10.724   9.971  1.00 20.25     0.129 C 
BRANCH  19  20
HETATM   20  N51   D T   1      22.478  11.671   8.807  1.00 24.07    -0.361 N 
HETATM   21  C52   D T   1      23.893  12.085   8.542  1.00 22.40     0.130 C 
HETATM   22  C55   D T   1      24.031  13.052   7.336  1.00 27.40     0.166 C 
HETATM   23  O58   D T   1      23.093  14.140   7.461  1.00 26.30    -0.350 OA
HETATM   24  C59   D T   1      21.733  13.667   7.450  1.00 25.21     0.166 C 
HETATM   25  C62   D T   1      21.487  12.790   8.708  1.00 22.22     0.130 C 
ENDBRANCH  19  20
ENDBRANCH  14  19
ENDBRANCH   1  11
BRANCH   4  26
HETATM   26  C24   D T   1      16.527   9.274   4.888  1.00 15.92     0.059 A 
HETATM   27  C25   D T   1      15.879  10.461   5.052  1.00 18.01     0.098 A 
HETATM   28  N27   D T   1      16.212  11.220   4.037  1.00 18.37    -0.251 N 
HETATM   29  N28   D T   1      17.046  10.549   3.211  1.00 18.72    -0.168 NA
HETATM   30  C29   D T   1      17.288   9.379   3.643  1.00 18.29     0.123 A 
BRANCH  28  31
HETATM   31  C31   D T   1      15.802  12.575   3.687  1.00 23.01     0.110 C 
HETATM   32  C33   D T   1      14.316  12.803   4.103  1.00 23.05     0.063 C 
HETATM   33  C36   D T   1      13.834  14.235   3.756  1.00 27.20     0.292 C 
HETATM   34  N39   D T   1      14.792  15.200   4.335  1.00 30.30     0.339 N 
HETATM   35  C41   D T   1      16.172  15.098   3.784  1.00 26.52     0.292 C 
HETATM   36  C44   D T   1      16.762  13.701   4.158  1.00 29.21     0.063 C 
ENDBRANCH  28  31
ENDBRANCH   4  26
TORSDOF 5
ENDMDL
MODEL 2
REMARK VINA RESULT:      -7.3      2.350      6.734
REMARK  5 active torsions:
REMARK  status: ('A' for Active; 'I' for Inactive)
REMARK    1  A    between atoms: C3_3  and  C48_30 
REMARK    2  A    between atoms: C7_6  and  C10_8 
REMARK    3  A    between atoms: C13_11  and  C24_18 
REMARK    4  A    between atoms: N27_20  and  C31_23 
REMARK    5  A    between atoms: C48_30  and  N51_31 
ROOT
HETATM    1  C10   D T   1      17.243  13.205   5.129  1.00 15.48     0.019 A 
HETATM    2  C11   D T   1      16.482  12.067   4.797  1.00 17.77     0.099 A 
HETATM    3  N12   D T   1      16.772  10.833   5.316  1.00 14.42    -0.242 NA
HETATM    4  C13   D T   1      16.019   9.754   4.983  1.00 16.70     0.103 A 
HETATM    5  C14   D T   1      14.950   9.919   4.096  1.00 16.81     0.118 A 
HETATM    6  N16   D T   1      14.663  11.124   3.567  1.00 18.92    -0.241 NA
HETATM    7  C17   D T   1      15.400  12.206   3.904  1.00 19.63     0.099 A 
HETATM    8  C18   D T   1      15.074  13.453   3.346  1.00 16.22     0.021 A 
HETATM    9  C20   D T   1      15.838  14.579   3.674  1.00 16.47     0.002 A 
HETATM   10  C22   D T   1      16.914  14.458   4.571  1.00 11.45     0.002 A 
ENDROOT
BRANCH   1  11
HETATM   11  C7    D T   1      18.426  13.148   6.033  1.00 15.00     0.006 A 
HETATM   12  C5    D T   1      19.650  13.545   5.476  1.00 16.13     0.030 A 
HETATM   13  C4    D T   1      20.825  13.517   6.231  1.00 20.46     0.140 A 
HETATM   14  C3    D T   1      20.780  13.093   7.570  1.00 19.71     0.055 A 
HETATM   15  F47   D T   1      21.971  13.902   5.650  1.00 18.81    -0.204 F 
HETATM   16  C2    D T   1      19.551  12.681   8.121  1.00 20.82     0.140 A 
HETATM   17  F1    D T   1      19.454  12.274   9.389  1.00 22.79    -0.204 F 
HETATM   18  C8    D T   1      18.376  12.706   7.360  1.00 15.46     0.030 A 
BRANCH  14  19
HETATM   19  C48   D T   1      22.066  13.091   8.418  1.00 20.25     0.129 C 
BRANCH  19  20
HETATM   20  N51   D T   1      22.366  14.487   8.904  1.00 24.07    -0.361 N 
HETATM   21  C52   D T   1      23.780  14.926   8.675  1.00 22.40     0.130 C 
HETATM   22  C55   D T   1      24.061  16.368   9.176  1.00 27.40     0.166 C 
HETATM   23  O58   D T   1      23.589  16.526  10.528  1.00 26.30    -0.350 OA
HETATM   24  C59   D T   1      22.164  16.337  10.614  1.00 25.21     0.166 C 
HETATM   25  C62   D T   1      21.820  14.866  10.247  1.00 22.22     0.130 C 
ENDBRANCH  19  20
ENDBRANCH  14  19
ENDBRANCH   1  11
BRANCH   4  26
HETATM   26  C24   D T   1      16.352   8.406   5.597  1.00 15.92     0.059 A 
HETATM   27  C25   D T   1      17.254   8.069   6.561  1.00 18.01     0.098 A 
HETATM   28  N27   D T   1      17.157   6.774   6.737  1.00 18.37    -0.251 N 
HETATM   29  N28   D T   1      16.225   6.262   5.900  1.00 18.72    -0.168 NA
HETATM   30  C29   D T   1      15.695   7.166   5.185  1.00 18.29     0.123 A 
BRANCH  28  31
HETATM   31  C31   D T   1      17.891   5.876   7.620  1.00 23.01     0.110 C 
HETATM   32  C33   D T   1      16.893   4.985   8.420  1.00 23.05     0.063 C 
HETATM   33  C36   D T   1      17.627   4.005   9.370  1.00 27.20     0.292 C 
HETATM   34  N39   D T   1      18.626   3.255   8.581  1.00 30.30     0.339 N 
HETATM   35  C41   D T   1      19.692   4.104   7.978  1.00 26.52     0.292 C 
HETATM   36  C44   D T   1      19.039   5.076   6.945  1.00 29.21     0.063 C 
ENDBRANCH  28  31
ENDBRANCH   4  26
TORSDOF 5
ENDMDL
MODEL 3
REMARK VINA RESULT:      -7.1      1.740      2.368
REMARK  5 active torsions:
REMARK  status: ('A' for Active; 'I' for Inactive)
REMARK    1  A    between atoms: C3_3  and  C48_30 
REMARK    2  A    between atoms: C7_6  and  C10_8 
REMARK    3  A    between atoms: C13_11  and  C24_18 
REMARK    4  A    between atoms: N27_20  and  C31_23 
REMARK    5  A    between atoms: C48_30  and  N51_31 
ROOT
HETATM    1  C10   D T   1      18.450   6.474   8.457  1.00 15.48     0.019 A 
HETATM    2  C11   D T   1      17.476   6.669   7.459  1.00 17.77     0.099 A 
HETATM    3  N12   D T   1      17.454   7.800   6.686  1.00 14.42    -0.242 NA
HETATM    4  C13   D T   1      16.506   7.958   5.727  1.00 16.70     0.103 A 
HETATM    5  C14   D T   1      15.547   6.956   5.547  1.00 16.81     0.118 A 
HETATM    6  N16   D T   1      15.549   5.845   6.309  1.00 18.92    -0.241 NA
HETATM    7  C17   D T   1      16.497   5.674   7.257  1.00 19.63     0.099 A 
HETATM    8  C18   D T   1      16.483   4.502   8.032  1.00 16.22     0.021 A 
HETATM    9  C20   D T   1      17.450   4.319   9.027  1.00 16.47     0.002 A 
HETATM   10  C22   D T   1      18.437   5.298   9.233  1.00 11.45     0.002 A 
ENDROOT
BRANCH   1  11
HETATM   11  C7    D T   1      19.499   7.487   8.766  1.00 15.00     0.006 A 
HETATM   12  C5    D T   1      20.796   7.190   8.326  1.00 16.13     0.030 A 
HETATM   13  C4    D T   1      21.858   8.064   8.574  1.00 20.46     0.140 A 
HETATM   14  C3    D T   1      21.621   9.263   9.269  1.00 19.71     0.055 A 
HETATM   15  F47   D T   1      23.080   7.730   8.137  1.00 18.81    -0.204 F 
HETATM   16  C2    D T   1      20.319   9.551   9.722  1.00 20.82     0.140 A 
HETATM   17  F1    D T   1      20.041  10.677  10.382  1.00 22.79    -0.204 F 
HETATM   18  C8    D T   1      19.259   8.670   9.475  1.00 15.46     0.030 A 
BRANCH  14  19
HETATM   19  C48   D T   1      22.780  10.246   9.517  1.00 20.25     0.129 C 
BRANCH  19  20
HETATM   20  N51   D T   1      23.509   9.875  10.785  1.00 24.07    -0.361 N 
HETATM   21  C52   D T   1      23.331  10.855  11.904  1.00 22.40     0.130 C 
HETATM   22  C55   D T   1      24.082  10.447  13.199  1.00 27.40     0.166 C 
HETATM   23  O58   D T   1      25.452  10.115  12.896  1.00 26.30    -0.350 OA
HETATM   24  C59   D T   1      25.535   8.987  12.005  1.00 25.21     0.166 C 
HETATM   25  C62   D T   1      24.911   9.370  10.635  1.00 22.22     0.130 C 
ENDBRANCH  19  20
ENDBRANCH  14  19
ENDBRANCH   1  11
BRANCH   4  26
HETATM   26  C24   D T   1      16.527   9.212   4.871  1.00 15.92     0.059 A 
HETATM   27  C25   D T   1      15.911  10.414   5.043  1.00 18.01     0.098 A 
HETATM   28  N27   D T   1      16.248  11.164   4.023  1.00 18.37    -0.251 N 
HETATM   29  N28   D T   1      17.055  10.472   3.186  1.00 18.72    -0.168 NA
HETATM   30  C29   D T   1      17.274   9.297   3.616  1.00 18.29     0.123 A 
BRANCH  28  31
HETATM   31  C31   D T   1      15.866  12.528   3.676  1.00 23.01     0.110 C 
HETATM   32  C33   D T   1      14.339  12.729   3.920  1.00 23.05     0.063 C 
HETATM   33  C36   D T   1      13.884  14.169   3.571  1.00 27.20     0.292 C 
HETATM   34  N39   D T   1      14.755  15.119   4.296  1.00 30.30     0.339 N 
HETATM   35  C41   D T   1      16.192  15.048   3.910  1.00 26.52     0.292 C 
HETATM   36  C44   D T   1      16.750  13.642   4.300  1.00 29.21     0.063 C 
ENDBRANCH  28  31
ENDBRANCH   4  26
TORSDOF 5
ENDMDL
MODEL 4
REMARK VINA RESULT:      -7.0      3.345      6.585
REMARK  5 active torsions:
REMARK  status: ('A' for Active; 'I' for Inactive)
REMARK    1  A    between atoms: C3_3  and  C48_30 
REMARK    2  A    between atoms: C7_6  and  C10_8 
REMARK    3  A    between atoms: C13_11  and  C24_18 
REMARK    4  A    between atoms: N27_20  and  C31_23 
REMARK    5  A    between atoms: C48_30  and  N51_31 
ROOT
HETATM    1  C10   D T   1      20.989  10.659   9.453  1.00 15.48     0.019 A 
HETATM    2  C11   D T   1      20.759  11.636   8.466  1.00 17.77     0.099 A 
HETATM    3  N12   D T   1      19.558  11.729   7.813  1.00 14.42    -0.242 NA
HETATM    4  C13   D T   1      19.362  12.685   6.869  1.00 16.70     0.103 A 
HETATM    5  C14   D T   1      20.406  13.565   6.566  1.00 16.81     0.118 A 
HETATM    6  N16   D T   1      21.597  13.476   7.190  1.00 18.92    -0.241 NA
HETATM    7  C17   D T   1      21.795  12.535   8.141  1.00 19.63     0.099 A 
HETATM    8  C18   D T   1      23.042  12.469   8.784  1.00 16.22     0.021 A 
HETATM    9  C20   D T   1      23.266  11.490   9.759  1.00 16.47     0.002 A 
HETATM   10  C22   D T   1      22.240  10.593  10.101  1.00 11.45     0.002 A 
ENDROOT
BRANCH   1  11
HETATM   11  C7    D T   1      19.967   9.643   9.835  1.00 15.00     0.006 A 
HETATM   12  C5    D T   1      19.925   8.483   9.050  1.00 16.13     0.030 A 
HETATM   13  C4    D T   1      18.996   7.472   9.311  1.00 20.46     0.140 A 
HETATM   14  C3    D T   1      18.096   7.615  10.381  1.00 19.71     0.055 A 
HETATM   15  F47   D T   1      18.993   6.384   8.527  1.00 18.81    -0.204 F 
HETATM   16  C2    D T   1      18.132   8.790  11.158  1.00 20.82     0.140 A 
HETATM   17  F1    D T   1      17.302   8.974  12.187  1.00 22.79    -0.204 F 
HETATM   18  C8    D T   1      19.062   9.803  10.890  1.00 15.46     0.030 A 
BRANCH  14  19
HETATM   19  C48   D T   1      17.092   6.491  10.695  1.00 20.25     0.129 C 
BRANCH  19  20
HETATM   20  N51   D T   1      17.585   5.668  11.859  1.00 24.07    -0.361 N 
HETATM   21  C52   D T   1      18.400   4.475  11.465  1.00 22.40     0.130 C 
HETATM   22  C55   D T   1      18.903   3.650  12.679  1.00 27.40     0.166 C 
HETATM   23  O58   D T   1      17.811   3.369  13.577  1.00 26.30    -0.350 OA
HETATM   24  C59   D T   1      17.246   4.579  14.114  1.00 25.21     0.166 C 
HETATM   25  C62   D T   1      16.605   5.400  12.960  1.00 22.22     0.130 C 
ENDBRANCH  19  20
ENDBRANCH  14  19
ENDBRANCH   1  11
BRANCH   4  26
HETATM   26  C24   D T   1      18.011  12.777   6.184  1.00 15.92     0.059 A 
HETATM   27  C25   D T   1      17.447  11.993   5.223  1.00 18.01     0.098 A 
HETATM   28  N27   D T   1      16.264  12.494   4.968  1.00 18.37    -0.251 N 
HETATM   29  N28   D T   1      16.053  13.594   5.727  1.00 18.72    -0.168 NA
HETATM   30  C29   D T   1      17.045  13.834   6.483  1.00 18.29     0.123 A 
BRANCH  28  31
HETATM   31  C31   D T   1      15.239  12.079   4.017  1.00 23.01     0.110 C 
HETATM   32  C33   D T   1      14.765  10.631   4.347  1.00 23.05     0.063 C 
HETATM   33  C36   D T   1      13.668  10.146   3.366  1.00 27.20     0.292 C 
HETATM   34  N39   D T   1      12.589  11.156   3.340  1.00 30.30     0.339 N 
HETATM   35  C41   D T   1      13.015  12.492   2.836  1.00 26.52     0.292 C 
HETATM   36  C44   D T   1      14.074  13.087   3.817  1.00 29.21     0.063 C 
ENDBRANCH  28  31
ENDBRANCH   4  26
TORSDOF 5
ENDMDL
MODEL 5
REMARK VINA RESULT:      -6.9      2.126      6.677
REMARK  5 active torsions:
REMARK  status: ('A' for Active; 'I' for Inactive)
REMARK    1  A    between atoms: C3_3  and  C48_30 
REMARK    2  A    between atoms: C7_6  and  C10_8 
REMARK    3  A    between atoms: C13_11  and  C24_18 
REMARK    4  A    between atoms: N27_20  and  C31_23 
REMARK    5  A    between atoms: C48_30  and  N51_31 
ROOT
HETATM    1  C10   D T   1      17.405  13.195   5.231  1.00 15.48     0.019 A 
HETATM    2  C11   D T   1      16.680  12.043   4.871  1.00 17.77     0.099 A 
HETATM    3  N12   D T   1      16.958  10.818   5.418  1.00 14.42    -0.242 NA
HETATM    4  C13   D T   1      16.239   9.725   5.056  1.00 16.70     0.103 A 
HETATM    5  C14   D T   1      15.218   9.865   4.111  1.00 16.81     0.118 A 
HETATM    6  N16   D T   1      14.943  11.060   3.554  1.00 18.92    -0.241 NA
HETATM    7  C17   D T   1      15.646  12.156   3.918  1.00 19.63     0.099 A 
HETATM    8  C18   D T   1      15.334  13.393   3.330  1.00 16.22     0.021 A 
HETATM    9  C20   D T   1      16.064  14.533   3.687  1.00 16.47     0.002 A 
HETATM   10  C22   D T   1      17.090  14.437   4.642  1.00 11.45     0.002 A 
ENDROOT
BRANCH   1  11
HETATM   11  C7    D T   1      18.538  13.164   6.198  1.00 15.00     0.006 A 
HETATM   12  C5    D T   1      19.811  13.415   5.668  1.00 16.13     0.030 A 
HETATM   13  C4    D T   1      20.946  13.397   6.484  1.00 20.46     0.140 A 
HETATM   14  C3    D T   1      20.808  13.132   7.858  1.00 19.71     0.055 A 
HETATM   15  F47   D T   1      22.141  13.638   5.928  1.00 18.81    -0.204 F 
HETATM   16  C2    D T   1      19.528  12.865   8.383  1.00 20.82     0.140 A 
HETATM   17  F1    D T   1      19.344  12.612   9.681  1.00 22.79    -0.204 F 
HETATM   18  C8    D T   1      18.395  12.880   7.561  1.00 15.46     0.030 A 
BRANCH  14  19
HETATM   19  C48   D T   1      22.050  13.143   8.769  1.00 20.25     0.129 C 
BRANCH  19  20
HETATM   20  N51   D T   1      22.766  11.818   8.681  1.00 24.07    -0.361 N 
HETATM   21  C52   D T   1      22.109  10.713   9.450  1.00 22.40     0.130 C 
HETATM   22  C55   D T   1      22.860   9.360   9.337  1.00 27.40     0.166 C 
HETATM   23  O58   D T   1      24.262   9.543   9.617  1.00 26.30    -0.350 OA
HETATM   24  C59   D T   1      24.878  10.430   8.664  1.00 25.21     0.166 C 
HETATM   25  C62   D T   1      24.259  11.848   8.811  1.00 22.22     0.130 C 
ENDBRANCH  19  20
ENDBRANCH  14  19
ENDBRANCH   1  11
BRANCH   4  26
HETATM   26  C24   D T   1      16.556   8.389   5.703  1.00 15.92     0.059 A 
HETATM   27  C25   D T   1      17.415   8.073   6.712  1.00 18.01     0.098 A 
HETATM   28  N27   D T   1      17.323   6.780   6.901  1.00 18.37    -0.251 N 
HETATM   29  N28   D T   1      16.438   6.247   6.027  1.00 18.72    -0.168 NA
HETATM   30  C29   D T   1      15.932   7.137   5.276  1.00 18.29     0.123 A 
BRANCH  28  31
HETATM   31  C31   D T   1      18.024   5.900   7.828  1.00 23.01     0.110 C 
HETATM   32  C33   D T   1      18.947   4.923   7.038  1.00 23.05     0.063 C 
HETATM   33  C36   D T   1      19.721   3.969   7.983  1.00 27.20     0.292 C 
HETATM   34  N39   D T   1      20.416   4.787   8.999  1.00 30.30     0.339 N 
HETATM   35  C41   D T   1      19.506   5.572   9.880  1.00 26.52     0.292 C 
HETATM   36  C44   D T   1      18.738   6.615   9.008  1.00 29.21     0.063 C 
ENDBRANCH  28  31
ENDBRANCH   4  26
TORSDOF 5
ENDMDL
MODEL 6
REMARK VINA RESULT:      -6.9      2.595      6.221
REMARK  5 active torsions:
REMARK  status: ('A' for Active; 'I' for Inactive)
REMARK    1  A    between atoms: C3_3  and  C48_30 
REMARK    2  A    between atoms: C7_6  and  C10_8 
REMARK    3  A    between atoms: C13_11  and  C24_18 
REMARK    4  A    between atoms: N27_20  and  C31_23 
REMARK    5  A    between atoms: C48_30  and  N51_31 
ROOT
HETATM    1  C10   D T   1      21.673  11.345   9.178  1.00 15.48     0.019 A 
HETATM    2  C11   D T   1      21.311  12.247   8.159  1.00 17.77     0.099 A 
HETATM    3  N12   D T   1      20.131  12.123   7.474  1.00 14.42    -0.242 NA
HETATM    4  C13   D T   1      19.805  13.010   6.499  1.00 16.70     0.103 A 
HETATM    5  C14   D T   1      20.695  14.047   6.199  1.00 16.81     0.118 A 
HETATM    6  N16   D T   1      21.865  14.173   6.855  1.00 18.92    -0.241 NA
HETATM    7  C17   D T   1      22.191  13.301   7.835  1.00 19.63     0.099 A 
HETATM    8  C18   D T   1      23.412  13.460   8.511  1.00 16.22     0.021 A 
HETATM    9  C20   D T   1      23.769  12.555   9.517  1.00 16.47     0.002 A 
HETATM   10  C22   D T   1      22.898  11.506   9.857  1.00 11.45     0.002 A 
ENDROOT
BRANCH   1  11
HETATM   11  C7    D T   1      20.825  10.181   9.561  1.00 15.00     0.006 A 
HETATM   12  C5    D T   1      21.238   8.930   9.081  1.00 16.13     0.030 A 
HETATM   13  C4    D T   1      20.508   7.774   9.369  1.00 20.46     0.140 A 
HETATM   14  C3    D T   1      19.349   7.863  10.158  1.00 19.71     0.055 A 
HETATM   15  F47   D T   1      20.942   6.603   8.882  1.00 18.81    -0.204 F 
HETATM   16  C2    D T   1      18.929   9.124  10.626  1.00 20.82     0.140 A 
HETATM   17  F1    D T   1      17.838   9.262  11.382  1.00 22.79    -0.204 F 
HETATM   18  C8    D T   1      19.661  10.281  10.331  1.00 15.46     0.030 A 
BRANCH  14  19
HETATM   19  C48   D T   1      18.558   6.588  10.507  1.00 20.25     0.129 C 
BRANCH  19  20
HETATM   20  N51   D T   1      18.009   5.961   9.250  1.00 24.07    -0.361 N 
HETATM   21  C52   D T   1      17.380   6.936   8.303  1.00 22.40     0.130 C 
HETATM   22  C55   D T   1      16.831   6.268   7.014  1.00 27.40     0.166 C 
HETATM   23  O58   D T   1      16.007   5.135   7.353  1.00 26.30    -0.350 OA
HETATM   24  C59   D T   1      16.763   4.123   8.045  1.00 25.21     0.166 C 
HETATM   25  C62   D T   1      17.239   4.686   9.412  1.00 22.22     0.130 C 
ENDBRANCH  19  20
ENDBRANCH  14  19
ENDBRANCH   1  11
BRANCH   4  26
HETATM   26  C24   D T   1      18.478  12.858   5.779  1.00 15.92     0.059 A 
HETATM   27  C25   D T   1      17.889  13.637   4.829  1.00 18.01     0.098 A 
HETATM   28  N27   D T   1      16.744  13.075   4.532  1.00 18.37    -0.251 N 
HETATM   29  N28   D T   1      16.568  11.959   5.277  1.00 18.72    -0.168 NA
HETATM   30  C29   D T   1      17.556  11.755   6.049  1.00 18.29     0.123 A 
BRANCH  28  31
HETATM   31  C31   D T   1      15.696  13.482   3.603  1.00 23.01     0.110 C 
HETATM   32  C33   D T   1      14.332  12.864   4.039  1.00 23.05     0.063 C 
HETATM   33  C36   D T   1      13.182  13.274   3.085  1.00 27.20     0.292 C 
HETATM   34  N39   D T   1      13.181  14.747   2.966  1.00 30.30     0.339 N 
HETATM   35  C41   D T   1      14.421  15.313   2.366  1.00 26.52     0.292 C 
HETATM   36  C44   D T   1      15.625  15.006   3.311  1.00 29.21     0.063 C 
ENDBRANCH  28  31
ENDBRANCH   4  26
TORSDOF 5
ENDMDL
MODEL 7
REMARK VINA RESULT:      -6.7      3.058      7.567
REMARK  5 active torsions:
REMARK  status: ('A' for Active; 'I' for Inactive)
REMARK    1  A    between atoms: C3_3  and  C48_30 
REMARK    2  A    between atoms: C7_6  and  C10_8 
REMARK    3  A    between atoms: C13_11  and  C24_18 
REMARK    4  A    between atoms: N27_20  and  C31_23 
REMARK    5  A    between atoms: C48_30  and  N51_31 
ROOT
HETATM    1  C10   D T   1      15.554   9.746   4.606  1.00 15.48     0.019 A 
HETATM    2  C11   D T   1      16.152  11.019   4.677  1.00 17.77     0.099 A 
HETATM    3  N12   D T   1      17.259  11.252   5.450  1.00 14.42    -0.242 NA
HETATM    4  C13   D T   1      17.818  12.488   5.494  1.00 16.70     0.103 A 
HETATM    5  C14   D T   1      17.243  13.521   4.748  1.00 16.81     0.118 A 
HETATM    6  N16   D T   1      16.147  13.310   3.995  1.00 18.92    -0.241 NA
HETATM    7  C17   D T   1      15.591  12.079   3.935  1.00 19.63     0.099 A 
HETATM    8  C18   D T   1      14.454  11.883   3.134  1.00 16.22     0.021 A 
HETATM    9  C20   D T   1      13.859  10.617   3.075  1.00 16.47     0.002 A 
HETATM   10  C22   D T   1      14.413   9.549   3.801  1.00 11.45     0.002 A 
ENDROOT
BRANCH   1  11
HETATM   11  C7    D T   1      16.053   8.578   5.384  1.00 15.00     0.006 A 
HETATM   12  C5    D T   1      15.228   7.445   5.399  1.00 16.13     0.030 A 
HETATM   13  C4    D T   1      15.593   6.298   6.108  1.00 20.46     0.140 A 
HETATM   14  C3    D T   1      16.810   6.275   6.811  1.00 19.71     0.055 A 
HETATM   15  F47   D T   1      14.765   5.244   6.095  1.00 18.81    -0.204 F 
HETATM   16  C2    D T   1      17.630   7.421   6.806  1.00 20.82     0.140 A 
HETATM   17  F1    D T   1      18.797   7.449   7.454  1.00 22.79    -0.204 F 
HETATM   18  C8    D T   1      17.257   8.570   6.097  1.00 15.46     0.030 A 
BRANCH  14  19
HETATM   19  C48   D T   1      17.235   5.004   7.568  1.00 20.25     0.129 C 
BRANCH  19  20
HETATM   20  N51   D T   1      17.744   5.366   8.941  1.00 24.07    -0.361 N 
HETATM   21  C52   D T   1      18.960   4.601   9.366  1.00 22.40     0.130 C 
HETATM   22  C55   D T   1      19.470   4.997  10.777  1.00 27.40     0.166 C 
HETATM   23  O58   D T   1      18.381   4.979  11.722  1.00 26.30    -0.350 OA
HETATM   24  C59   D T   1      17.365   5.938  11.373  1.00 25.21     0.166 C 
HETATM   25  C62   D T   1      16.718   5.528  10.021  1.00 22.22     0.130 C 
ENDBRANCH  19  20
ENDBRANCH  14  19
ENDBRANCH   1  11
BRANCH   4  26
HETATM   26  C24   D T   1      19.060  12.703   6.340  1.00 15.92     0.059 A 
HETATM   27  C25   D T   1      20.138  13.512   6.144  1.00 18.01     0.098 A 
HETATM   28  N27   D T   1      20.941  13.333   7.164  1.00 18.37    -0.251 N 
HETATM   29  N28   D T   1      20.417  12.414   8.008  1.00 18.72    -0.168 NA
HETATM   30  C29   D T   1      19.295  11.987   7.594  1.00 18.29     0.123 A 
BRANCH  28  31
HETATM   31  C31   D T   1      22.242  13.916   7.466  1.00 23.01     0.110 C 
HETATM   32  C33   D T   1      22.062  15.169   8.377  1.00 23.05     0.063 C 
HETATM   33  C36   D T   1      23.422  15.823   8.733  1.00 27.20     0.292 C 
HETATM   34  N39   D T   1      24.308  14.778   9.289  1.00 30.30     0.339 N 
HETATM   35  C41   D T   1      24.629  13.678   8.337  1.00 26.52     0.292 C 
HETATM   36  C44   D T   1      23.312  12.917   7.983  1.00 29.21     0.063 C 
ENDBRANCH  28  31
ENDBRANCH   4  26
TORSDOF 5
ENDMDL
MODEL 8
REMARK VINA RESULT:      -6.5      3.086      7.531
REMARK  5 active torsions:
REMARK  status: ('A' for Active; 'I' for Inactive)
REMARK    1  A    between atoms: C3_3  and  C48_30 
REMARK    2  A    between atoms: C7_6  and  C10_8 
REMARK    3  A    between atoms: C13_11  and  C24_18 
REMARK    4  A    between atoms: N27_20  and  C31_23 
REMARK    5  A    between atoms: C48_30  and  N51_31 
ROOT
HETATM    1  C10   D T   1      16.495   7.649   6.186  1.00 15.48     0.019 A 
HETATM    2  C11   D T   1      17.387   7.421   7.252  1.00 17.77     0.099 A 
HETATM    3  N12   D T   1      18.289   8.371   7.650  1.00 14.42    -0.242 NA
HETATM    4  C13   D T   1      19.134   8.126   8.685  1.00 16.70     0.103 A 
HETATM    5  C14   D T   1      19.075   6.886   9.330  1.00 16.81     0.118 A 
HETATM    6  N16   D T   1      18.203   5.938   8.940  1.00 18.92    -0.241 NA
HETATM    7  C17   D T   1      17.350   6.179   7.919  1.00 19.63     0.099 A 
HETATM    8  C18   D T   1      16.442   5.177   7.537  1.00 16.22     0.021 A 
HETATM    9  C20   D T   1      15.565   5.408   6.472  1.00 16.47     0.002 A 
HETATM   10  C22   D T   1      15.583   6.644   5.804  1.00 11.45     0.002 A 
ENDROOT
BRANCH   1  11
HETATM   11  C7    D T   1      16.489   8.914   5.399  1.00 15.00     0.006 A 
HETATM   12  C5    D T   1      15.849  10.010   5.994  1.00 16.13     0.030 A 
HETATM   13  C4    D T   1      15.772  11.241   5.337  1.00 20.46     0.140 A 
HETATM   14  C3    D T   1      16.352  11.387   4.065  1.00 19.71     0.055 A 
HETATM   15  F47   D T   1      15.144  12.256   5.947  1.00 18.81    -0.204 F 
HETATM   16  C2    D T   1      16.982  10.279   3.465  1.00 20.82     0.140 A 
HETATM   17  F1    D T   1      17.551  10.366   2.261  1.00 22.79    -0.204 F 
HETATM   18  C8    D T   1      17.052   9.045   4.124  1.00 15.46     0.030 A 
BRANCH  14  19
HETATM   19  C48   D T   1      16.300  12.749   3.350  1.00 20.25     0.129 C 
BRANCH  19  20
HETATM   20  N51   D T   1      14.870  13.212   3.223  1.00 24.07    -0.361 N 
HETATM   21  C52   D T   1      13.915  12.141   2.794  1.00 22.40     0.130 C 
HETATM   22  C55   D T   1      12.450  12.638   2.679  1.00 27.40     0.166 C 
HETATM   23  O58   D T   1      12.395  13.848   1.897  1.00 26.30    -0.350 OA
HETATM   24  C59   D T   1      13.138  14.913   2.521  1.00 25.21     0.166 C 
HETATM   25  C62   D T   1      14.644  14.533   2.554  1.00 22.22     0.130 C 
ENDBRANCH  19  20
ENDBRANCH  14  19
ENDBRANCH   1  11
BRANCH   4  26
HETATM   26  C24   D T   1      20.103   9.212   9.117  1.00 15.92     0.059 A 
HETATM   27  C25   D T   1      20.177  10.526   8.766  1.00 18.01     0.098 A 
HETATM   28  N27   D T   1      21.194  11.037   9.415  1.00 18.37    -0.251 N 
HETATM   29  N28   D T   1      21.791  10.082  10.164  1.00 18.72    -0.168 NA
HETATM   30  C29   D T   1      21.204   8.962  10.047  1.00 18.29     0.123 A 
BRANCH  28  31
HETATM   31  C31   D T   1      21.749  12.385   9.405  1.00 23.01     0.110 C 
HETATM   32  C33   D T   1      23.283  12.324   9.133  1.00 23.05     0.063 C 
HETATM   33  C36   D T   1      23.921  13.736   9.107  1.00 27.20     0.292 C 
HETATM   34  N39   D T   1      23.159  14.572   8.155  1.00 30.30     0.339 N 
HETATM   35  C41   D T   1      21.733  14.782   8.532  1.00 26.52     0.292 C 
HETATM   36  C44   D T   1      20.996  13.405   8.509  1.00 29.21     0.063 C 
ENDBRANCH  28  31
ENDBRANCH   4  26
TORSDOF 5
ENDMDL
MODEL 9
REMARK VINA RESULT:      -6.5      1.862      2.265
REMARK  5 active torsions:
REMARK  status: ('A' for Active; 'I' for Inactive)
REMARK    1  A    between atoms: C3_3  and  C48_30 
REMARK    2  A    between atoms: C7_6  and  C10_8 
REMARK    3  A    between atoms: C13_11  and  C24_18 
REMARK    4  A    between atoms: N27_20  and  C31_23 
REMARK    5  A    between atoms: C48_30  and  N51_31 
ROOT
HETATM    1  C10   D T   1      19.096   7.372   8.908  1.00 15.48     0.019 A 
HETATM    2  C11   D T   1      18.096   7.151   7.941  1.00 17.77     0.099 A 
HETATM    3  N12   D T   1      17.775   8.103   7.009  1.00 14.42    -0.242 NA
HETATM    4  C13   D T   1      16.810   7.861   6.085  1.00 16.70     0.103 A 
HETATM    5  C14   D T   1      16.142   6.633   6.106  1.00 16.81     0.118 A 
HETATM    6  N16   D T   1      16.437   5.694   7.025  1.00 18.92    -0.241 NA
HETATM    7  C17   D T   1      17.406   5.922   7.941  1.00 19.63     0.099 A 
HETATM    8  C18   D T   1      17.702   4.923   8.883  1.00 16.22     0.021 A 
HETATM    9  C20   D T   1      18.692   5.151   9.845  1.00 16.47     0.002 A 
HETATM   10  C22   D T   1      19.394   6.368   9.853  1.00 11.45     0.002 A 
ENDROOT
BRANCH   1  11
HETATM   11  C7    D T   1      19.850   8.653   9.009  1.00 15.00     0.006 A 
HETATM   12  C5    D T   1      21.247   8.554   8.968  1.00 16.13     0.030 A 
HETATM   13  C4    D T   1      22.052   9.692   9.069  1.00 20.46     0.140 A 
HETATM   14  C3    D T   1      21.452  10.956   9.205  1.00 19.71     0.055 A 
HETATM   15  F47   D T   1      23.383   9.543   9.031  1.00 18.81    -0.204 F 
HETATM   16  C2    D T   1      20.047  11.050   9.260  1.00 20.82     0.140 A 
HETATM   17  F1    D T   1      19.429  12.226   9.383  1.00 22.79    -0.204 F 
HETATM   18  C8    D T   1      19.245   9.906   9.163  1.00 15.46     0.030 A 
BRANCH  14  19
HETATM   19  C48   D T   1      22.331  12.218   9.283  1.00 20.25     0.129 C 
BRANCH  19  20
HETATM   20  N51   D T   1      22.432  12.689  10.713  1.00 24.07    -0.361 N 
HETATM   21  C52   D T   1      22.350  11.590  11.727  1.00 22.40     0.130 C 
HETATM   22  C55   D T   1      22.466  12.098  13.189  1.00 27.40     0.166 C 
HETATM   23  O58   D T   1      21.556  13.195  13.408  1.00 26.30    -0.350 OA
HETATM   24  C59   D T   1      21.870  14.317  12.561  1.00 25.21     0.166 C 
HETATM   25  C62   D T   1      21.651  13.914  11.077  1.00 22.22     0.130 C 
ENDBRANCH  19  20
ENDBRANCH  14  19
ENDBRANCH   1  11
BRANCH   4  26
HETATM   26  C24   D T   1      16.499   8.928   5.050  1.00 15.92     0.059 A 
HETATM   27  C25   D T   1      15.540   9.895   5.033  1.00 18.01     0.098 A 
HETATM   28  N27   D T   1      15.691  10.561   3.915  1.00 18.37    -0.251 N 
HETATM   29  N28   D T   1      16.713  10.038   3.199  1.00 18.72    -0.168 NA
HETATM   30  C29   D T   1      17.252   9.060   3.803  1.00 18.29     0.123 A 
BRANCH  28  31
HETATM   31  C31   D T   1      14.935  11.679   3.363  1.00 23.01     0.110 C 
HETATM   32  C33   D T   1      13.419  11.317   3.306  1.00 23.05     0.063 C 
HETATM   33  C36   D T   1      12.570  12.479   2.731  1.00 27.20     0.292 C 
HETATM   34  N39   D T   1      12.883  13.705   3.496  1.00 30.30     0.339 N 
HETATM   35  C41   D T   1      14.301  14.150   3.385  1.00 26.52     0.292 C 
HETATM   36  C44   D T   1      15.223  13.059   4.014  1.00 29.21     0.063 C 
ENDBRANCH  28  31
ENDBRANCH   4  26
TORSDOF 5
ENDMDL
