MODEL 1
REMARK VINA RESULT:    -8.041      0.000      0.000
REMARK INTER + INTRA:         -11.692
REMARK INTER:                 -10.391
REMARK INTRA:                  -1.301
REMARK UNBOUND:                -1.301
REMARK  5 active torsions:
REMARK  status: ('A' for Active; 'I' for Inactive)
REMARK    1  A    between atoms: C3_3  and  C48_30 
REMARK    2  A    between atoms: C7_6  and  C10_8 
REMARK    3  A    between atoms: C13_11  and  C24_18 
REMARK    4  A    between atoms: N27_20  and  C31_23 
REMARK    5  A    between atoms: C48_30  and  N51_31 
ROOT
HETATM    1  C10   D T   1      18.384   6.549   8.546  1.00 15.48     0.019 A 
HETATM    2  C11   D T   1      17.437   6.700   7.514  1.00 17.77     0.099 A 
HETATM    3  N12   D T   1      17.408   7.818   6.724  1.00 14.42    -0.242 NA
HETATM    4  C13   D T   1      16.487   7.935   5.733  1.00 16.70     0.103 A 
HETATM    5  C14   D T   1      15.564   6.902   5.538  1.00 16.81     0.118 A 
HETATM    6  N16   D T   1      15.573   5.803   6.317  1.00 18.92    -0.241 NA
HETATM    7  C17   D T   1      16.494   5.674   7.298  1.00 19.63     0.099 A 
HETATM    8  C18   D T   1      16.489   4.514   8.090  1.00 16.22     0.021 A 
HETATM    9  C20   D T   1      17.428   4.374   9.118  1.00 16.47     0.002 A 
HETATM   10  C22   D T   1      18.380   5.384   9.340  1.00 11.45     0.002 A 
ENDROOT
BRANCH   1  11
HETATM   11  C7    D T   1      19.392   7.596   8.873  1.00 15.00     0.006 A 
HETATM   12  C5    D T   1      18.921   8.709   9.583  1.00 16.13     0.030 A 
HETATM   13  C4    D T   1      19.778   9.757   9.930  1.00 20.46     0.140 A 
HETATM   14  C3    D T   1      21.135   9.691   9.570  1.00 19.71     0.055 A 
HETATM   15  F47   D T   1      19.276  10.802  10.603  1.00 18.81    -0.204 F 
HETATM   16  C2    D T   1      21.602   8.577   8.844  1.00 20.82     0.140 A 
HETATM   17  F1    D T   1      22.882   8.465   8.482  1.00 22.79    -0.204 F 
HETATM   18  C8    D T   1      20.738   7.532   8.494  1.00 15.46     0.030 A 
BRANCH  14  19
HETATM   19  C48   D T   1      22.093  10.826   9.977  1.00 20.25     0.129 C 
BRANCH  19  20
HETATM   20  N51   D T   1      22.379  11.711   8.789  1.00 24.07    -0.361 N 
HETATM   21  C52   D T   1      23.803  12.166   8.693  1.00 22.40     0.130 C 
HETATM   22  C55   D T   1      24.075  13.067   7.459  1.00 27.40     0.166 C 
HETATM   23  O58   D T   1      23.095  14.122   7.388  1.00 26.30    -0.350 OA
HETATM   24  C59   D T   1      21.765  13.595   7.221  1.00 25.21     0.166 C 
HETATM   25  C62   D T   1      21.376  12.781   8.487  1.00 22.22     0.130 C 
ENDBRANCH  19  20
ENDBRANCH  14  19
ENDBRANCH   1  11
BRANCH   4  26
HETATM   26  C24   D T   1      16.500   9.176   4.859  1.00 15.92     0.059 A 
HETATM   27  C25   D T   1      15.794  10.336   4.955  1.00 18.01     0.098 A 
HETATM   28  N27   D T   1      16.168  11.094   3.953  1.00 18.37    -0.251 N 
HETATM   29  N28   D T   1      17.087  10.446   3.201  1.00 18.72    -0.168 NA
HETATM   30  C29   D T   1      17.344   9.294   3.670  1.00 18.29     0.123 A 
BRANCH  28  31
HETATM   31  C31   D T   1      15.729  12.424   3.550  1.00 23.01     0.110 C 
HETATM   32  C33   D T   1      14.226  12.621   3.918  1.00 23.05     0.063 C 
HETATM   33  C36   D T   1      13.713  14.027   3.514  1.00 27.20     0.292 C 
HETATM   34  N39   D T   1      14.626  15.037   4.089  1.00 30.30     0.339 N 
HETATM   35  C41   D T   1      16.024  14.959   3.579  1.00 26.52     0.292 C 
HETATM   36  C44   D T   1      16.643  13.592   4.012  1.00 29.21     0.063 C 
ENDBRANCH  28  31
ENDBRANCH   4  26
TORSDOF 5
ENDMDL
MODEL 2
REMARK VINA RESULT:    -7.379      2.326      6.832
REMARK INTER + INTRA:         -10.837
REMARK INTER:                  -9.713
REMARK INTRA:                  -1.124
REMARK UNBOUND:                -1.301
REMARK  5 active torsions:
REMARK  status: ('A' for Active; 'I' for Inactive)
REMARK    1  A    between atoms: C3_3  and  C48_30 
REMARK    2  A    between atoms: C7_6  and  C10_8 
REMARK    3  A    between atoms: C13_11  and  C24_18 
REMARK    4  A    between atoms: N27_20  and  C31_23 
REMARK    5  A    between atoms: C48_30  and  N51_31 
ROOT
HETATM    1  C10   D T   1      17.149  13.272   4.990  1.00 15.48     0.019 A 
HETATM    2  C11   D T   1      16.395  12.127   4.667  1.00 17.77     0.099 A 
HETATM    3  N12   D T   1      16.677  10.903   5.214  1.00 14.42    -0.242 NA
HETATM    4  C13   D T   1      15.930   9.817   4.889  1.00 16.70     0.103 A 
HETATM    5  C14   D T   1      14.877   9.964   3.981  1.00 16.81     0.118 A 
HETATM    6  N16   D T   1      14.597  11.158   3.424  1.00 18.92    -0.241 NA
HETATM    7  C17   D T   1      15.328  12.247   3.753  1.00 19.63     0.099 A 
HETATM    8  C18   D T   1      15.010  13.483   3.166  1.00 16.22     0.021 A 
HETATM    9  C20   D T   1      15.768  14.616   3.485  1.00 16.47     0.002 A 
HETATM   10  C22   D T   1      16.829  14.514   4.402  1.00 11.45     0.002 A 
ENDROOT
BRANCH   1  11
HETATM   11  C7    D T   1      18.316  13.233   5.914  1.00 15.00     0.006 A 
HETATM   12  C5    D T   1      19.542  13.655   5.381  1.00 16.13     0.030 A 
HETATM   13  C4    D T   1      20.705  13.646   6.157  1.00 20.46     0.140 A 
HETATM   14  C3    D T   1      20.643  13.217   7.494  1.00 19.71     0.055 A 
HETATM   15  F47   D T   1      21.853  14.054   5.599  1.00 18.81    -0.204 F 
HETATM   16  C2    D T   1      19.412  12.780   8.022  1.00 20.82     0.140 A 
HETATM   17  F1    D T   1      19.300  12.366   9.285  1.00 22.79    -0.204 F 
HETATM   18  C8    D T   1      18.251  12.786   7.239  1.00 15.46     0.030 A 
BRANCH  14  19
HETATM   19  C48   D T   1      21.913  13.235   8.365  1.00 20.25     0.129 C 
BRANCH  19  20
HETATM   20  N51   D T   1      22.117  14.610   8.951  1.00 24.07    -0.361 N 
HETATM   21  C52   D T   1      23.399  15.268   8.542  1.00 22.40     0.130 C 
HETATM   22  C55   D T   1      23.582  16.684   9.150  1.00 27.40     0.166 C 
HETATM   23  O58   D T   1      23.345  16.648  10.572  1.00 26.30    -0.350 OA
HETATM   24  C59   D T   1      21.995  16.248  10.871  1.00 25.21     0.166 C 
HETATM   25  C62   D T   1      21.779  14.783  10.401  1.00 22.22     0.130 C 
ENDBRANCH  19  20
ENDBRANCH  14  19
ENDBRANCH   1  11
BRANCH   4  26
HETATM   26  C24   D T   1      16.254   8.482   5.535  1.00 15.92     0.059 A 
HETATM   27  C25   D T   1      17.073   8.177   6.579  1.00 18.01     0.098 A 
HETATM   28  N27   D T   1      17.008   6.879   6.749  1.00 18.37    -0.251 N 
HETATM   29  N28   D T   1      16.179   6.334   5.829  1.00 18.72    -0.168 NA
HETATM   30  C29   D T   1      15.685   7.219   5.065  1.00 18.29     0.123 A 
BRANCH  28  31
HETATM   31  C31   D T   1      17.689   6.008   7.699  1.00 23.01     0.110 C 
HETATM   32  C33   D T   1      17.720   6.678   9.106  1.00 23.05     0.063 C 
HETATM   33  C36   D T   1      18.430   5.785  10.155  1.00 27.20     0.292 C 
HETATM   34  N39   D T   1      17.804   4.446  10.124  1.00 30.30     0.339 N 
HETATM   35  C41   D T   1      17.951   3.732   8.824  1.00 26.52     0.292 C 
HETATM   36  C44   D T   1      17.194   4.535   7.719  1.00 29.21     0.063 C 
ENDBRANCH  28  31
ENDBRANCH   4  26
TORSDOF 5
ENDMDL
MODEL 3
REMARK VINA RESULT:    -7.227      2.054      6.861
REMARK INTER + INTRA:         -10.641
REMARK INTER:                  -9.228
REMARK INTRA:                  -1.413
REMARK UNBOUND:                -1.301
REMARK  5 active torsions:
REMARK  status: ('A' for Active; 'I' for Inactive)
REMARK    1  A    between atoms: C3_3  and  C48_30 
REMARK    2  A    between atoms: C7_6  and  C10_8 
REMARK    3  A    between atoms: C13_11  and  C24_18 
REMARK    4  A    between atoms: N27_20  and  C31_23 
REMARK    5  A    between atoms: C48_30  and  N51_31 
ROOT
HETATM    1  C10   D T   1      17.116  13.448   5.052  1.00 15.48     0.019 A 
HETATM    2  C11   D T   1      16.400  12.287   4.702  1.00 17.77     0.099 A 
HETATM    3  N12   D T   1      16.700  11.066   5.246  1.00 14.42    -0.242 NA
HETATM    4  C13   D T   1      15.989   9.964   4.895  1.00 16.70     0.103 A 
HETATM    5  C14   D T   1      14.954  10.091   3.963  1.00 16.81     0.118 A 
HETATM    6  N16   D T   1      14.657  11.283   3.410  1.00 18.92    -0.241 NA
HETATM    7  C17   D T   1      15.352  12.387   3.764  1.00 19.63     0.099 A 
HETATM    8  C18   D T   1      15.016  13.620   3.180  1.00 16.22     0.021 A 
HETATM    9  C20   D T   1      15.737  14.769   3.527  1.00 16.47     0.002 A 
HETATM   10  C22   D T   1      16.778  14.686   4.467  1.00 11.45     0.002 A 
ENDROOT
BRANCH   1  11
HETATM   11  C7    D T   1      18.262  13.430   6.004  1.00 15.00     0.006 A 
HETATM   12  C5    D T   1      19.542  13.426   5.431  1.00 16.13     0.030 A 
HETATM   13  C4    D T   1      20.687  13.397   6.232  1.00 20.46     0.140 A 
HETATM   14  C3    D T   1      20.556  13.380   7.631  1.00 19.71     0.055 A 
HETATM   15  F47   D T   1      21.888  13.388   5.635  1.00 18.81    -0.204 F 
HETATM   16  C2    D T   1      19.268  13.369   8.202  1.00 20.82     0.140 A 
HETATM   17  F1    D T   1      19.089  13.357   9.524  1.00 22.79    -0.204 F 
HETATM   18  C8    D T   1      18.123  13.394   7.396  1.00 15.46     0.030 A 
BRANCH  14  19
HETATM   19  C48   D T   1      21.814  13.380   8.519  1.00 20.25     0.129 C 
BRANCH  19  20
HETATM   20  N51   D T   1      22.403  11.993   8.580  1.00 24.07    -0.361 N 
HETATM   21  C52   D T   1      21.535  10.988   9.271  1.00 22.40     0.130 C 
HETATM   22  C55   D T   1      22.159   9.567   9.314  1.00 27.40     0.166 C 
HETATM   23  O58   D T   1      23.515   9.634   9.800  1.00 26.30    -0.350 OA
HETATM   24  C59   D T   1      24.349  10.419   8.927  1.00 25.21     0.166 C 
HETATM   25  C62   D T   1      23.855  11.892   8.936  1.00 22.22     0.130 C 
ENDBRANCH  19  20
ENDBRANCH  14  19
ENDBRANCH   1  11
BRANCH   4  26
HETATM   26  C24   D T   1      16.331   8.632   5.538  1.00 15.92     0.059 A 
HETATM   27  C25   D T   1      17.135   8.338   6.597  1.00 18.01     0.098 A 
HETATM   28  N27   D T   1      17.099   7.038   6.755  1.00 18.37    -0.251 N 
HETATM   29  N28   D T   1      16.303   6.480   5.814  1.00 18.72    -0.168 NA
HETATM   30  C29   D T   1      15.804   7.359   5.045  1.00 18.29     0.123 A 
BRANCH  28  31
HETATM   31  C31   D T   1      17.780   6.176   7.713  1.00 23.01     0.110 C 
HETATM   32  C33   D T   1      17.885   6.894   9.092  1.00 23.05     0.063 C 
HETATM   33  C36   D T   1      18.599   6.012  10.149  1.00 27.20     0.292 C 
HETATM   34  N39   D T   1      17.924   4.697  10.188  1.00 30.30     0.339 N 
HETATM   35  C41   D T   1      17.999   3.933   8.911  1.00 26.52     0.292 C 
HETATM   36  C44   D T   1      17.233   4.725   7.804  1.00 29.21     0.063 C 
ENDBRANCH  28  31
ENDBRANCH   4  26
TORSDOF 5
ENDMDL
MODEL 4
REMARK VINA RESULT:    -7.226      3.261      8.839
REMARK INTER + INTRA:         -10.639
REMARK INTER:                  -9.674
REMARK INTRA:                  -0.965
REMARK UNBOUND:                -1.301
REMARK  5 active torsions:
REMARK  status: ('A' for Active; 'I' for Inactive)
REMARK    1  A    between atoms: C3_3  and  C48_30 
REMARK    2  A    between atoms: C7_6  and  C10_8 
REMARK    3  A    between atoms: C13_11  and  C24_18 
REMARK    4  A    between atoms: N27_20  and  C31_23 
REMARK    5  A    between atoms: C48_30  and  N51_31 
ROOT
HETATM    1  C10   D T   1      19.846  12.981   6.784  1.00 15.48     0.019 A 
HETATM    2  C11   D T   1      20.314  12.127   7.802  1.00 17.77     0.099 A 
HETATM    3  N12   D T   1      19.552  11.093   8.278  1.00 14.42    -0.242 NA
HETATM    4  C13   D T   1      20.030  10.281   9.256  1.00 16.70     0.103 A 
HETATM    5  C14   D T   1      21.306  10.522   9.775  1.00 16.81     0.118 A 
HETATM    6  N16   D T   1      22.060  11.544   9.326  1.00 18.92    -0.241 NA
HETATM    7  C17   D T   1      21.596  12.349   8.344  1.00 19.63     0.099 A 
HETATM    8  C18   D T   1      22.406  13.402   7.886  1.00 16.22     0.021 A 
HETATM    9  C20   D T   1      21.931  14.252   6.880  1.00 16.47     0.002 A 
HETATM   10  C22   D T   1      20.659  14.037   6.323  1.00 11.45     0.002 A 
ENDROOT
BRANCH   1  11
HETATM   11  C7    D T   1      18.490  12.847   6.180  1.00 15.00     0.006 A 
HETATM   12  C5    D T   1      17.509  13.725   6.659  1.00 16.13     0.030 A 
HETATM   13  C4    D T   1      16.200  13.677   6.171  1.00 20.46     0.140 A 
HETATM   14  C3    D T   1      15.864  12.740   5.179  1.00 19.71     0.055 A 
HETATM   15  F47   D T   1      15.298  14.535   6.668  1.00 18.81    -0.204 F 
HETATM   16  C2    D T   1      16.850  11.849   4.710  1.00 20.82     0.140 A 
HETATM   17  F1    D T   1      16.583  10.944   3.766  1.00 22.79    -0.204 F 
HETATM   18  C8    D T   1      18.159  11.899   5.206  1.00 15.46     0.030 A 
BRANCH  14  19
HETATM   19  C48   D T   1      14.433  12.703   4.613  1.00 20.25     0.129 C 
BRANCH  19  20
HETATM   20  N51   D T   1      14.057  14.059   4.071  1.00 24.07    -0.361 N 
HETATM   21  C52   D T   1      12.652  14.147   3.558  1.00 22.40     0.130 C 
HETATM   22  C55   D T   1      12.286  15.553   3.014  1.00 27.40     0.166 C 
HETATM   23  O58   D T   1      13.297  16.009   2.092  1.00 26.30    -0.350 OA
HETATM   24  C59   D T   1      14.577  16.143   2.739  1.00 25.21     0.166 C 
HETATM   25  C62   D T   1      15.067  14.742   3.200  1.00 22.22     0.130 C 
ENDBRANCH  19  20
ENDBRANCH  14  19
ENDBRANCH   1  11
BRANCH   4  26
HETATM   26  C24   D T   1      19.170   9.128   9.741  1.00 15.92     0.059 A 
HETATM   27  C25   D T   1      18.806   7.971   9.122  1.00 18.01     0.098 A 
HETATM   28  N27   D T   1      18.055   7.307   9.965  1.00 18.37    -0.251 N 
HETATM   29  N28   D T   1      17.910   8.013  11.110  1.00 18.72    -0.168 NA
HETATM   30  C29   D T   1      18.543   9.113  11.063  1.00 18.29     0.123 A 
BRANCH  28  31
HETATM   31  C31   D T   1      17.374   6.025   9.829  1.00 23.01     0.110 C 
HETATM   32  C33   D T   1      16.953   5.803   8.345  1.00 23.05     0.063 C 
HETATM   33  C36   D T   1      16.229   4.447   8.147  1.00 27.20     0.292 C 
HETATM   34  N39   D T   1      17.081   3.380   8.712  1.00 30.30     0.339 N 
HETATM   35  C41   D T   1      17.317   3.498  10.179  1.00 26.52     0.292 C 
HETATM   36  C44   D T   1      18.114   4.812  10.457  1.00 29.21     0.063 C 
ENDBRANCH  28  31
ENDBRANCH   4  26
TORSDOF 5
ENDMDL
MODEL 5
REMARK VINA RESULT:    -7.141      3.919      6.706
REMARK INTER + INTRA:         -10.529
REMARK INTER:                  -9.249
REMARK INTRA:                  -1.280
REMARK UNBOUND:                -1.301
REMARK  5 active torsions:
REMARK  status: ('A' for Active; 'I' for Inactive)
REMARK    1  A    between atoms: C3_3  and  C48_30 
REMARK    2  A    between atoms: C7_6  and  C10_8 
REMARK    3  A    between atoms: C13_11  and  C24_18 
REMARK    4  A    between atoms: N27_20  and  C31_23 
REMARK    5  A    between atoms: C48_30  and  N51_31 
ROOT
HETATM    1  C10   D T   1      20.943  11.947   9.452  1.00 15.48     0.019 A 
HETATM    2  C11   D T   1      20.591  12.523   8.216  1.00 17.77     0.099 A 
HETATM    3  N12   D T   1      19.299  12.516   7.762  1.00 14.42    -0.242 NA
HETATM    4  C13   D T   1      18.986  13.084   6.569  1.00 16.70     0.103 A 
HETATM    5  C14   D T   1      20.004  13.668   5.807  1.00 16.81     0.118 A 
HETATM    6  N16   D T   1      21.281  13.670   6.236  1.00 18.92    -0.241 NA
HETATM    7  C17   D T   1      21.598  13.117   7.428  1.00 19.63     0.099 A 
HETATM    8  C18   D T   1      22.935  13.141   7.857  1.00 16.22     0.021 A 
HETATM    9  C20   D T   1      23.280  12.560   9.082  1.00 16.47     0.002 A 
HETATM   10  C22   D T   1      22.285  11.972   9.883  1.00 11.45     0.002 A 
ENDROOT
BRANCH   1  11
HETATM   11  C7    D T   1      19.954  11.264  10.333  1.00 15.00     0.006 A 
HETATM   12  C5    D T   1      19.455  12.017  11.404  1.00 16.13     0.030 A 
HETATM   13  C4    D T   1      18.533  11.469  12.300  1.00 20.46     0.140 A 
HETATM   14  C3    D T   1      18.092  10.147  12.121  1.00 19.71     0.055 A 
HETATM   15  F47   D T   1      18.091  12.230  13.312  1.00 18.81    -0.204 F 
HETATM   16  C2    D T   1      18.607   9.389  11.050  1.00 20.82     0.140 A 
HETATM   17  F1    D T   1      18.217   8.131  10.834  1.00 22.79    -0.204 F 
HETATM   18  C8    D T   1      19.534   9.940  10.158  1.00 15.46     0.030 A 
BRANCH  14  19
HETATM   19  C48   D T   1      17.051   9.548  13.084  1.00 20.25     0.129 C 
BRANCH  19  20
HETATM   20  N51   D T   1      17.737   8.681  14.110  1.00 24.07    -0.361 N 
HETATM   21  C52   D T   1      17.335   7.239  14.062  1.00 22.40     0.130 C 
HETATM   22  C55   D T   1      18.060   6.366  15.120  1.00 27.40     0.166 C 
HETATM   23  O58   D T   1      17.963   6.978  16.421  1.00 26.30    -0.350 OA
HETATM   24  C59   D T   1      18.607   8.266  16.446  1.00 25.21     0.166 C 
HETATM   25  C62   D T   1      17.848   9.235  15.498  1.00 22.22     0.130 C 
ENDBRANCH  19  20
ENDBRANCH  14  19
ENDBRANCH   1  11
BRANCH   4  26
HETATM   26  C24   D T   1      17.540  13.081   6.108  1.00 15.92     0.059 A 
HETATM   27  C25   D T   1      16.800  12.105   5.512  1.00 18.01     0.098 A 
HETATM   28  N27   D T   1      15.604  12.601   5.314  1.00 18.37    -0.251 N 
HETATM   29  N28   D T   1      15.554  13.879   5.753  1.00 18.72    -0.168 NA
HETATM   30  C29   D T   1      16.666  14.247   6.243  1.00 18.29     0.123 A 
BRANCH  28  31
HETATM   31  C31   D T   1      14.421  12.015   4.695  1.00 23.01     0.110 C 
HETATM   32  C33   D T   1      13.869  12.973   3.595  1.00 23.05     0.063 C 
HETATM   33  C36   D T   1      12.612  12.390   2.901  1.00 27.20     0.292 C 
HETATM   34  N39   D T   1      12.933  11.028   2.426  1.00 30.30     0.339 N 
HETATM   35  C41   D T   1      13.273  10.066   3.513  1.00 26.52     0.292 C 
HETATM   36  C44   D T   1      14.581  10.545   4.219  1.00 29.21     0.063 C 
ENDBRANCH  28  31
ENDBRANCH   4  26
TORSDOF 5
ENDMDL
MODEL 6
REMARK VINA RESULT:    -7.096      3.323      6.733
REMARK INTER + INTRA:         -10.472
REMARK INTER:                  -9.217
REMARK INTRA:                  -1.255
REMARK UNBOUND:                -1.301
REMARK  5 active torsions:
REMARK  status: ('A' for Active; 'I' for Inactive)
REMARK    1  A    between atoms: C3_3  and  C48_30 
REMARK    2  A    between atoms: C7_6  and  C10_8 
REMARK    3  A    between atoms: C13_11  and  C24_18 
REMARK    4  A    between atoms: N27_20  and  C31_23 
REMARK    5  A    between atoms: C48_30  and  N51_31 
ROOT
HETATM    1  C10   D T   1      20.952  10.650   9.382  1.00 15.48     0.019 A 
HETATM    2  C11   D T   1      20.721  11.639   8.407  1.00 17.77     0.099 A 
HETATM    3  N12   D T   1      19.525  11.732   7.747  1.00 14.42    -0.242 NA
HETATM    4  C13   D T   1      19.328  12.699   6.814  1.00 16.70     0.103 A 
HETATM    5  C14   D T   1      20.367  13.592   6.532  1.00 16.81     0.118 A 
HETATM    6  N16   D T   1      21.553  13.504   7.164  1.00 18.92    -0.241 NA
HETATM    7  C17   D T   1      21.752  12.551   8.103  1.00 19.63     0.099 A 
HETATM    8  C18   D T   1      22.995  12.486   8.754  1.00 16.22     0.021 A 
HETATM    9  C20   D T   1      23.220  11.496   9.717  1.00 16.47     0.002 A 
HETATM   10  C22   D T   1      22.199  10.585  10.038  1.00 11.45     0.002 A 
ENDROOT
BRANCH   1  11
HETATM   11  C7    D T   1      19.936   9.621   9.742  1.00 15.00     0.006 A 
HETATM   12  C5    D T   1      19.832   8.525   8.874  1.00 16.13     0.030 A 
HETATM   13  C4    D T   1      18.902   7.508   9.108  1.00 20.46     0.140 A 
HETATM   14  C3    D T   1      18.065   7.580  10.235  1.00 19.71     0.055 A 
HETATM   15  F47   D T   1      18.837   6.485   8.245  1.00 18.81    -0.204 F 
HETATM   16  C2    D T   1      18.164   8.690  11.097  1.00 20.82     0.140 A 
HETATM   17  F1    D T   1      17.395   8.803  12.182  1.00 22.79    -0.204 F 
HETATM   18  C8    D T   1      19.093   9.709  10.855  1.00 15.46     0.030 A 
BRANCH  14  19
HETATM   19  C48   D T   1      17.061   6.447  10.518  1.00 20.25     0.129 C 
BRANCH  19  20
HETATM   20  N51   D T   1      17.638   5.487  11.529  1.00 24.07    -0.361 N 
HETATM   21  C52   D T   1      17.928   4.123  10.982  1.00 22.40     0.130 C 
HETATM   22  C55   D T   1      18.528   3.156  12.038  1.00 27.40     0.166 C 
HETATM   23  O58   D T   1      17.729   3.171  13.238  1.00 26.30    -0.350 OA
HETATM   24  C59   D T   1      17.714   4.477  13.844  1.00 25.21     0.166 C 
HETATM   25  C62   D T   1      17.006   5.477  12.888  1.00 22.22     0.130 C 
ENDBRANCH  19  20
ENDBRANCH  14  19
ENDBRANCH   1  11
BRANCH   4  26
HETATM   26  C24   D T   1      17.981  12.790   6.121  1.00 15.92     0.059 A 
HETATM   27  C25   D T   1      17.419  11.997   5.166  1.00 18.01     0.098 A 
HETATM   28  N27   D T   1      16.240  12.500   4.898  1.00 18.37    -0.251 N 
HETATM   29  N28   D T   1      16.030  13.609   5.644  1.00 18.72    -0.168 NA
HETATM   30  C29   D T   1      17.018  13.854   6.403  1.00 18.29     0.123 A 
BRANCH  28  31
HETATM   31  C31   D T   1      15.219  12.080   3.946  1.00 23.01     0.110 C 
HETATM   32  C33   D T   1      14.759  10.625   4.270  1.00 23.05     0.063 C 
HETATM   33  C36   D T   1      13.666  10.133   3.287  1.00 27.20     0.292 C 
HETATM   34  N39   D T   1      12.578  11.133   3.266  1.00 30.30     0.339 N 
HETATM   35  C41   D T   1      12.990  12.476   2.768  1.00 26.52     0.292 C 
HETATM   36  C44   D T   1      14.044  13.077   3.751  1.00 29.21     0.063 C 
ENDBRANCH  28  31
ENDBRANCH   4  26
TORSDOF 5
ENDMDL
MODEL 7
REMARK VINA RESULT:    -6.959      3.363      6.506
REMARK INTER + INTRA:         -10.295
REMARK INTER:                  -9.020
REMARK INTRA:                  -1.275
REMARK UNBOUND:                -1.301
REMARK  5 active torsions:
REMARK  status: ('A' for Active; 'I' for Inactive)
REMARK    1  A    between atoms: C3_3  and  C48_30 
REMARK    2  A    between atoms: C7_6  and  C10_8 
REMARK    3  A    between atoms: C13_11  and  C24_18 
REMARK    4  A    between atoms: N27_20  and  C31_23 
REMARK    5  A    between atoms: C48_30  and  N51_31 
ROOT
HETATM    1  C10   D T   1      20.872  10.604   9.343  1.00 15.48     0.019 A 
HETATM    2  C11   D T   1      20.607  11.604   8.387  1.00 17.77     0.099 A 
HETATM    3  N12   D T   1      19.434  11.629   7.680  1.00 14.42    -0.242 NA
HETATM    4  C13   D T   1      19.202  12.608   6.768  1.00 16.70     0.103 A 
HETATM    5  C14   D T   1      20.182  13.583   6.554  1.00 16.81     0.118 A 
HETATM    6  N16   D T   1      21.346  13.561   7.232  1.00 18.92    -0.241 NA
HETATM    7  C17   D T   1      21.579  12.597   8.151  1.00 19.63     0.099 A 
HETATM    8  C18   D T   1      22.797  12.603   8.851  1.00 16.22     0.021 A 
HETATM    9  C20   D T   1      23.057  11.602   9.794  1.00 16.47     0.002 A 
HETATM   10  C22   D T   1      22.093  10.610  10.047  1.00 11.45     0.002 A 
ENDROOT
BRANCH   1  11
HETATM   11  C7    D T   1      19.922   9.493   9.631  1.00 15.00     0.006 A 
HETATM   12  C5    D T   1      19.063   9.681  10.723  1.00 16.13     0.030 A 
HETATM   13  C4    D T   1      18.141   8.696  11.090  1.00 20.46     0.140 A 
HETATM   14  C3    D T   1      18.067   7.504  10.349  1.00 19.71     0.055 A 
HETATM   15  F47   D T   1      17.346   8.922  12.145  1.00 18.81    -0.204 F 
HETATM   16  C2    D T   1      18.942   7.314   9.261  1.00 20.82     0.140 A 
HETATM   17  F1    D T   1      18.909   6.202   8.524  1.00 22.79    -0.204 F 
HETATM   18  C8    D T   1      19.867   8.301   8.900  1.00 15.46     0.030 A 
BRANCH  14  19
HETATM   19  C48   D T   1      17.031   6.429  10.727  1.00 20.25     0.129 C 
BRANCH  19  20
HETATM   20  N51   D T   1      17.540   5.607  11.885  1.00 24.07    -0.361 N 
HETATM   21  C52   D T   1      18.165   4.306  11.485  1.00 22.40     0.130 C 
HETATM   22  C55   D T   1      18.689   3.482  12.692  1.00 27.40     0.166 C 
HETATM   23  O58   D T   1      17.667   3.378  13.704  1.00 26.30    -0.350 OA
HETATM   24  C59   D T   1      17.305   4.673  14.221  1.00 25.21     0.166 C 
HETATM   25  C62   D T   1      16.652   5.512  13.088  1.00 22.22     0.130 C 
ENDBRANCH  19  20
ENDBRANCH  14  19
ENDBRANCH   1  11
BRANCH   4  26
HETATM   26  C24   D T   1      17.880  12.621   6.023  1.00 15.92     0.059 A 
HETATM   27  C25   D T   1      16.975  13.623   5.840  1.00 18.01     0.098 A 
HETATM   28  N27   D T   1      15.997  13.126   5.123  1.00 18.37    -0.251 N 
HETATM   29  N28   D T   1      16.238  11.823   4.851  1.00 18.72    -0.168 NA
HETATM   30  C29   D T   1      17.341  11.440   5.349  1.00 18.29     0.123 A 
BRANCH  28  31
HETATM   31  C31   D T   1      14.759  13.734   4.650  1.00 23.01     0.110 C 
HETATM   32  C33   D T   1      14.996  15.242   4.334  1.00 23.05     0.063 C 
HETATM   33  C36   D T   1      13.707  15.933   3.820  1.00 27.20     0.292 C 
HETATM   34  N39   D T   1      13.176  15.142   2.690  1.00 30.30     0.339 N 
HETATM   35  C41   D T   1      12.770  13.754   3.051  1.00 26.52     0.292 C 
HETATM   36  C44   D T   1      14.035  12.963   3.512  1.00 29.21     0.063 C 
ENDBRANCH  28  31
ENDBRANCH   4  26
TORSDOF 5
ENDMDL
MODEL 8
REMARK VINA RESULT:    -6.932      2.614      6.415
REMARK INTER + INTRA:         -10.259
REMARK INTER:                  -9.204
REMARK INTRA:                  -1.055
REMARK UNBOUND:                -1.301
REMARK  5 active torsions:
REMARK  status: ('A' for Active; 'I' for Inactive)
REMARK    1  A    between atoms: C3_3  and  C48_30 
REMARK    2  A    between atoms: C7_6  and  C10_8 
REMARK    3  A    between atoms: C13_11  and  C24_18 
REMARK    4  A    between atoms: N27_20  and  C31_23 
REMARK    5  A    between atoms: C48_30  and  N51_31 
ROOT
HETATM    1  C10   D T   1      21.709  11.375   9.191  1.00 15.48     0.019 A 
HETATM    2  C11   D T   1      21.352  12.270   8.163  1.00 17.77     0.099 A 
HETATM    3  N12   D T   1      20.164  12.156   7.492  1.00 14.42    -0.242 NA
HETATM    4  C13   D T   1      19.843  13.037   6.509  1.00 16.70     0.103 A 
HETATM    5  C14   D T   1      20.748  14.053   6.186  1.00 16.81     0.118 A 
HETATM    6  N16   D T   1      21.926  14.167   6.828  1.00 18.92    -0.241 NA
HETATM    7  C17   D T   1      22.247  13.303   7.816  1.00 19.63     0.099 A 
HETATM    8  C18   D T   1      23.478  13.449   8.478  1.00 16.22     0.021 A 
HETATM    9  C20   D T   1      23.829  12.552   9.492  1.00 16.47     0.002 A 
HETATM   10  C22   D T   1      22.944  11.523   9.856  1.00 11.45     0.002 A 
ENDROOT
BRANCH   1  11
HETATM   11  C7    D T   1      20.845  10.231   9.598  1.00 15.00     0.006 A 
HETATM   12  C5    D T   1      21.235   8.966   9.137  1.00 16.13     0.030 A 
HETATM   13  C4    D T   1      20.489   7.826   9.449  1.00 20.46     0.140 A 
HETATM   14  C3    D T   1      19.335   7.947  10.243  1.00 19.71     0.055 A 
HETATM   15  F47   D T   1      20.900   6.640   8.978  1.00 18.81    -0.204 F 
HETATM   16  C2    D T   1      18.939   9.223  10.692  1.00 20.82     0.140 A 
HETATM   17  F1    D T   1      17.855   9.391  11.452  1.00 22.79    -0.204 F 
HETATM   18  C8    D T   1      19.687  10.363  10.374  1.00 15.46     0.030 A 
BRANCH  14  19
HETATM   19  C48   D T   1      18.527   6.692  10.618  1.00 20.25     0.129 C 
BRANCH  19  20
HETATM   20  N51   D T   1      18.026   6.009   9.370  1.00 24.07    -0.361 N 
HETATM   21  C52   D T   1      17.387   6.933   8.379  1.00 22.40     0.130 C 
HETATM   22  C55   D T   1      16.888   6.208   7.101  1.00 27.40     0.166 C 
HETATM   23  O58   D T   1      16.094   5.059   7.458  1.00 26.30    -0.350 OA
HETATM   24  C59   D T   1      16.867   4.094   8.196  1.00 25.21     0.166 C 
HETATM   25  C62   D T   1      17.294   4.714   9.556  1.00 22.22     0.130 C 
ENDBRANCH  19  20
ENDBRANCH  14  19
ENDBRANCH   1  11
BRANCH   4  26
HETATM   26  C24   D T   1      18.506  12.898   5.805  1.00 15.92     0.059 A 
HETATM   27  C25   D T   1      17.915  13.681   4.859  1.00 18.01     0.098 A 
HETATM   28  N27   D T   1      16.760  13.132   4.576  1.00 18.37    -0.251 N 
HETATM   29  N28   D T   1      16.580  12.021   5.327  1.00 18.72    -0.168 NA
HETATM   30  C29   D T   1      17.574  11.807   6.088  1.00 18.29     0.123 A 
BRANCH  28  31
HETATM   31  C31   D T   1      15.706  13.549   3.659  1.00 23.01     0.110 C 
HETATM   32  C33   D T   1      14.381  12.801   3.999  1.00 23.05     0.063 C 
HETATM   33  C36   D T   1      13.226  13.216   3.053  1.00 27.20     0.292 C 
HETATM   34  N39   D T   1      13.122  14.691   3.067  1.00 30.30     0.339 N 
HETATM   35  C41   D T   1      14.333  15.393   2.554  1.00 26.52     0.292 C 
HETATM   36  C44   D T   1      15.534  15.084   3.502  1.00 29.21     0.063 C 
ENDBRANCH  28  31
ENDBRANCH   4  26
TORSDOF 5
ENDMDL
MODEL 9
REMARK VINA RESULT:    -6.931      1.726      2.527
REMARK INTER + INTRA:         -10.258
REMARK INTER:                  -9.176
REMARK INTRA:                  -1.083
REMARK UNBOUND:                -1.301
REMARK  5 active torsions:
REMARK  status: ('A' for Active; 'I' for Inactive)
REMARK    1  A    between atoms: C3_3  and  C48_30 
REMARK    2  A    between atoms: C7_6  and  C10_8 
REMARK    3  A    between atoms: C13_11  and  C24_18 
REMARK    4  A    between atoms: N27_20  and  C31_23 
REMARK    5  A    between atoms: C48_30  and  N51_31 
ROOT
HETATM    1  C10   D T   1      18.907   7.053   8.831  1.00 15.48     0.019 A 
HETATM    2  C11   D T   1      17.889   6.918   7.867  1.00 17.77     0.099 A 
HETATM    3  N12   D T   1      17.633   7.903   6.950  1.00 14.42    -0.242 NA
HETATM    4  C13   D T   1      16.649   7.745   6.028  1.00 16.70     0.103 A 
HETATM    5  C14   D T   1      15.894   6.567   6.036  1.00 16.81     0.118 A 
HETATM    6  N16   D T   1      16.125   5.597   6.941  1.00 18.92    -0.241 NA
HETATM    7  C17   D T   1      17.112   5.742   7.854  1.00 19.63     0.099 A 
HETATM    8  C18   D T   1      17.340   4.711   8.781  1.00 16.22     0.021 A 
HETATM    9  C20   D T   1      18.348   4.854   9.741  1.00 16.47     0.002 A 
HETATM   10  C22   D T   1      19.137   6.018   9.761  1.00 11.45     0.002 A 
ENDROOT
BRANCH   1  11
HETATM   11  C7    D T   1      19.751   8.275   8.946  1.00 15.00     0.006 A 
HETATM   12  C5    D T   1      21.133   8.088   8.806  1.00 16.13     0.030 A 
HETATM   13  C4    D T   1      22.019   9.164   8.909  1.00 20.46     0.140 A 
HETATM   14  C3    D T   1      21.517  10.455   9.148  1.00 19.71     0.055 A 
HETATM   15  F47   D T   1      23.332   8.931   8.775  1.00 18.81    -0.204 F 
HETATM   16  C2    D T   1      20.128  10.637   9.301  1.00 20.82     0.140 A 
HETATM   17  F1    D T   1      19.601  11.842   9.524  1.00 22.79    -0.204 F 
HETATM   18  C8    D T   1      19.245   9.554   9.202  1.00 15.46     0.030 A 
BRANCH  14  19
HETATM   19  C48   D T   1      22.483  11.651   9.230  1.00 20.25     0.129 C 
BRANCH  19  20
HETATM   20  N51   D T   1      22.615  12.111  10.660  1.00 24.07    -0.361 N 
HETATM   21  C52   D T   1      22.239  13.544  10.880  1.00 22.40     0.130 C 
HETATM   22  C55   D T   1      22.374  13.992  12.360  1.00 27.40     0.166 C 
HETATM   23  O58   D T   1      23.667  13.618  12.877  1.00 26.30    -0.350 OA
HETATM   24  C59   D T   1      23.845  12.189  12.866  1.00 25.21     0.166 C 
HETATM   25  C62   D T   1      23.849  11.685  11.396  1.00 22.22     0.130 C 
ENDBRANCH  19  20
ENDBRANCH  14  19
ENDBRANCH   1  11
BRANCH   4  26
HETATM   26  C24   D T   1      16.411   8.844   5.009  1.00 15.92     0.059 A 
HETATM   27  C25   D T   1      15.370   9.711   4.866  1.00 18.01     0.098 A 
HETATM   28  N27   D T   1      15.642  10.465   3.829  1.00 18.37    -0.251 N 
HETATM   29  N28   D T   1      16.826  10.097   3.287  1.00 18.72    -0.168 NA
HETATM   30  C29   D T   1      17.353   9.137   3.930  1.00 18.29     0.123 A 
BRANCH  28  31
HETATM   31  C31   D T   1      14.877  11.538   3.206  1.00 23.01     0.110 C 
HETATM   32  C33   D T   1      13.351  11.281   3.395  1.00 23.05     0.063 C 
HETATM   33  C36   D T   1      12.494  12.402   2.753  1.00 27.20     0.292 C 
HETATM   34  N39   D T   1      12.968  13.703   3.271  1.00 30.30     0.339 N 
HETATM   35  C41   D T   1      14.379  14.024   2.916  1.00 26.52     0.292 C 
HETATM   36  C44   D T   1      15.320  12.977   3.590  1.00 29.21     0.063 C 
ENDBRANCH  28  31
ENDBRANCH   4  26
TORSDOF 5
ENDMDL
