MODEL 1
REMARK VINA RESULT:   -10.132      0.000      0.000
REMARK INTER + INTRA:         -14.277
REMARK INTER:                 -13.094
REMARK INTRA:                  -1.183
REMARK UNBOUND:                -1.183
REMARK  5 active torsions:
REMARK  status: ('A' for Active; 'I' for Inactive)
REMARK    1  A    between atoms: C3_3  and  C48_30 
REMARK    2  A    between atoms: C7_6  and  C10_8 
REMARK    3  A    between atoms: C13_11  and  C24_18 
REMARK    4  A    between atoms: N27_20  and  C31_23 
REMARK    5  A    between atoms: C48_30  and  N51_31 
ROOT
HETATM    1  C10   D T   1       2.764  14.029  -0.773  1.00 15.48     0.019 A 
HETATM    2  C11   D T   1       2.738  13.240   0.393  1.00 17.77     0.099 A 
HETATM    3  N12   D T   1       3.891  12.845   1.019  1.00 14.42    -0.242 NA
HETATM    4  C13   D T   1       3.835  12.087   2.144  1.00 16.70     0.103 A 
HETATM    5  C14   D T   1       2.587  11.708   2.648  1.00 16.81     0.118 A 
HETATM    6  N16   D T   1       1.446  12.077   2.034  1.00 18.92    -0.241 NA
HETATM    7  C17   D T   1       1.493  12.842   0.920  1.00 19.63     0.099 A 
HETATM    8  C18   D T   1       0.288  13.222   0.304  1.00 16.22     0.021 A 
HETATM    9  C20   D T   1       0.321  14.001  -0.858  1.00 16.47     0.002 A 
HETATM   10  C22   D T   1       1.555  14.412  -1.390  1.00 11.45     0.002 A 
ENDROOT
BRANCH   1  11
HETATM   11  C7    D T   1       4.032  14.463  -1.423  1.00 15.00     0.006 A 
HETATM   12  C5    D T   1       4.265  15.846  -1.465  1.00 16.13     0.030 A 
HETATM   13  C4    D T   1       5.417  16.363  -2.064  1.00 20.46     0.140 A 
HETATM   14  C3    D T   1       6.361  15.486  -2.624  1.00 19.71     0.055 A 
HETATM   15  F47   D T   1       5.588  17.692  -2.083  1.00 18.81    -0.204 F 
HETATM   16  C2    D T   1       6.117  14.099  -2.592  1.00 20.82     0.140 A 
HETATM   17  F1    D T   1       6.985  13.223  -3.105  1.00 22.79    -0.204 F 
HETATM   18  C8    D T   1       4.959  13.585  -1.995  1.00 15.46     0.030 A 
BRANCH  14  19
HETATM   19  C48   D T   1       7.649  16.046  -3.256  1.00 20.25     0.129 C 
BRANCH  19  20
HETATM   20  N51   D T   1       7.540  16.018  -4.761  1.00 24.07    -0.361 N 
HETATM   21  C52   D T   1       8.814  15.651  -5.459  1.00 22.40     0.130 C 
HETATM   22  C55   D T   1       8.677  15.621  -7.005  1.00 27.40     0.166 C 
HETATM   23  O58   D T   1       8.056  16.834  -7.473  1.00 26.30    -0.350 OA
HETATM   24  C59   D T   1       6.722  16.980  -6.949  1.00 25.21     0.166 C 
HETATM   25  C62   D T   1       6.795  17.146  -5.406  1.00 22.22     0.130 C 
ENDBRANCH  19  20
ENDBRANCH  14  19
ENDBRANCH   1  11
BRANCH   4  26
HETATM   26  C24   D T   1       5.131  11.691   2.828  1.00 15.92     0.059 A 
HETATM   27  C25   D T   1       6.394  12.187   2.694  1.00 18.01     0.098 A 
HETATM   28  N27   D T   1       7.160  11.503   3.507  1.00 18.37    -0.251 N 
HETATM   29  N28   D T   1       6.429  10.564   4.152  1.00 18.72    -0.168 NA
HETATM   30  C29   D T   1       5.208  10.608   3.808  1.00 18.29     0.123 A 
BRANCH  28  31
HETATM   31  C31   D T   1       8.594  11.584   3.759  1.00 23.01     0.110 C 
HETATM   32  C33   D T   1       9.067  10.322   4.544  1.00 23.05     0.063 C 
HETATM   33  C36   D T   1      10.590  10.358   4.830  1.00 27.20     0.292 C 
HETATM   34  N39   D T   1      11.296  10.589   3.553  1.00 30.30     0.339 N 
HETATM   35  C41   D T   1      10.979  11.894   2.905  1.00 26.52     0.292 C 
HETATM   36  C44   D T   1       9.467  11.908   2.515  1.00 29.21     0.063 C 
ENDBRANCH  28  31
ENDBRANCH   4  26
TORSDOF 5
ENDMDL
MODEL 2
REMARK VINA RESULT:    -9.880      3.011      7.910
REMARK INTER + INTRA:         -13.951
REMARK INTER:                 -13.697
REMARK INTRA:                  -0.255
REMARK UNBOUND:                -1.183
REMARK  5 active torsions:
REMARK  status: ('A' for Active; 'I' for Inactive)
REMARK    1  A    between atoms: C3_3  and  C48_30 
REMARK    2  A    between atoms: C7_6  and  C10_8 
REMARK    3  A    between atoms: C13_11  and  C24_18 
REMARK    4  A    between atoms: N27_20  and  C31_23 
REMARK    5  A    between atoms: C48_30  and  N51_31 
ROOT
HETATM    1  C10   D T   1       2.727  12.870   1.582  1.00 15.48     0.019 A 
HETATM    2  C11   D T   1       2.698  13.514   0.330  1.00 17.77     0.099 A 
HETATM    3  N12   D T   1       3.836  13.694  -0.411  1.00 14.42    -0.242 NA
HETATM    4  C13   D T   1       3.778  14.314  -1.618  1.00 16.70     0.103 A 
HETATM    5  C14   D T   1       2.543  14.773  -2.087  1.00 16.81     0.118 A 
HETATM    6  N16   D T   1       1.419  14.615  -1.363  1.00 18.92    -0.241 NA
HETATM    7  C17   D T   1       1.467  13.988  -0.166  1.00 19.63     0.099 A 
HETATM    8  C18   D T   1       0.278  13.827   0.566  1.00 16.22     0.021 A 
HETATM    9  C20   D T   1       0.315  13.192   1.813  1.00 16.47     0.002 A 
HETATM   10  C22   D T   1       1.533  12.707   2.316  1.00 11.45     0.002 A 
ENDROOT
BRANCH   1  11
HETATM   11  C7    D T   1       3.987  12.372   2.202  1.00 15.00     0.006 A 
HETATM   12  C5    D T   1       3.873  11.220   2.994  1.00 16.13     0.030 A 
HETATM   13  C4    D T   1       4.990  10.675   3.634  1.00 20.46     0.140 A 
HETATM   14  C3    D T   1       6.246  11.284   3.475  1.00 19.71     0.055 A 
HETATM   15  F47   D T   1       4.827   9.577   4.384  1.00 18.81    -0.204 F 
HETATM   16  C2    D T   1       6.353  12.449   2.691  1.00 20.82     0.140 A 
HETATM   17  F1    D T   1       7.524  13.063   2.505  1.00 22.79    -0.204 F 
HETATM   18  C8    D T   1       5.231  12.995   2.055  1.00 15.46     0.030 A 
BRANCH  14  19
HETATM   19  C48   D T   1       7.487  10.671   4.150  1.00 20.25     0.129 C 
BRANCH  19  20
HETATM   20  N51   D T   1       8.737  11.104   3.426  1.00 24.07    -0.361 N 
HETATM   21  C52   D T   1       9.118  10.220   2.278  1.00 22.40     0.130 C 
HETATM   22  C55   D T   1      10.401  10.690   1.543  1.00 27.40     0.166 C 
HETATM   23  O58   D T   1      11.456  10.939   2.493  1.00 26.30    -0.350 OA
HETATM   24  C59   D T   1      11.102  11.992   3.410  1.00 25.21     0.166 C 
HETATM   25  C62   D T   1       9.895  11.535   4.273  1.00 22.22     0.130 C 
ENDBRANCH  19  20
ENDBRANCH  14  19
ENDBRANCH   1  11
BRANCH   4  26
HETATM   26  C24   D T   1       5.053  14.473  -2.425  1.00 15.92     0.059 A 
HETATM   27  C25   D T   1       5.388  15.377  -3.389  1.00 18.01     0.098 A 
HETATM   28  N27   D T   1       6.605  15.088  -3.776  1.00 18.37    -0.251 N 
HETATM   29  N28   D T   1       7.062  14.009  -3.100  1.00 18.72    -0.168 NA
HETATM   30  C29   D T   1       6.201  13.579  -2.273  1.00 18.29     0.123 A 
BRANCH  28  31
HETATM   31  C31   D T   1       7.453  15.702  -4.791  1.00 23.01     0.110 C 
HETATM   32  C33   D T   1       8.847  15.003  -4.813  1.00 23.05     0.063 C 
HETATM   33  C36   D T   1       9.784  15.617  -5.883  1.00 27.20     0.292 C 
HETATM   34  N39   D T   1       9.073  15.614  -7.179  1.00 30.30     0.339 N 
HETATM   35  C41   D T   1       7.837  16.447  -7.202  1.00 26.52     0.292 C 
HETATM   36  C44   D T   1       6.805  15.846  -6.196  1.00 29.21     0.063 C 
ENDBRANCH  28  31
ENDBRANCH   4  26
TORSDOF 5
ENDMDL
MODEL 3
REMARK VINA RESULT:    -9.863      1.342      1.840
REMARK INTER + INTRA:         -13.929
REMARK INTER:                 -12.905
REMARK INTRA:                  -1.024
REMARK UNBOUND:                -1.183
REMARK  5 active torsions:
REMARK  status: ('A' for Active; 'I' for Inactive)
REMARK    1  A    between atoms: C3_3  and  C48_30 
REMARK    2  A    between atoms: C7_6  and  C10_8 
REMARK    3  A    between atoms: C13_11  and  C24_18 
REMARK    4  A    between atoms: N27_20  and  C31_23 
REMARK    5  A    between atoms: C48_30  and  N51_31 
ROOT
HETATM    1  C10   D T   1       2.246  13.982  -0.749  1.00 15.48     0.019 A 
HETATM    2  C11   D T   1       2.656  13.301   0.414  1.00 17.77     0.099 A 
HETATM    3  N12   D T   1       3.980  13.163   0.736  1.00 14.42    -0.242 NA
HETATM    4  C13   D T   1       4.346  12.505   1.866  1.00 16.70     0.103 A 
HETATM    5  C14   D T   1       3.354  11.965   2.690  1.00 16.81     0.118 A 
HETATM    6  N16   D T   1       2.049  12.081   2.378  1.00 18.92    -0.241 NA
HETATM    7  C17   D T   1       1.676  12.745   1.261  1.00 19.63     0.099 A 
HETATM    8  C18   D T   1       0.307  12.861   0.963  1.00 16.22     0.021 A 
HETATM    9  C20   D T   1      -0.093  13.533  -0.198  1.00 16.47     0.002 A 
HETATM   10  C22   D T   1       0.872  14.100  -1.047  1.00 11.45     0.002 A 
ENDROOT
BRANCH   1  11
HETATM   11  C7    D T   1       3.210  14.567  -1.721  1.00 15.00     0.006 A 
HETATM   12  C5    D T   1       3.169  15.961  -1.870  1.00 16.13     0.030 A 
HETATM   13  C4    D T   1       4.021  16.613  -2.766  1.00 20.46     0.140 A 
HETATM   14  C3    D T   1       4.939  15.864  -3.522  1.00 19.71     0.055 A 
HETATM   15  F47   D T   1       3.938  17.946  -2.875  1.00 18.81    -0.204 F 
HETATM   16  C2    D T   1       4.967  14.463  -3.378  1.00 20.82     0.140 A 
HETATM   17  F1    D T   1       5.823  13.706  -4.069  1.00 22.79    -0.204 F 
HETATM   18  C8    D T   1       4.108  13.812  -2.483  1.00 15.46     0.030 A 
BRANCH  14  19
HETATM   19  C48   D T   1       5.904  16.578  -4.486  1.00 20.25     0.129 C 
BRANCH  19  20
HETATM   20  N51   D T   1       7.316  16.105  -4.248  1.00 24.07    -0.361 N 
HETATM   21  C52   D T   1       8.044  16.861  -3.178  1.00 22.40     0.130 C 
HETATM   22  C55   D T   1       9.491  16.352  -2.946  1.00 27.40     0.166 C 
HETATM   23  O58   D T   1      10.191  16.253  -4.202  1.00 26.30    -0.350 OA
HETATM   24  C59   D T   1       9.562  15.303  -5.083  1.00 25.21     0.166 C 
HETATM   25  C62   D T   1       8.146  15.817  -5.462  1.00 22.22     0.130 C 
ENDBRANCH  19  20
ENDBRANCH  14  19
ENDBRANCH   1  11
BRANCH   4  26
HETATM   26  C24   D T   1       5.821  12.394   2.207  1.00 15.92     0.059 A 
HETATM   27  C25   D T   1       6.458  11.677   3.175  1.00 18.01     0.098 A 
HETATM   28  N27   D T   1       7.738  11.923   3.052  1.00 18.37    -0.251 N 
HETATM   29  N28   D T   1       7.947  12.795   2.040  1.00 18.72    -0.168 NA
HETATM   30  C29   D T   1       6.857  13.128   1.480  1.00 18.29     0.123 A 
BRANCH  28  31
HETATM   31  C31   D T   1       8.878  11.450   3.829  1.00 23.01     0.110 C 
HETATM   32  C33   D T   1       8.491  10.151   4.602  1.00 23.05     0.063 C 
HETATM   33  C36   D T   1       9.675   9.604   5.439  1.00 27.20     0.292 C 
HETATM   34  N39   D T   1      10.848   9.466   4.549  1.00 30.30     0.339 N 
HETATM   35  C41   D T   1      11.329  10.750   3.966  1.00 26.52     0.292 C 
HETATM   36  C44   D T   1      10.213  11.334   3.042  1.00 29.21     0.063 C 
ENDBRANCH  28  31
ENDBRANCH   4  26
TORSDOF 5
ENDMDL
MODEL 4
REMARK VINA RESULT:    -9.675      1.355      1.970
REMARK INTER + INTRA:         -13.685
REMARK INTER:                 -12.759
REMARK INTRA:                  -0.926
REMARK UNBOUND:                -1.183
REMARK  5 active torsions:
REMARK  status: ('A' for Active; 'I' for Inactive)
REMARK    1  A    between atoms: C3_3  and  C48_30 
REMARK    2  A    between atoms: C7_6  and  C10_8 
REMARK    3  A    between atoms: C13_11  and  C24_18 
REMARK    4  A    between atoms: N27_20  and  C31_23 
REMARK    5  A    between atoms: C48_30  and  N51_31 
ROOT
HETATM    1  C10   D T   1       3.494  13.572  -0.374  1.00 15.48     0.019 A 
HETATM    2  C11   D T   1       3.822  12.865   0.799  1.00 17.77     0.099 A 
HETATM    3  N12   D T   1       5.117  12.743   1.226  1.00 14.42    -0.242 NA
HETATM    4  C13   D T   1       5.404  12.059   2.363  1.00 16.70     0.103 A 
HETATM    5  C14   D T   1       4.359  11.474   3.085  1.00 16.81     0.118 A 
HETATM    6  N16   D T   1       3.082  11.573   2.669  1.00 18.92    -0.241 NA
HETATM    7  C17   D T   1       2.788  12.263   1.544  1.00 19.63     0.099 A 
HETATM    8  C18   D T   1       1.447  12.360   1.137  1.00 16.22     0.021 A 
HETATM    9  C20   D T   1       1.128  13.059  -0.034  1.00 16.47     0.002 A 
HETATM   10  C22   D T   1       2.147  13.671  -0.782  1.00 11.45     0.002 A 
ENDROOT
BRANCH   1  11
HETATM   11  C7    D T   1       4.522  14.207  -1.245  1.00 15.00     0.006 A 
HETATM   12  C5    D T   1       4.944  15.491  -0.870  1.00 16.13     0.030 A 
HETATM   13  C4    D T   1       5.895  16.184  -1.625  1.00 20.46     0.140 A 
HETATM   14  C3    D T   1       6.444  15.583  -2.770  1.00 19.71     0.055 A 
HETATM   15  F47   D T   1       6.259  17.411  -1.227  1.00 18.81    -0.204 F 
HETATM   16  C2    D T   1       6.007  14.298  -3.150  1.00 20.82     0.140 A 
HETATM   17  F1    D T   1       6.501  13.682  -4.227  1.00 22.79    -0.204 F 
HETATM   18  C8    D T   1       5.051  13.609  -2.394  1.00 15.46     0.030 A 
BRANCH  14  19
HETATM   19  C48   D T   1       7.516  16.326  -3.587  1.00 20.25     0.129 C 
BRANCH  19  20
HETATM   20  N51   D T   1       6.882  17.002  -4.778  1.00 24.07    -0.361 N 
HETATM   21  C52   D T   1       5.452  17.397  -4.569  1.00 22.40     0.130 C 
HETATM   22  C55   D T   1       4.824  18.096  -5.804  1.00 27.40     0.166 C 
HETATM   23  O58   D T   1       5.072  17.322  -6.994  1.00 26.30    -0.350 OA
HETATM   24  C59   D T   1       6.482  17.208  -7.265  1.00 25.21     0.166 C 
HETATM   25  C62   D T   1       7.158  16.400  -6.123  1.00 22.22     0.130 C 
ENDBRANCH  19  20
ENDBRANCH  14  19
ENDBRANCH   1  11
BRANCH   4  26
HETATM   26  C24   D T   1       6.848  11.968   2.823  1.00 15.92     0.059 A 
HETATM   27  C25   D T   1       7.433  11.170   3.760  1.00 18.01     0.098 A 
HETATM   28  N27   D T   1       8.706  11.478   3.782  1.00 18.37    -0.251 N 
HETATM   29  N28   D T   1       8.957  12.469   2.895  1.00 18.72    -0.168 NA
HETATM   30  C29   D T   1       7.905  12.820   2.278  1.00 18.29     0.123 A 
BRANCH  28  31
HETATM   31  C31   D T   1       9.796  10.965   4.602  1.00 23.01     0.110 C 
HETATM   32  C33   D T   1       9.331   9.684   5.362  1.00 23.05     0.063 C 
HETATM   33  C36   D T   1      10.461   9.095   6.244  1.00 27.20     0.292 C 
HETATM   34  N39   D T   1      11.660   8.910   5.400  1.00 30.30     0.339 N 
HETATM   35  C41   D T   1      12.212  10.173   4.834  1.00 26.52     0.292 C 
HETATM   36  C44   D T   1      11.155  10.796   3.867  1.00 29.21     0.063 C 
ENDBRANCH  28  31
ENDBRANCH   4  26
TORSDOF 5
ENDMDL
MODEL 5
REMARK VINA RESULT:    -9.457      3.021      8.321
REMARK INTER + INTRA:         -13.404
REMARK INTER:                 -12.788
REMARK INTRA:                  -0.617
REMARK UNBOUND:                -1.183
REMARK  5 active torsions:
REMARK  status: ('A' for Active; 'I' for Inactive)
REMARK    1  A    between atoms: C3_3  and  C48_30 
REMARK    2  A    between atoms: C7_6  and  C10_8 
REMARK    3  A    between atoms: C13_11  and  C24_18 
REMARK    4  A    between atoms: N27_20  and  C31_23 
REMARK    5  A    between atoms: C48_30  and  N51_31 
ROOT
HETATM    1  C10   D T   1       3.736  12.616   1.438  1.00 15.48     0.019 A 
HETATM    2  C11   D T   1       3.462  13.458   0.343  1.00 17.77     0.099 A 
HETATM    3  N12   D T   1       4.441  13.829  -0.540  1.00 14.42    -0.242 NA
HETATM    4  C13   D T   1       4.147  14.638  -1.590  1.00 16.70     0.103 A 
HETATM    5  C14   D T   1       2.835  15.095  -1.750  1.00 16.81     0.118 A 
HETATM    6  N16   D T   1       1.866  14.750  -0.880  1.00 18.92    -0.241 NA
HETATM    7  C17   D T   1       2.148  13.935   0.160  1.00 19.63     0.099 A 
HETATM    8  C18   D T   1       1.117  13.582   1.047  1.00 16.22     0.021 A 
HETATM    9  C20   D T   1       1.397  12.750   2.138  1.00 16.47     0.002 A 
HETATM   10  C22   D T   1       2.700  12.260   2.328  1.00 11.45     0.002 A 
ENDROOT
BRANCH   1  11
HETATM   11  C7    D T   1       5.100  12.096   1.733  1.00 15.00     0.006 A 
HETATM   12  C5    D T   1       5.299  11.572   3.018  1.00 16.13     0.030 A 
HETATM   13  C4    D T   1       6.545  11.071   3.405  1.00 20.46     0.140 A 
HETATM   14  C3    D T   1       7.612  11.083   2.491  1.00 19.71     0.055 A 
HETATM   15  F47   D T   1       6.684  10.587   4.647  1.00 18.81    -0.204 F 
HETATM   16  C2    D T   1       7.411  11.622   1.205  1.00 20.82     0.140 A 
HETATM   17  F1    D T   1       8.391  11.653   0.299  1.00 22.79    -0.204 F 
HETATM   18  C8    D T   1       6.163  12.129   0.823  1.00 15.46     0.030 A 
BRANCH  14  19
HETATM   19  C48   D T   1       8.978  10.502   2.899  1.00 20.25     0.129 C 
BRANCH  19  20
HETATM   20  N51   D T   1       9.919  11.616   3.286  1.00 24.07    -0.361 N 
HETATM   21  C52   D T   1      10.992  11.889   2.277  1.00 22.40     0.130 C 
HETATM   22  C55   D T   1      11.943  13.044   2.693  1.00 27.40     0.166 C 
HETATM   23  O58   D T   1      12.414  12.840   4.040  1.00 26.30    -0.350 OA
HETATM   24  C59   D T   1      11.327  12.847   4.985  1.00 25.21     0.166 C 
HETATM   25  C62   D T   1      10.398  11.633   4.706  1.00 22.22     0.130 C 
ENDBRANCH  19  20
ENDBRANCH  14  19
ENDBRANCH   1  11
BRANCH   4  26
HETATM   26  C24   D T   1       5.251  15.006  -2.565  1.00 15.92     0.059 A 
HETATM   27  C25   D T   1       5.330  16.018  -3.476  1.00 18.01     0.098 A 
HETATM   28  N27   D T   1       6.490  15.902  -4.073  1.00 18.37    -0.251 N 
HETATM   29  N28   D T   1       7.157  14.831  -3.585  1.00 18.72    -0.168 NA
HETATM   30  C29   D T   1       6.491  14.240  -2.681  1.00 18.29     0.123 A 
BRANCH  28  31
HETATM   31  C31   D T   1       7.093  16.689  -5.142  1.00 23.01     0.110 C 
HETATM   32  C33   D T   1       7.487  15.758  -6.330  1.00 23.05     0.063 C 
HETATM   33  C36   D T   1       8.127  16.551  -7.497  1.00 27.20     0.292 C 
HETATM   34  N39   D T   1       7.219  17.660  -7.858  1.00 30.30     0.339 N 
HETATM   35  C41   D T   1       7.003  18.654  -6.769  1.00 26.52     0.292 C 
HETATM   36  C44   D T   1       6.288  17.946  -5.575  1.00 29.21     0.063 C 
ENDBRANCH  28  31
ENDBRANCH   4  26
TORSDOF 5
ENDMDL
MODEL 6
REMARK VINA RESULT:    -9.320      2.163      3.141
REMARK INTER + INTRA:         -13.227
REMARK INTER:                 -11.867
REMARK INTRA:                  -1.360
REMARK UNBOUND:                -1.183
REMARK  5 active torsions:
REMARK  status: ('A' for Active; 'I' for Inactive)
REMARK    1  A    between atoms: C3_3  and  C48_30 
REMARK    2  A    between atoms: C7_6  and  C10_8 
REMARK    3  A    between atoms: C13_11  and  C24_18 
REMARK    4  A    between atoms: N27_20  and  C31_23 
REMARK    5  A    between atoms: C48_30  and  N51_31 
ROOT
HETATM    1  C10   D T   1       4.077  13.142   0.420  1.00 15.48     0.019 A 
HETATM    2  C11   D T   1       4.486  12.392   1.540  1.00 17.77     0.099 A 
HETATM    3  N12   D T   1       5.803  12.312   1.909  1.00 14.42    -0.242 NA
HETATM    4  C13   D T   1       6.168  11.585   2.995  1.00 16.70     0.103 A 
HETATM    5  C14   D T   1       5.184  10.912   3.725  1.00 16.81     0.118 A 
HETATM    6  N16   D T   1       3.887  10.970   3.366  1.00 18.92    -0.241 NA
HETATM    7  C17   D T   1       3.514  11.702   2.292  1.00 19.63     0.099 A 
HETATM    8  C18   D T   1       2.154  11.754   1.943  1.00 16.22     0.021 A 
HETATM    9  C20   D T   1       1.754  12.496   0.826  1.00 16.47     0.002 A 
HETATM   10  C22   D T   1       2.710  13.196   0.072  1.00 11.45     0.002 A 
ENDROOT
BRANCH   1  11
HETATM   11  C7    D T   1       5.037  13.871  -0.455  1.00 15.00     0.006 A 
HETATM   12  C5    D T   1       5.226  15.230  -0.168  1.00 16.13     0.030 A 
HETATM   13  C4    D T   1       6.094  16.012  -0.936  1.00 20.46     0.140 A 
HETATM   14  C3    D T   1       6.794  15.427  -2.004  1.00 19.71     0.055 A 
HETATM   15  F47   D T   1       6.235  17.308  -0.624  1.00 18.81    -0.204 F 
HETATM   16  C2    D T   1       6.590  14.064  -2.297  1.00 20.82     0.140 A 
HETATM   17  F1    D T   1       7.235  13.459  -3.298  1.00 22.79    -0.204 F 
HETATM   18  C8    D T   1       5.716  13.285  -1.529  1.00 15.46     0.030 A 
BRANCH  14  19
HETATM   19  C48   D T   1       7.777  16.274  -2.833  1.00 20.25     0.129 C 
BRANCH  19  20
HETATM   20  N51   D T   1       9.197  15.873  -2.518  1.00 24.07    -0.361 N 
HETATM   21  C52   D T   1       9.721  16.434  -1.231  1.00 22.40     0.130 C 
HETATM   22  C55   D T   1      11.179  16.003  -0.924  1.00 27.40     0.166 C 
HETATM   23  O58   D T   1      12.019  16.234  -2.072  1.00 26.30    -0.350 OA
HETATM   24  C59   D T   1      11.592  15.451  -3.203  1.00 25.21     0.166 C 
HETATM   25  C62   D T   1      10.180  15.922  -3.648  1.00 22.22     0.130 C 
ENDBRANCH  19  20
ENDBRANCH  14  19
ENDBRANCH   1  11
BRANCH   4  26
HETATM   26  C24   D T   1       7.633  11.541   3.392  1.00 15.92     0.059 A 
HETATM   27  C25   D T   1       8.270  10.823   4.359  1.00 18.01     0.098 A 
HETATM   28  N27   D T   1       9.539  11.142   4.297  1.00 18.37    -0.251 N 
HETATM   29  N28   D T   1       9.738  12.062   3.326  1.00 18.72    -0.168 NA
HETATM   30  C29   D T   1       8.654  12.356   2.734  1.00 18.29     0.123 A 
BRANCH  28  31
HETATM   31  C31   D T   1      10.671  10.702   5.103  1.00 23.01     0.110 C 
HETATM   32  C33   D T   1      10.236   9.532   6.037  1.00 23.05     0.063 C 
HETATM   33  C36   D T   1      11.411   9.023   6.910  1.00 27.20     0.292 C 
HETATM   34  N39   D T   1      12.550   8.711   6.021  1.00 30.30     0.339 N 
HETATM   35  C41   D T   1      13.084   9.885   5.275  1.00 26.52     0.292 C 
HETATM   36  C44   D T   1      11.977  10.415   4.309  1.00 29.21     0.063 C 
ENDBRANCH  28  31
ENDBRANCH   4  26
TORSDOF 5
ENDMDL
MODEL 7
REMARK VINA RESULT:    -9.200      1.613      2.433
REMARK INTER + INTRA:         -13.072
REMARK INTER:                 -12.094
REMARK INTRA:                  -0.978
REMARK UNBOUND:                -1.183
REMARK  5 active torsions:
REMARK  status: ('A' for Active; 'I' for Inactive)
REMARK    1  A    between atoms: C3_3  and  C48_30 
REMARK    2  A    between atoms: C7_6  and  C10_8 
REMARK    3  A    between atoms: C13_11  and  C24_18 
REMARK    4  A    between atoms: N27_20  and  C31_23 
REMARK    5  A    between atoms: C48_30  and  N51_31 
ROOT
HETATM    1  C10   D T   1       3.126  13.218   0.069  1.00 15.48     0.019 A 
HETATM    2  C11   D T   1       3.889  12.685   1.126  1.00 17.77     0.099 A 
HETATM    3  N12   D T   1       5.258  12.746   1.127  1.00 14.42    -0.242 NA
HETATM    4  C13   D T   1       5.967  12.228   2.162  1.00 16.70     0.103 A 
HETATM    5  C14   D T   1       5.282  11.623   3.220  1.00 16.81     0.118 A 
HETATM    6  N16   D T   1       3.938  11.543   3.226  1.00 18.92    -0.241 NA
HETATM    7  C17   D T   1       3.224  12.068   2.205  1.00 19.63     0.099 A 
HETATM    8  C18   D T   1       1.822  11.980   2.239  1.00 16.22     0.021 A 
HETATM    9  C20   D T   1       1.070  12.506   1.183  1.00 16.47     0.002 A 
HETATM   10  C22   D T   1       1.719  13.132   0.105  1.00 11.45     0.002 A 
ENDROOT
BRANCH   1  11
HETATM   11  C7    D T   1       3.744  13.853  -1.128  1.00 15.00     0.006 A 
HETATM   12  C5    D T   1       3.323  15.158  -1.423  1.00 16.13     0.030 A 
HETATM   13  C4    D T   1       3.828  15.842  -2.532  1.00 20.46     0.140 A 
HETATM   14  C3    D T   1       4.778  15.218  -3.360  1.00 19.71     0.055 A 
HETATM   15  F47   D T   1       3.389  17.085  -2.774  1.00 18.81    -0.204 F 
HETATM   16  C2    D T   1       5.187  13.902  -3.067  1.00 20.82     0.140 A 
HETATM   17  F1    D T   1       6.090  13.267  -3.819  1.00 22.79    -0.204 F 
HETATM   18  C8    D T   1       4.675  13.218  -1.957  1.00 15.46     0.030 A 
BRANCH  14  19
HETATM   19  C48   D T   1       5.363  15.978  -4.564  1.00 20.25     0.129 C 
BRANCH  19  20
HETATM   20  N51   D T   1       6.869  15.993  -4.483  1.00 24.07    -0.361 N 
HETATM   21  C52   D T   1       7.434  17.197  -3.793  1.00 22.40     0.130 C 
HETATM   22  C55   D T   1       8.984  17.186  -3.714  1.00 27.40     0.166 C 
HETATM   23  O58   D T   1       9.546  16.912  -5.013  1.00 26.30    -0.350 OA
HETATM   24  C59   D T   1       9.154  15.612  -5.493  1.00 25.21     0.166 C 
HETATM   25  C62   D T   1       7.617  15.592  -5.718  1.00 22.22     0.130 C 
ENDBRANCH  19  20
ENDBRANCH  14  19
ENDBRANCH   1  11
BRANCH   4  26
HETATM   26  C24   D T   1       7.481  12.338   2.143  1.00 15.92     0.059 A 
HETATM   27  C25   D T   1       8.412  11.933   3.053  1.00 18.01     0.098 A 
HETATM   28  N27   D T   1       9.585  12.260   2.569  1.00 18.37    -0.251 N 
HETATM   29  N28   D T   1       9.436  12.882   1.376  1.00 18.72    -0.168 NA
HETATM   30  C29   D T   1       8.214  12.969   1.046  1.00 18.29     0.123 A 
BRANCH  28  31
HETATM   31  C31   D T   1      10.923  12.093   3.121  1.00 23.01     0.110 C 
HETATM   32  C33   D T   1      10.888  12.294   4.668  1.00 23.05     0.063 C 
HETATM   33  C36   D T   1      12.290  12.119   5.304  1.00 27.20     0.292 C 
HETATM   34  N39   D T   1      12.840  10.819   4.865  1.00 30.30     0.339 N 
HETATM   35  C41   D T   1      13.052  10.710   3.393  1.00 26.52     0.292 C 
HETATM   36  C44   D T   1      11.667  10.803   2.677  1.00 29.21     0.063 C 
ENDBRANCH  28  31
ENDBRANCH   4  26
TORSDOF 5
ENDMDL
MODEL 8
REMARK VINA RESULT:    -8.929      3.508      8.573
REMARK INTER + INTRA:         -12.722
REMARK INTER:                 -12.176
REMARK INTRA:                  -0.546
REMARK UNBOUND:                -1.183
REMARK  5 active torsions:
REMARK  status: ('A' for Active; 'I' for Inactive)
REMARK    1  A    between atoms: C3_3  and  C48_30 
REMARK    2  A    between atoms: C7_6  and  C10_8 
REMARK    3  A    between atoms: C13_11  and  C24_18 
REMARK    4  A    between atoms: N27_20  and  C31_23 
REMARK    5  A    between atoms: C48_30  and  N51_31 
ROOT
HETATM    1  C10   D T   1       5.342  12.088   2.239  1.00 15.48     0.019 A 
HETATM    2  C11   D T   1       4.936  12.779   1.081  1.00 17.77     0.099 A 
HETATM    3  N12   D T   1       5.845  13.332   0.218  1.00 14.42    -0.242 NA
HETATM    4  C13   D T   1       5.426  13.989  -0.893  1.00 16.70     0.103 A 
HETATM    5  C14   D T   1       4.054  14.100  -1.139  1.00 16.81     0.118 A 
HETATM    6  N16   D T   1       3.148  13.574  -0.292  1.00 18.92    -0.241 NA
HETATM    7  C17   D T   1       3.559  12.908   0.810  1.00 19.63     0.099 A 
HETATM    8  C18   D T   1       2.595  12.360   1.673  1.00 16.22     0.021 A 
HETATM    9  C20   D T   1       3.005  11.680   2.826  1.00 16.47     0.002 A 
HETATM   10  C22   D T   1       4.374  11.536   3.104  1.00 11.45     0.002 A 
ENDROOT
BRANCH   1  11
HETATM   11  C7    D T   1       6.773  11.936   2.625  1.00 15.00     0.006 A 
HETATM   12  C5    D T   1       7.031  11.104   3.725  1.00 16.13     0.030 A 
HETATM   13  C4    D T   1       8.337  10.902   4.181  1.00 20.46     0.140 A 
HETATM   14  C3    D T   1       9.407  11.533   3.524  1.00 19.71     0.055 A 
HETATM   15  F47   D T   1       8.530  10.103   5.240  1.00 18.81    -0.204 F 
HETATM   16  C2    D T   1       9.141  12.377   2.428  1.00 20.82     0.140 A 
HETATM   17  F1    D T   1      10.123  12.996   1.767  1.00 22.79    -0.204 F 
HETATM   18  C8    D T   1       7.831  12.581   1.977  1.00 15.46     0.030 A 
BRANCH  14  19
HETATM   19  C48   D T   1      10.851  11.288   4.000  1.00 20.25     0.129 C 
BRANCH  19  20
HETATM   20  N51   D T   1      11.364  12.499   4.739  1.00 24.07    -0.361 N 
HETATM   21  C52   D T   1      12.505  13.194   4.061  1.00 22.40     0.130 C 
HETATM   22  C55   D T   1      13.010  14.440   4.835  1.00 27.40     0.166 C 
HETATM   23  O58   D T   1      13.238  14.108   6.219  1.00 26.30    -0.350 OA
HETATM   24  C59   D T   1      12.021  13.691   6.868  1.00 25.21     0.166 C 
HETATM   25  C62   D T   1      11.526  12.368   6.223  1.00 22.22     0.130 C 
ENDBRANCH  19  20
ENDBRANCH  14  19
ENDBRANCH   1  11
BRANCH   4  26
HETATM   26  C24   D T   1       6.461  14.565  -1.842  1.00 15.92     0.059 A 
HETATM   27  C25   D T   1       6.958  14.080  -3.015  1.00 18.01     0.098 A 
HETATM   28  N27   D T   1       7.832  14.955  -3.448  1.00 18.37    -0.251 N 
HETATM   29  N28   D T   1       7.926  15.986  -2.578  1.00 18.72    -0.168 NA
HETATM   30  C29   D T   1       7.142  15.836  -1.591  1.00 18.29     0.123 A 
BRANCH  28  31
HETATM   31  C31   D T   1       8.681  14.945  -4.633  1.00 23.01     0.110 C 
HETATM   32  C33   D T   1       7.986  15.723  -5.792  1.00 23.05     0.063 C 
HETATM   33  C36   D T   1       8.856  15.747  -7.074  1.00 27.20     0.292 C 
HETATM   34  N39   D T   1      10.199  16.249  -6.715  1.00 30.30     0.339 N 
HETATM   35  C41   D T   1      10.935  15.387  -5.747  1.00 26.52     0.292 C 
HETATM   36  C44   D T   1      10.157  15.370  -4.393  1.00 29.21     0.063 C 
ENDBRANCH  28  31
ENDBRANCH   4  26
TORSDOF 5
ENDMDL
MODEL 9
REMARK VINA RESULT:    -8.923      3.123      5.641
REMARK INTER + INTRA:         -12.713
REMARK INTER:                 -11.401
REMARK INTRA:                  -1.313
REMARK UNBOUND:                -1.183
REMARK  5 active torsions:
REMARK  status: ('A' for Active; 'I' for Inactive)
REMARK    1  A    between atoms: C3_3  and  C48_30 
REMARK    2  A    between atoms: C7_6  and  C10_8 
REMARK    3  A    between atoms: C13_11  and  C24_18 
REMARK    4  A    between atoms: N27_20  and  C31_23 
REMARK    5  A    between atoms: C48_30  and  N51_31 
ROOT
HETATM    1  C10   D T   1       5.351  17.916  -5.122  1.00 15.48     0.019 A 
HETATM    2  C11   D T   1       4.752  17.354  -3.978  1.00 17.77     0.099 A 
HETATM    3  N12   D T   1       5.410  16.439  -3.199  1.00 14.42    -0.242 NA
HETATM    4  C13   D T   1       4.810  15.916  -2.099  1.00 16.70     0.103 A 
HETATM    5  C14   D T   1       3.509  16.318  -1.779  1.00 16.81     0.118 A 
HETATM    6  N16   D T   1       2.846  17.207  -2.543  1.00 18.92    -0.241 NA
HETATM    7  C17   D T   1       3.441  17.740  -3.633  1.00 19.63     0.099 A 
HETATM    8  C18   D T   1       2.731  18.672  -4.409  1.00 16.22     0.021 A 
HETATM    9  C20   D T   1       3.329  19.222  -5.549  1.00 16.47     0.002 A 
HETATM   10  C22   D T   1       4.638  18.853  -5.900  1.00 11.45     0.002 A 
ENDROOT
BRANCH   1  11
HETATM   11  C7    D T   1       6.715  17.539  -5.584  1.00 15.00     0.006 A 
HETATM   12  C5    D T   1       7.758  18.393  -5.197  1.00 16.13     0.030 A 
HETATM   13  C4    D T   1       9.076  18.141  -5.588  1.00 20.46     0.140 A 
HETATM   14  C3    D T   1       9.363  17.010  -6.372  1.00 19.71     0.055 A 
HETATM   15  F47   D T   1      10.035  18.991  -5.197  1.00 18.81    -0.204 F 
HETATM   16  C2    D T   1       8.311  16.162  -6.770  1.00 20.82     0.140 A 
HETATM   17  F1    D T   1       8.531  15.073  -7.510  1.00 22.79    -0.204 F 
HETATM   18  C8    D T   1       6.990  16.421  -6.380  1.00 15.46     0.030 A 
BRANCH  14  19
HETATM   19  C48   D T   1      10.817  16.707  -6.778  1.00 20.25     0.129 C 
BRANCH  19  20
HETATM   20  N51   D T   1      11.632  16.356  -5.558  1.00 24.07    -0.361 N 
HETATM   21  C52   D T   1      12.865  17.190  -5.384  1.00 22.40     0.130 C 
HETATM   22  C55   D T   1      13.683  16.816  -4.119  1.00 27.40     0.166 C 
HETATM   23  O58   D T   1      13.901  15.392  -4.070  1.00 26.30    -0.350 OA
HETATM   24  C59   D T   1      12.657  14.671  -3.978  1.00 25.21     0.166 C 
HETATM   25  C62   D T   1      11.838  14.899  -5.278  1.00 22.22     0.130 C 
ENDBRANCH  19  20
ENDBRANCH  14  19
ENDBRANCH   1  11
BRANCH   4  26
HETATM   26  C24   D T   1       5.578  14.925  -1.243  1.00 15.92     0.059 A 
HETATM   27  C25   D T   1       5.136  13.937  -0.415  1.00 18.01     0.098 A 
HETATM   28  N27   D T   1       6.198  13.364   0.094  1.00 18.37    -0.251 N 
HETATM   29  N28   D T   1       7.317  13.965  -0.370  1.00 18.72    -0.168 NA
HETATM   30  C29   D T   1       7.039  14.907  -1.175  1.00 18.29     0.123 A 
BRANCH  28  31
HETATM   31  C31   D T   1       6.323  12.273   1.053  1.00 23.01     0.110 C 
HETATM   32  C33   D T   1       7.818  11.845   1.177  1.00 23.05     0.063 C 
HETATM   33  C36   D T   1       8.004  10.690   2.194  1.00 27.20     0.292 C 
HETATM   34  N39   D T   1       7.369  11.086   3.468  1.00 30.30     0.339 N 
HETATM   35  C41   D T   1       5.898  11.306   3.377  1.00 26.52     0.292 C 
HETATM   36  C44   D T   1       5.627  12.512   2.422  1.00 29.21     0.063 C 
ENDBRANCH  28  31
ENDBRANCH   4  26
TORSDOF 5
ENDMDL
