MODEL 1
REMARK VINA RESULT:      -7.5      0.000      0.000
REMARK  5 active torsions:
REMARK  status: ('A' for Active; 'I' for Inactive)
REMARK    1  A    between atoms: C3_3  and  C48_30 
REMARK    2  A    between atoms: C7_6  and  C10_8 
REMARK    3  A    between atoms: C13_11  and  C24_18 
REMARK    4  A    between atoms: N27_20  and  C31_23 
REMARK    5  A    between atoms: C48_30  and  N51_31 
ROOT
HETATM    1  C10   D T   1      12.803  12.672   2.526  1.00 15.48     0.019 A 
HETATM    2  C11   D T   1      12.248  13.960   2.650  1.00 17.77     0.099 A 
HETATM    3  N12   D T   1      12.919  14.974   3.281  1.00 14.42    -0.242 NA
HETATM    4  C13   D T   1      12.361  16.208   3.382  1.00 16.70     0.103 A 
HETATM    5  C14   D T   1      11.091  16.426   2.840  1.00 16.81     0.118 A 
HETATM    6  N16   D T   1      10.414  15.434   2.229  1.00 18.92    -0.241 NA
HETATM    7  C17   D T   1      10.967  14.206   2.114  1.00 19.63     0.099 A 
HETATM    8  C18   D T   1      10.245  13.191   1.464  1.00 16.22     0.021 A 
HETATM    9  C20   D T   1      10.800  11.911   1.351  1.00 16.47     0.002 A 
HETATM   10  C22   D T   1      12.080  11.654   1.872  1.00 11.45     0.002 A 
ENDROOT
BRANCH   1  11
HETATM   11  C7    D T   1      14.132  12.310   3.095  1.00 15.00     0.006 A 
HETATM   12  C5    D T   1      15.192  13.176   2.792  1.00 16.13     0.030 A 
HETATM   13  C4    D T   1      16.484  12.923   3.262  1.00 20.46     0.140 A 
HETATM   14  C3    D T   1      16.723  11.790   4.058  1.00 19.71     0.055 A 
HETATM   15  F47   D T   1      17.463  13.779   2.938  1.00 18.81    -0.204 F 
HETATM   16  C2    D T   1      15.658  10.915   4.349  1.00 20.82     0.140 A 
HETATM   17  F1    D T   1      15.832   9.828   5.104  1.00 22.79    -0.204 F 
HETATM   18  C8    D T   1      14.366  11.169   3.871  1.00 15.46     0.030 A 
BRANCH  14  19
HETATM   19  C48   D T   1      18.137  11.524   4.607  1.00 20.25     0.129 C 
BRANCH  19  20
HETATM   20  N51   D T   1      18.364  12.331   5.862  1.00 24.07    -0.361 N 
HETATM   21  C52   D T   1      18.009  13.780   5.732  1.00 22.40     0.130 C 
HETATM   22  C55   D T   1      18.243  14.586   7.037  1.00 27.40     0.166 C 
HETATM   23  O58   D T   1      19.565  14.330   7.550  1.00 26.30    -0.350 OA
HETATM   24  C59   D T   1      19.737  12.942   7.893  1.00 25.21     0.166 C 
HETATM   25  C62   D T   1      19.642  12.080   6.603  1.00 22.22     0.130 C 
ENDBRANCH  19  20
ENDBRANCH  14  19
ENDBRANCH   1  11
BRANCH   4  26
HETATM   26  C24   D T   1      13.144  17.316   4.064  1.00 15.92     0.059 A 
HETATM   27  C25   D T   1      14.392  17.803   3.816  1.00 18.01     0.098 A 
HETATM   28  N27   D T   1      14.607  18.759   4.686  1.00 18.37    -0.251 N 
HETATM   29  N28   D T   1      13.537  18.891   5.502  1.00 18.72    -0.168 NA
HETATM   30  C29   D T   1      12.617  18.070   5.201  1.00 18.29     0.123 A 
BRANCH  28  31
HETATM   31  C31   D T   1      15.775  19.606   4.900  1.00 23.01     0.110 C 
HETATM   32  C33   D T   1      15.338  20.958   5.541  1.00 23.05     0.063 C 
HETATM   33  C36   D T   1      16.547  21.894   5.795  1.00 27.20     0.292 C 
HETATM   34  N39   D T   1      17.559  21.144   6.568  1.00 30.30     0.339 N 
HETATM   35  C41   D T   1      18.113  19.955   5.860  1.00 26.52     0.292 C 
HETATM   36  C44   D T   1      16.963  18.924   5.631  1.00 29.21     0.063 C 
ENDBRANCH  28  31
ENDBRANCH   4  26
TORSDOF 5
ENDMDL
MODEL 2
REMARK VINA RESULT:      -6.4      2.697      7.173
REMARK  5 active torsions:
REMARK  status: ('A' for Active; 'I' for Inactive)
REMARK    1  A    between atoms: C3_3  and  C48_30 
REMARK    2  A    between atoms: C7_6  and  C10_8 
REMARK    3  A    between atoms: C13_11  and  C24_18 
REMARK    4  A    between atoms: N27_20  and  C31_23 
REMARK    5  A    between atoms: C48_30  and  N51_31 
ROOT
HETATM    1  C10   D T   1      11.631  16.417   2.393  1.00 15.48     0.019 A 
HETATM    2  C11   D T   1      11.642  15.054   2.038  1.00 17.77     0.099 A 
HETATM    3  N12   D T   1      12.582  14.191   2.533  1.00 14.42    -0.242 NA
HETATM    4  C13   D T   1      12.566  12.880   2.178  1.00 16.70     0.103 A 
HETATM    5  C14   D T   1      11.581  12.428   1.293  1.00 16.81     0.118 A 
HETATM    6  N16   D T   1      10.659  13.270   0.788  1.00 18.92    -0.241 NA
HETATM    7  C17   D T   1      10.662  14.573   1.146  1.00 19.63     0.099 A 
HETATM    8  C18   D T   1       9.683  15.429   0.612  1.00 16.22     0.021 A 
HETATM    9  C20   D T   1       9.683  16.784   0.963  1.00 16.47     0.002 A 
HETATM   10  C22   D T   1      10.648  17.276   1.859  1.00 11.45     0.002 A 
ENDROOT
BRANCH   1  11
HETATM   11  C7    D T   1      12.649  17.022   3.297  1.00 15.00     0.006 A 
HETATM   12  C5    D T   1      13.990  16.831   2.935  1.00 16.13     0.030 A 
HETATM   13  C4    D T   1      15.027  17.344   3.719  1.00 20.46     0.140 A 
HETATM   14  C3    D T   1      14.722  18.070   4.884  1.00 19.71     0.055 A 
HETATM   15  F47   D T   1      16.292  17.129   3.332  1.00 18.81    -0.204 F 
HETATM   16  C2    D T   1      13.373  18.247   5.252  1.00 20.82     0.140 A 
HETATM   17  F1    D T   1      13.031  18.931   6.346  1.00 22.79    -0.204 F 
HETATM   18  C8    D T   1      12.338  17.727   4.465  1.00 15.46     0.030 A 
BRANCH  14  19
HETATM   19  C48   D T   1      15.858  18.666   5.735  1.00 20.25     0.129 C 
BRANCH  19  20
HETATM   20  N51   D T   1      16.022  20.133   5.423  1.00 24.07    -0.361 N 
HETATM   21  C52   D T   1      17.292  20.732   5.944  1.00 22.40     0.130 C 
HETATM   22  C55   D T   1      17.442  22.239   5.603  1.00 27.40     0.166 C 
HETATM   23  O58   D T   1      16.242  22.952   5.963  1.00 26.30    -0.350 OA
HETATM   24  C59   D T   1      15.104  22.478   5.219  1.00 25.21     0.166 C 
HETATM   25  C62   D T   1      14.816  21.002   5.610  1.00 22.22     0.130 C 
ENDBRANCH  19  20
ENDBRANCH  14  19
ENDBRANCH   1  11
BRANCH   4  26
HETATM   26  C24   D T   1      13.606  11.945   2.768  1.00 15.92     0.059 A 
HETATM   27  C25   D T   1      14.731  12.211   3.488  1.00 18.01     0.098 A 
HETATM   28  N27   D T   1      15.291  11.058   3.760  1.00 18.37    -0.251 N 
HETATM   29  N28   D T   1      14.564  10.052   3.220  1.00 18.72    -0.168 NA
HETATM   30  C29   D T   1      13.542  10.492   2.610  1.00 18.29     0.123 A 
BRANCH  28  31
HETATM   31  C31   D T   1      16.519  10.741   4.479  1.00 23.01     0.110 C 
HETATM   32  C33   D T   1      17.546  10.081   3.509  1.00 23.05     0.063 C 
HETATM   33  C36   D T   1      18.874   9.731   4.226  1.00 27.20     0.292 C 
HETATM   34  N39   D T   1      19.366  10.945   4.911  1.00 30.30     0.339 N 
HETATM   35  C41   D T   1      18.458  11.457   5.976  1.00 26.52     0.292 C 
HETATM   36  C44   D T   1      17.113  11.904   5.320  1.00 29.21     0.063 C 
ENDBRANCH  28  31
ENDBRANCH   4  26
TORSDOF 5
ENDMDL
MODEL 3
REMARK VINA RESULT:      -5.6      6.012     10.768
REMARK  5 active torsions:
REMARK  status: ('A' for Active; 'I' for Inactive)
REMARK    1  A    between atoms: C3_3  and  C48_30 
REMARK    2  A    between atoms: C7_6  and  C10_8 
REMARK    3  A    between atoms: C13_11  and  C24_18 
REMARK    4  A    between atoms: N27_20  and  C31_23 
REMARK    5  A    between atoms: C48_30  and  N51_31 
ROOT
HETATM    1  C10   D T   1      22.049  22.961   6.773  1.00 15.48     0.019 A 
HETATM    2  C11   D T   1      20.643  22.978   6.844  1.00 17.77     0.099 A 
HETATM    3  N12   D T   1      19.886  21.937   6.375  1.00 14.42    -0.242 NA
HETATM    4  C13   D T   1      18.532  21.978   6.461  1.00 16.70     0.103 A 
HETATM    5  C14   D T   1      17.921  23.103   7.026  1.00 16.81     0.118 A 
HETATM    6  N16   D T   1      18.652  24.140   7.477  1.00 18.92    -0.241 NA
HETATM    7  C17   D T   1      20.001  24.101   7.407  1.00 19.63     0.099 A 
HETATM    8  C18   D T   1      20.741  25.191   7.895  1.00 16.22     0.021 A 
HETATM    9  C20   D T   1      22.138  25.170   7.814  1.00 16.47     0.002 A 
HETATM   10  C22   D T   1      22.792  24.054   7.264  1.00 11.45     0.002 A 
ENDROOT
BRANCH   1  11
HETATM   11  C7    D T   1      22.810  21.836   6.161  1.00 15.00     0.006 A 
HETATM   12  C5    D T   1      22.908  21.844   4.762  1.00 16.13     0.030 A 
HETATM   13  C4    D T   1      23.588  20.829   4.083  1.00 20.46     0.140 A 
HETATM   14  C3    D T   1      24.191  19.789   4.812  1.00 19.71     0.055 A 
HETATM   15  F47   D T   1      23.647  20.880   2.745  1.00 18.81    -0.204 F 
HETATM   16  C2    D T   1      24.078  19.778   6.217  1.00 20.82     0.140 A 
HETATM   17  F1    D T   1      24.635  18.816   6.955  1.00 22.79    -0.204 F 
HETATM   18  C8    D T   1      23.391  20.794   6.893  1.00 15.46     0.030 A 
BRANCH  14  19
HETATM   19  C48   D T   1      24.969  18.686   4.073  1.00 20.25     0.129 C 
BRANCH  19  20
HETATM   20  N51   D T   1      26.453  18.918   4.214  1.00 24.07    -0.361 N 
HETATM   21  C52   D T   1      27.227  18.730   2.945  1.00 22.40     0.130 C 
HETATM   22  C55   D T   1      28.748  18.983   3.113  1.00 27.40     0.166 C 
HETATM   23  O58   D T   1      29.253  18.247   4.246  1.00 26.30    -0.350 OA
HETATM   24  C59   D T   1      28.631  18.677   5.472  1.00 25.21     0.166 C 
HETATM   25  C62   D T   1      27.116  18.335   5.424  1.00 22.22     0.130 C 
ENDBRANCH  19  20
ENDBRANCH  14  19
ENDBRANCH   1  11
BRANCH   4  26
HETATM   26  C24   D T   1      17.726  20.795   5.956  1.00 15.92     0.059 A 
HETATM   27  C25   D T   1      17.916  19.456   6.123  1.00 18.01     0.098 A 
HETATM   28  N27   D T   1      16.943  18.851   5.488  1.00 18.37    -0.251 N 
HETATM   29  N28   D T   1      16.137  19.765   4.899  1.00 18.72    -0.168 NA
HETATM   30  C29   D T   1      16.531  20.950   5.127  1.00 18.29     0.123 A 
BRANCH  28  31
HETATM   31  C31   D T   1      16.659  17.432   5.311  1.00 23.01     0.110 C 
HETATM   32  C33   D T   1      15.395  17.038   6.135  1.00 23.05     0.063 C 
HETATM   33  C36   D T   1      15.047  15.537   5.974  1.00 27.20     0.292 C 
HETATM   34  N39   D T   1      14.960  15.233   4.530  1.00 30.30     0.339 N 
HETATM   35  C41   D T   1      16.236  15.431   3.786  1.00 26.52     0.292 C 
HETATM   36  C44   D T   1      16.621  16.943   3.837  1.00 29.21     0.063 C 
ENDBRANCH  28  31
ENDBRANCH   4  26
TORSDOF 5
ENDMDL
MODEL 4
REMARK VINA RESULT:      -5.4      4.117      9.041
REMARK  5 active torsions:
REMARK  status: ('A' for Active; 'I' for Inactive)
REMARK    1  A    between atoms: C3_3  and  C48_30 
REMARK    2  A    between atoms: C7_6  and  C10_8 
REMARK    3  A    between atoms: C13_11  and  C24_18 
REMARK    4  A    between atoms: N27_20  and  C31_23 
REMARK    5  A    between atoms: C48_30  and  N51_31 
ROOT
HETATM    1  C10   D T   1      15.274  22.238   5.361  1.00 15.48     0.019 A 
HETATM    2  C11   D T   1      16.465  22.887   5.741  1.00 17.77     0.099 A 
HETATM    3  N12   D T   1      17.578  22.184   6.119  1.00 14.42    -0.242 NA
HETATM    4  C13   D T   1      18.714  22.836   6.475  1.00 16.70     0.103 A 
HETATM    5  C14   D T   1      18.728  24.235   6.459  1.00 16.81     0.118 A 
HETATM    6  N16   D T   1      17.637  24.939   6.103  1.00 18.92    -0.241 NA
HETATM    7  C17   D T   1      16.505  24.297   5.735  1.00 19.63     0.099 A 
HETATM    8  C18   D T   1      15.383  25.054   5.359  1.00 16.22     0.021 A 
HETATM    9  C20   D T   1      14.201  24.402   4.990  1.00 16.47     0.002 A 
HETATM   10  C22   D T   1      14.148  22.998   4.982  1.00 11.45     0.002 A 
ENDROOT
BRANCH   1  11
HETATM   11  C7    D T   1      15.126  20.755   5.374  1.00 15.00     0.006 A 
HETATM   12  C5    D T   1      13.849  20.263   5.678  1.00 16.13     0.030 A 
HETATM   13  C4    D T   1      13.602  18.888   5.731  1.00 20.46     0.140 A 
HETATM   14  C3    D T   1      14.646  17.985   5.467  1.00 19.71     0.055 A 
HETATM   15  F47   D T   1      12.365  18.469   6.032  1.00 18.81    -0.204 F 
HETATM   16  C2    D T   1      15.932  18.484   5.176  1.00 20.82     0.140 A 
HETATM   17  F1    D T   1      16.955  17.669   4.914  1.00 22.79    -0.204 F 
HETATM   18  C8    D T   1      16.176  19.862   5.129  1.00 15.46     0.030 A 
BRANCH  14  19
HETATM   19  C48   D T   1      14.374  16.470   5.490  1.00 20.25     0.129 C 
BRANCH  19  20
HETATM   20  N51   D T   1      14.040  15.984   4.102  1.00 24.07    -0.361 N 
HETATM   21  C52   D T   1      12.730  16.483   3.576  1.00 22.40     0.130 C 
HETATM   22  C55   D T   1      12.414  15.977   2.143  1.00 27.40     0.166 C 
HETATM   23  O58   D T   1      12.591  14.548   2.070  1.00 26.30    -0.350 OA
HETATM   24  C59   D T   1      13.954  14.172   2.343  1.00 25.21     0.166 C 
HETATM   25  C62   D T   1      14.302  14.537   3.813  1.00 22.22     0.130 C 
ENDBRANCH  19  20
ENDBRANCH  14  19
ENDBRANCH   1  11
BRANCH   4  26
HETATM   26  C24   D T   1      19.937  22.025   6.862  1.00 15.92     0.059 A 
HETATM   27  C25   D T   1      21.238  22.142   6.476  1.00 18.01     0.098 A 
HETATM   28  N27   D T   1      21.906  21.199   7.093  1.00 18.37    -0.251 N 
HETATM   29  N28   D T   1      21.066  20.462   7.857  1.00 18.72    -0.168 NA
HETATM   30  C29   D T   1      19.872  20.886   7.778  1.00 18.29     0.123 A 
BRANCH  28  31
HETATM   31  C31   D T   1      23.318  20.839   7.040  1.00 23.01     0.110 C 
HETATM   32  C33   D T   1      23.773  20.702   5.555  1.00 23.05     0.063 C 
HETATM   33  C36   D T   1      25.273  20.326   5.444  1.00 27.20     0.292 C 
HETATM   34  N39   D T   1      26.054  21.296   6.241  1.00 30.30     0.339 N 
HETATM   35  C41   D T   1      25.743  21.281   7.698  1.00 26.52     0.292 C 
HETATM   36  C44   D T   1      24.259  21.724   7.902  1.00 29.21     0.063 C 
ENDBRANCH  28  31
ENDBRANCH   4  26
TORSDOF 5
ENDMDL
MODEL 5
REMARK VINA RESULT:      -5.2      7.861     13.241
REMARK  5 active torsions:
REMARK  status: ('A' for Active; 'I' for Inactive)
REMARK    1  A    between atoms: C3_3  and  C48_30 
REMARK    2  A    between atoms: C7_6  and  C10_8 
REMARK    3  A    between atoms: C13_11  and  C24_18 
REMARK    4  A    between atoms: N27_20  and  C31_23 
REMARK    5  A    between atoms: C48_30  and  N51_31 
ROOT
HETATM    1  C10   D T   1      25.578  24.625   7.475  1.00 15.48     0.019 A 
HETATM    2  C11   D T   1      24.357  25.318   7.588  1.00 17.77     0.099 A 
HETATM    3  N12   D T   1      23.153  24.673   7.492  1.00 14.42    -0.242 NA
HETATM    4  C13   D T   1      21.991  25.365   7.610  1.00 16.70     0.103 A 
HETATM    5  C14   D T   1      22.042  26.747   7.820  1.00 16.81     0.118 A 
HETATM    6  N16   D T   1      23.219  27.396   7.902  1.00 18.92    -0.241 NA
HETATM    7  C17   D T   1      24.380  26.712   7.799  1.00 19.63     0.099 A 
HETATM    8  C18   D T   1      25.595  27.412   7.898  1.00 16.22     0.021 A 
HETATM    9  C20   D T   1      26.804  26.718   7.777  1.00 16.47     0.002 A 
HETATM   10  C22   D T   1      26.797  25.327   7.576  1.00 11.45     0.002 A 
ENDROOT
BRANCH   1  11
HETATM   11  C7    D T   1      25.652  23.160   7.213  1.00 15.00     0.006 A 
HETATM   12  C5    D T   1      26.828  22.517   7.622  1.00 16.13     0.030 A 
HETATM   13  C4    D T   1      27.007  21.147   7.413  1.00 20.46     0.140 A 
HETATM   14  C3    D T   1      25.991  20.400   6.792  1.00 19.71     0.055 A 
HETATM   15  F47   D T   1      28.153  20.580   7.816  1.00 18.81    -0.204 F 
HETATM   16  C2    D T   1      24.816  21.054   6.370  1.00 20.82     0.140 A 
HETATM   17  F1    D T   1      23.820  20.390   5.779  1.00 22.79    -0.204 F 
HETATM   18  C8    D T   1      24.643  22.428   6.577  1.00 15.46     0.030 A 
BRANCH  14  19
HETATM   19  C48   D T   1      26.168  18.884   6.588  1.00 20.25     0.129 C 
BRANCH  19  20
HETATM   20  N51   D T   1      27.076  18.624   5.411  1.00 24.07    -0.361 N 
HETATM   21  C52   D T   1      26.417  18.802   4.077  1.00 22.40     0.130 C 
HETATM   22  C55   D T   1      27.372  18.537   2.884  1.00 27.40     0.166 C 
HETATM   23  O58   D T   1      28.054  17.279   3.061  1.00 26.30    -0.350 OA
HETATM   24  C59   D T   1      28.875  17.287   4.244  1.00 25.21     0.166 C 
HETATM   25  C62   D T   1      27.965  17.421   5.497  1.00 22.22     0.130 C 
ENDBRANCH  19  20
ENDBRANCH  14  19
ENDBRANCH   1  11
BRANCH   4  26
HETATM   26  C24   D T   1      20.675  24.613   7.526  1.00 15.92     0.059 A 
HETATM   27  C25   D T   1      20.403  23.345   7.110  1.00 18.01     0.098 A 
HETATM   28  N27   D T   1      19.109  23.174   7.230  1.00 18.37    -0.251 N 
HETATM   29  N28   D T   1      18.534  24.306   7.696  1.00 18.72    -0.168 NA
HETATM   30  C29   D T   1      19.396  25.216   7.901  1.00 18.29     0.123 A 
BRANCH  28  31
HETATM   31  C31   D T   1      18.266  22.027   6.912  1.00 23.01     0.110 C 
HETATM   32  C33   D T   1      16.999  22.499   6.136  1.00 23.05     0.063 C 
HETATM   33  C36   D T   1      16.072  21.313   5.769  1.00 27.20     0.292 C 
HETATM   34  N39   D T   1      16.880  20.293   5.068  1.00 30.30     0.339 N 
HETATM   35  C41   D T   1      17.975  19.707   5.892  1.00 26.52     0.292 C 
HETATM   36  C44   D T   1      18.999  20.832   6.244  1.00 29.21     0.063 C 
ENDBRANCH  28  31
ENDBRANCH   4  26
TORSDOF 5
ENDMDL
MODEL 6
REMARK VINA RESULT:      -5.1      3.229      6.428
REMARK  5 active torsions:
REMARK  status: ('A' for Active; 'I' for Inactive)
REMARK    1  A    between atoms: C3_3  and  C48_30 
REMARK    2  A    between atoms: C7_6  and  C10_8 
REMARK    3  A    between atoms: C13_11  and  C24_18 
REMARK    4  A    between atoms: N27_20  and  C31_23 
REMARK    5  A    between atoms: C48_30  and  N51_31 
ROOT
HETATM    1  C10   D T   1      14.093  18.895   5.158  1.00 15.48     0.019 A 
HETATM    2  C11   D T   1      14.625  20.151   5.511  1.00 17.77     0.099 A 
HETATM    3  N12   D T   1      15.970  20.335   5.695  1.00 14.42    -0.242 NA
HETATM    4  C13   D T   1      16.456  21.558   6.029  1.00 16.70     0.103 A 
HETATM    5  C14   D T   1      15.563  22.623   6.192  1.00 16.81     0.118 A 
HETATM    6  N16   D T   1      14.237  22.452   6.028  1.00 18.92    -0.241 NA
HETATM    7  C17   D T   1      13.747  21.240   5.682  1.00 19.63     0.099 A 
HETATM    8  C18   D T   1      12.361  21.091   5.507  1.00 16.22     0.021 A 
HETATM    9  C20   D T   1      11.839  19.838   5.164  1.00 16.47     0.002 A 
HETATM   10  C22   D T   1      12.702  18.745   4.980  1.00 11.45     0.002 A 
ENDROOT
BRANCH   1  11
HETATM   11  C7    D T   1      14.939  17.680   4.993  1.00 15.00     0.006 A 
HETATM   12  C5    D T   1      14.954  17.105   3.715  1.00 16.13     0.030 A 
HETATM   13  C4    D T   1      15.704  15.954   3.453  1.00 20.46     0.140 A 
HETATM   14  C3    D T   1      16.460  15.369   4.483  1.00 19.71     0.055 A 
HETATM   15  F47   D T   1      15.680  15.440   2.215  1.00 18.81    -0.204 F 
HETATM   16  C2    D T   1      16.431  15.942   5.770  1.00 20.82     0.140 A 
HETATM   17  F1    D T   1      17.134  15.428   6.781  1.00 22.79    -0.204 F 
HETATM   18  C8    D T   1      15.675  17.092   6.029  1.00 15.46     0.030 A 
BRANCH  14  19
HETATM   19  C48   D T   1      17.314  14.121   4.194  1.00 20.25     0.129 C 
BRANCH  19  20
HETATM   20  N51   D T   1      16.433  12.990   3.724  1.00 24.07    -0.361 N 
HETATM   21  C52   D T   1      15.319  12.649   4.665  1.00 22.40     0.130 C 
HETATM   22  C55   D T   1      14.422  11.490   4.156  1.00 27.40     0.166 C 
HETATM   23  O58   D T   1      15.236  10.372   3.750  1.00 26.30    -0.350 OA
HETATM   24  C59   D T   1      16.106  10.723   2.657  1.00 25.21     0.166 C 
HETATM   25  C62   D T   1      17.122  11.796   3.137  1.00 22.22     0.130 C 
ENDBRANCH  19  20
ENDBRANCH  14  19
ENDBRANCH   1  11
BRANCH   4  26
HETATM   26  C24   D T   1      17.954  21.733   6.199  1.00 15.92     0.059 A 
HETATM   27  C25   D T   1      18.959  20.814   6.214  1.00 18.01     0.098 A 
HETATM   28  N27   D T   1      20.077  21.473   6.393  1.00 18.37    -0.251 N 
HETATM   29  N28   D T   1      19.819  22.796   6.511  1.00 18.72    -0.168 NA
HETATM   30  C29   D T   1      18.578  23.040   6.407  1.00 18.29     0.123 A 
BRANCH  28  31
HETATM   31  C31   D T   1      21.451  21.002   6.512  1.00 23.01     0.110 C 
HETATM   32  C33   D T   1      22.303  21.545   5.324  1.00 23.05     0.063 C 
HETATM   33  C36   D T   1      23.777  21.076   5.410  1.00 27.20     0.292 C 
HETATM   34  N39   D T   1      24.297  21.423   6.749  1.00 30.30     0.339 N 
HETATM   35  C41   D T   1      23.594  20.743   7.873  1.00 26.52     0.292 C 
HETATM   36  C44   D T   1      22.108  21.222   7.903  1.00 29.21     0.063 C 
ENDBRANCH  28  31
ENDBRANCH   4  26
TORSDOF 5
ENDMDL
MODEL 7
REMARK VINA RESULT:      -5.0      3.291      6.952
REMARK  5 active torsions:
REMARK  status: ('A' for Active; 'I' for Inactive)
REMARK    1  A    between atoms: C3_3  and  C48_30 
REMARK    2  A    between atoms: C7_6  and  C10_8 
REMARK    3  A    between atoms: C13_11  and  C24_18 
REMARK    4  A    between atoms: N27_20  and  C31_23 
REMARK    5  A    between atoms: C48_30  and  N51_31 
ROOT
HETATM    1  C10   D T   1      13.404  19.930   5.379  1.00 15.48     0.019 A 
HETATM    2  C11   D T   1      13.878  21.242   5.572  1.00 17.77     0.099 A 
HETATM    3  N12   D T   1      15.208  21.505   5.763  1.00 14.42    -0.242 NA
HETATM    4  C13   D T   1      15.638  22.780   5.941  1.00 16.70     0.103 A 
HETATM    5  C14   D T   1      14.702  23.819   5.938  1.00 16.81     0.118 A 
HETATM    6  N16   D T   1      13.389  23.574   5.766  1.00 18.92    -0.241 NA
HETATM    7  C17   D T   1      12.955  22.308   5.574  1.00 19.63     0.099 A 
HETATM    8  C18   D T   1      11.581  22.079   5.387  1.00 16.22     0.021 A 
HETATM    9  C20   D T   1      11.116  20.772   5.204  1.00 16.47     0.002 A 
HETATM   10  C22   D T   1      12.025  19.701   5.189  1.00 11.45     0.002 A 
ENDROOT
BRANCH   1  11
HETATM   11  C7    D T   1      14.299  18.739   5.400  1.00 15.00     0.006 A 
HETATM   12  C5    D T   1      13.832  17.626   6.112  1.00 16.13     0.030 A 
HETATM   13  C4    D T   1      14.598  16.461   6.208  1.00 20.46     0.140 A 
HETATM   14  C3    D T   1      15.851  16.400   5.573  1.00 19.71     0.055 A 
HETATM   15  F47   D T   1      14.109  15.426   6.906  1.00 18.81    -0.204 F 
HETATM   16  C2    D T   1      16.323  17.526   4.870  1.00 20.82     0.140 A 
HETATM   17  F1    D T   1      17.503  17.518   4.247  1.00 22.79    -0.204 F 
HETATM   18  C8    D T   1      15.554  18.693   4.781  1.00 15.46     0.030 A 
BRANCH  14  19
HETATM   19  C48   D T   1      16.685  15.108   5.646  1.00 20.25     0.129 C 
BRANCH  19  20
HETATM   20  N51   D T   1      15.943  13.975   4.981  1.00 24.07    -0.361 N 
HETATM   21  C52   D T   1      16.506  12.618   5.273  1.00 22.40     0.130 C 
HETATM   22  C55   D T   1      15.721  11.470   4.585  1.00 27.40     0.166 C 
HETATM   23  O58   D T   1      15.537  11.762   3.185  1.00 26.30    -0.350 OA
HETATM   24  C59   D T   1      14.758  12.958   2.995  1.00 25.21     0.166 C 
HETATM   25  C62   D T   1      15.547  14.176   3.550  1.00 22.22     0.130 C 
ENDBRANCH  19  20
ENDBRANCH  14  19
ENDBRANCH   1  11
BRANCH   4  26
HETATM   26  C24   D T   1      17.123  23.038   6.122  1.00 15.92     0.059 A 
HETATM   27  C25   D T   1      18.098  22.262   6.674  1.00 18.01     0.098 A 
HETATM   28  N27   D T   1      19.216  22.938   6.591  1.00 18.37    -0.251 N 
HETATM   29  N28   D T   1      18.988  24.141   6.014  1.00 18.72    -0.168 NA
HETATM   30  C29   D T   1      17.766  24.283   5.703  1.00 18.29     0.123 A 
BRANCH  28  31
HETATM   31  C31   D T   1      20.564  22.609   7.039  1.00 23.01     0.110 C 
HETATM   32  C33   D T   1      21.232  21.624   6.032  1.00 23.05     0.063 C 
HETATM   33  C36   D T   1      22.673  21.248   6.463  1.00 27.20     0.292 C 
HETATM   34  N39   D T   1      23.428  22.496   6.696  1.00 30.30     0.339 N 
HETATM   35  C41   D T   1      22.888  23.341   7.798  1.00 26.52     0.292 C 
HETATM   36  C44   D T   1      21.456  23.826   7.406  1.00 29.21     0.063 C 
ENDBRANCH  28  31
ENDBRANCH   4  26
TORSDOF 5
ENDMDL
MODEL 8
REMARK VINA RESULT:      -4.9      8.087     12.939
REMARK  5 active torsions:
REMARK  status: ('A' for Active; 'I' for Inactive)
REMARK    1  A    between atoms: C3_3  and  C48_30 
REMARK    2  A    between atoms: C7_6  and  C10_8 
REMARK    3  A    between atoms: C13_11  and  C24_18 
REMARK    4  A    between atoms: N27_20  and  C31_23 
REMARK    5  A    between atoms: C48_30  and  N51_31 
ROOT
HETATM    1  C10   D T   1      25.943  23.156   7.172  1.00 15.48     0.019 A 
HETATM    2  C11   D T   1      24.626  23.613   7.373  1.00 17.77     0.099 A 
HETATM    3  N12   D T   1      23.548  22.779   7.242  1.00 14.42    -0.242 NA
HETATM    4  C13   D T   1      22.289  23.245   7.447  1.00 16.70     0.103 A 
HETATM    5  C14   D T   1      22.109  24.591   7.783  1.00 16.81     0.118 A 
HETATM    6  N16   D T   1      23.160  25.426   7.901  1.00 18.92    -0.241 NA
HETATM    7  C17   D T   1      24.417  24.966   7.711  1.00 19.63     0.099 A 
HETATM    8  C18   D T   1      25.496  25.855   7.850  1.00 16.22     0.021 A 
HETATM    9  C20   D T   1      26.801  25.395   7.641  1.00 16.47     0.002 A 
HETATM   10  C22   D T   1      27.026  24.048   7.313  1.00 11.45     0.002 A 
ENDROOT
BRANCH   1  11
HETATM   11  C7    D T   1      26.257  21.755   6.775  1.00 15.00     0.006 A 
HETATM   12  C5    D T   1      27.283  21.124   7.491  1.00 16.13     0.030 A 
HETATM   13  C4    D T   1      27.668  19.814   7.191  1.00 20.46     0.140 A 
HETATM   14  C3    D T   1      27.012  19.115   6.164  1.00 19.71     0.055 A 
HETATM   15  F47   D T   1      28.660  19.258   7.902  1.00 18.81    -0.204 F 
HETATM   16  C2    D T   1      25.990  19.758   5.437  1.00 20.82     0.140 A 
HETATM   17  F1    D T   1      25.333  19.138   4.455  1.00 22.79    -0.204 F 
HETATM   18  C8    D T   1      25.611  21.073   5.737  1.00 15.46     0.030 A 
BRANCH  14  19
HETATM   19  C48   D T   1      27.408  17.661   5.850  1.00 20.25     0.129 C 
BRANCH  19  20
HETATM   20  N51   D T   1      28.627  17.638   4.961  1.00 24.07    -0.361 N 
HETATM   21  C52   D T   1      28.493  16.752   3.761  1.00 22.40     0.130 C 
HETATM   22  C55   D T   1      29.754  16.752   2.857  1.00 27.40     0.166 C 
HETATM   23  O58   D T   1      30.936  16.523   3.651  1.00 26.30    -0.350 OA
HETATM   24  C59   D T   1      31.129  17.571   4.620  1.00 25.21     0.166 C 
HETATM   25  C62   D T   1      29.958  17.546   5.641  1.00 22.22     0.130 C 
ENDBRANCH  19  20
ENDBRANCH  14  19
ENDBRANCH   1  11
BRANCH   4  26
HETATM   26  C24   D T   1      21.119  22.286   7.320  1.00 15.92     0.059 A 
HETATM   27  C25   D T   1      19.857  22.484   6.849  1.00 18.01     0.098 A 
HETATM   28  N27   D T   1      19.227  21.340   6.953  1.00 18.37    -0.251 N 
HETATM   29  N28   D T   1      20.046  20.409   7.495  1.00 18.72    -0.168 NA
HETATM   30  C29   D T   1      21.195  20.888   7.745  1.00 18.29     0.123 A 
BRANCH  28  31
HETATM   31  C31   D T   1      17.855  20.974   6.624  1.00 23.01     0.110 C 
HETATM   32  C33   D T   1      17.078  22.230   6.122  1.00 23.05     0.063 C 
HETATM   33  C36   D T   1      15.611  21.891   5.752  1.00 27.20     0.292 C 
HETATM   34  N39   D T   1      15.622  20.754   4.807  1.00 30.30     0.339 N 
HETATM   35  C41   D T   1      16.195  19.498   5.368  1.00 26.52     0.292 C 
HETATM   36  C44   D T   1      17.702  19.735   5.700  1.00 29.21     0.063 C 
ENDBRANCH  28  31
ENDBRANCH   4  26
TORSDOF 5
ENDMDL
MODEL 9
REMARK VINA RESULT:      -4.7      5.881     10.958
REMARK  5 active torsions:
REMARK  status: ('A' for Active; 'I' for Inactive)
REMARK    1  A    between atoms: C3_3  and  C48_30 
REMARK    2  A    between atoms: C7_6  and  C10_8 
REMARK    3  A    between atoms: C13_11  and  C24_18 
REMARK    4  A    between atoms: N27_20  and  C31_23 
REMARK    5  A    between atoms: C48_30  and  N51_31 
ROOT
HETATM    1  C10   D T   1      21.967  23.483   7.322  1.00 15.48     0.019 A 
HETATM    2  C11   D T   1      20.571  23.412   7.148  1.00 17.77     0.099 A 
HETATM    3  N12   D T   1      19.952  22.248   6.775  1.00 14.42    -0.242 NA
HETATM    4  C13   D T   1      18.604  22.206   6.619  1.00 16.70     0.103 A 
HETATM    5  C14   D T   1      17.859  23.370   6.835  1.00 16.81     0.118 A 
HETATM    6  N16   D T   1      18.456  24.524   7.188  1.00 18.92    -0.241 NA
HETATM    7  C17   D T   1      19.796  24.571   7.357  1.00 19.63     0.099 A 
HETATM    8  C18   D T   1      20.394  25.785   7.735  1.00 16.22     0.021 A 
HETATM    9  C20   D T   1      21.782  25.851   7.899  1.00 16.47     0.002 A 
HETATM   10  C22   D T   1      22.567  24.701   7.703  1.00 11.45     0.002 A 
ENDROOT
BRANCH   1  11
HETATM   11  C7    D T   1      22.868  22.321   7.086  1.00 15.00     0.006 A 
HETATM   12  C5    D T   1      23.998  22.565   6.293  1.00 16.13     0.030 A 
HETATM   13  C4    D T   1      24.904  21.543   5.997  1.00 20.46     0.140 A 
HETATM   14  C3    D T   1      24.684  20.252   6.508  1.00 19.71     0.055 A 
HETATM   15  F47   D T   1      25.965  21.827   5.230  1.00 18.81    -0.204 F 
HETATM   16  C2    D T   1      23.539  20.007   7.292  1.00 20.82     0.140 A 
HETATM   17  F1    D T   1      23.287  18.801   7.804  1.00 22.79    -0.204 F 
HETATM   18  C8    D T   1      22.632  21.034   7.582  1.00 15.46     0.030 A 
BRANCH  14  19
HETATM   19  C48   D T   1      25.694  19.128   6.213  1.00 20.25     0.129 C 
BRANCH  19  20
HETATM   20  N51   D T   1      26.112  19.176   4.764  1.00 24.07    -0.361 N 
HETATM   21  C52   D T   1      24.975  19.068   3.794  1.00 22.40     0.130 C 
HETATM   22  C55   D T   1      25.429  19.128   2.312  1.00 27.40     0.166 C 
HETATM   23  O58   D T   1      26.511  18.203   2.084  1.00 26.30    -0.350 OA
HETATM   24  C59   D T   1      27.666  18.538   2.877  1.00 25.21     0.166 C 
HETATM   25  C62   D T   1      27.318  18.373   4.382  1.00 22.22     0.130 C 
ENDBRANCH  19  20
ENDBRANCH  14  19
ENDBRANCH   1  11
BRANCH   4  26
HETATM   26  C24   D T   1      17.948  20.893   6.232  1.00 15.92     0.059 A 
HETATM   27  C25   D T   1      16.971  20.623   5.323  1.00 18.01     0.098 A 
HETATM   28  N27   D T   1      16.755  19.332   5.367  1.00 18.37    -0.251 N 
HETATM   29  N28   D T   1      17.557  18.760   6.294  1.00 18.72    -0.168 NA
HETATM   30  C29   D T   1      18.303  19.619   6.859  1.00 18.29     0.123 A 
BRANCH  28  31
HETATM   31  C31   D T   1      15.810  18.499   4.633  1.00 23.01     0.110 C 
HETATM   32  C33   D T   1      16.393  17.063   4.458  1.00 23.05     0.063 C 
HETATM   33  C36   D T   1      15.420  16.135   3.688  1.00 27.20     0.292 C 
HETATM   34  N39   D T   1      14.102  16.188   4.356  1.00 30.30     0.339 N 
HETATM   35  C41   D T   1      13.465  17.534   4.347  1.00 26.52     0.292 C 
HETATM   36  C44   D T   1      14.353  18.519   5.171  1.00 29.21     0.063 C 
ENDBRANCH  28  31
ENDBRANCH   4  26
TORSDOF 5
ENDMDL
