MODEL 1
REMARK VINA RESULT:   -11.453      0.000      0.000
REMARK INTER + INTRA:         -15.565
REMARK INTER:                 -14.801
REMARK INTRA:                  -0.765
REMARK UNBOUND:                -0.765
REMARK  5 active torsions:
REMARK  status: ('A' for Active; 'I' for Inactive)
REMARK    1  A    between atoms: C3_3  and  C48_30 
REMARK    2  A    between atoms: C7_6  and  C10_8 
REMARK    3  A    between atoms: C13_11  and  C24_18 
REMARK    4  A    between atoms: N27_20  and  C31_23 
REMARK    5  A    between atoms: C48_30  and  N51_31 
ROOT
HETATM    1  C10   D T   1      -4.601   0.185   9.088  1.00 15.48     0.019 A 
HETATM    2  C11   D T   1      -3.359   0.828   9.247  1.00 17.77     0.099 A 
HETATM    3  N12   D T   1      -2.263   0.163   9.734  1.00 14.42    -0.242 NA
HETATM    4  C13   D T   1      -1.075   0.806   9.872  1.00 16.70     0.103 A 
HETATM    5  C14   D T   1      -0.989   2.157   9.520  1.00 16.81     0.118 A 
HETATM    6  N16   D T   1      -2.062   2.826   9.053  1.00 18.92    -0.241 NA
HETATM    7  C17   D T   1      -3.244   2.189   8.900  1.00 19.63     0.099 A 
HETATM    8  C18   D T   1      -4.345   2.906   8.403  1.00 16.22     0.021 A 
HETATM    9  C20   D T   1      -5.580   2.264   8.254  1.00 16.47     0.002 A 
HETATM   10  C22   D T   1      -5.706   0.904   8.586  1.00 11.45     0.002 A 
ENDROOT
BRANCH   1  11
HETATM   11  C7    D T   1      -4.826  -1.239   9.463  1.00 15.00     0.006 A 
HETATM   12  C5    D T   1      -4.171  -1.685  10.620  1.00 16.13     0.030 A 
HETATM   13  C4    D T   1      -4.301  -3.007  11.054  1.00 20.46     0.140 A 
HETATM   14  C3    D T   1      -5.106  -3.901  10.328  1.00 19.71     0.055 A 
HETATM   15  F47   D T   1      -3.649  -3.386  12.163  1.00 18.81    -0.204 F 
HETATM   16  C2    D T   1      -5.751  -3.452   9.157  1.00 20.82     0.140 A 
HETATM   17  F1    D T   1      -6.529  -4.260   8.435  1.00 22.79    -0.204 F 
HETATM   18  C8    D T   1      -5.614  -2.128   8.723  1.00 15.46     0.030 A 
BRANCH  14  19
HETATM   19  C48   D T   1      -5.282  -5.350  10.819  1.00 20.25     0.129 C 
BRANCH  19  20
HETATM   20  N51   D T   1      -3.934  -6.010  10.972  1.00 24.07    -0.361 N 
HETATM   21  C52   D T   1      -3.284  -6.383   9.676  1.00 22.40     0.130 C 
HETATM   22  C55   D T   1      -1.895  -7.052   9.859  1.00 27.40     0.166 C 
HETATM   23  O58   D T   1      -1.982  -8.121  10.824  1.00 26.30    -0.350 OA
HETATM   24  C59   D T   1      -2.370  -7.629  12.120  1.00 25.21     0.166 C 
HETATM   25  C62   D T   1      -3.812  -7.056  12.039  1.00 22.22     0.130 C 
ENDBRANCH  19  20
ENDBRANCH  14  19
ENDBRANCH   1  11
BRANCH   4  26
HETATM   26  C24   D T   1       0.124   0.033  10.390  1.00 15.92     0.059 A 
HETATM   27  C25   D T   1       0.648  -1.160   9.994  1.00 18.01     0.098 A 
HETATM   28  N27   D T   1       1.685  -1.394  10.762  1.00 18.37    -0.251 N 
HETATM   29  N28   D T   1       1.835  -0.388  11.654  1.00 18.72    -0.168 NA
HETATM   30  C29   D T   1       0.947   0.507  11.503  1.00 18.29     0.123 A 
BRANCH  28  31
HETATM   31  C31   D T   1       2.603  -2.525  10.802  1.00 23.01     0.110 C 
HETATM   32  C33   D T   1       1.799  -3.856  10.914  1.00 23.05     0.063 C 
HETATM   33  C36   D T   1       2.732  -5.093  10.955  1.00 27.20     0.292 C 
HETATM   34  N39   D T   1       3.648  -5.020   9.796  1.00 30.30     0.339 N 
HETATM   35  C41   D T   1       4.551  -3.835   9.804  1.00 26.52     0.292 C 
HETATM   36  C44   D T   1       3.686  -2.541   9.690  1.00 29.21     0.063 C 
ENDBRANCH  28  31
ENDBRANCH   4  26
TORSDOF 5
ENDMDL
MODEL 2
REMARK VINA RESULT:   -11.111      3.245      6.772
REMARK INTER + INTRA:         -15.123
REMARK INTER:                 -13.798
REMARK INTRA:                  -1.325
REMARK UNBOUND:                -0.765
REMARK  5 active torsions:
REMARK  status: ('A' for Active; 'I' for Inactive)
REMARK    1  A    between atoms: C3_3  and  C48_30 
REMARK    2  A    between atoms: C7_6  and  C10_8 
REMARK    3  A    between atoms: C13_11  and  C24_18 
REMARK    4  A    between atoms: N27_20  and  C31_23 
REMARK    5  A    between atoms: C48_30  and  N51_31 
ROOT
HETATM    1  C10   D T   1      -3.351   1.137   9.389  1.00 15.48     0.019 A 
HETATM    2  C11   D T   1      -4.051  -0.079   9.506  1.00 17.77     0.099 A 
HETATM    3  N12   D T   1      -3.489  -1.177  10.104  1.00 14.42    -0.242 NA
HETATM    4  C13   D T   1      -4.189  -2.336  10.209  1.00 16.70     0.103 A 
HETATM    5  C14   D T   1      -5.485  -2.396   9.688  1.00 16.81     0.118 A 
HETATM    6  N16   D T   1      -6.045  -1.329   9.085  1.00 18.92    -0.241 NA
HETATM    7  C17   D T   1      -5.360  -0.168   8.989  1.00 19.63     0.099 A 
HETATM    8  C18   D T   1      -5.969   0.933   8.364  1.00 16.22     0.021 A 
HETATM    9  C20   D T   1      -5.265   2.137   8.244  1.00 16.47     0.002 A 
HETATM   10  C22   D T   1      -3.964   2.243   8.763  1.00 11.45     0.002 A 
ENDROOT
BRANCH   1  11
HETATM   11  C7    D T   1      -1.953   1.311   9.871  1.00 15.00     0.006 A 
HETATM   12  C5    D T   1      -1.804   1.736  11.198  1.00 16.13     0.030 A 
HETATM   13  C4    D T   1      -0.536   1.945  11.748  1.00 20.46     0.140 A 
HETATM   14  C3    D T   1       0.607   1.718  10.963  1.00 19.71     0.055 A 
HETATM   15  F47   D T   1      -0.448   2.358  13.021  1.00 18.81    -0.204 F 
HETATM   16  C2    D T   1       0.453   1.306   9.624  1.00 20.82     0.140 A 
HETATM   17  F1    D T   1       1.506   1.073   8.839  1.00 22.79    -0.204 F 
HETATM   18  C8    D T   1      -0.820   1.102   9.076  1.00 15.46     0.030 A 
BRANCH  14  19
HETATM   19  C48   D T   1       2.008   1.915  11.572  1.00 20.25     0.129 C 
BRANCH  19  20
HETATM   20  N51   D T   1       2.718   0.588  11.673  1.00 24.07    -0.361 N 
HETATM   21  C52   D T   1       2.180  -0.315  12.740  1.00 22.40     0.130 C 
HETATM   22  C55   D T   1       2.921  -1.677  12.819  1.00 27.40     0.166 C 
HETATM   23  O58   D T   1       4.346  -1.466  12.865  1.00 26.30    -0.350 OA
HETATM   24  C59   D T   1       4.821  -0.813  11.672  1.00 25.21     0.166 C 
HETATM   25  C62   D T   1       4.214   0.615  11.595  1.00 22.22     0.130 C 
ENDBRANCH  19  20
ENDBRANCH  14  19
ENDBRANCH   1  11
BRANCH   4  26
HETATM   26  C24   D T   1      -3.545  -3.524  10.901  1.00 15.92     0.059 A 
HETATM   27  C25   D T   1      -3.693  -4.861  10.689  1.00 18.01     0.098 A 
HETATM   28  N27   D T   1      -2.920  -5.471  11.553  1.00 18.37    -0.251 N 
HETATM   29  N28   D T   1      -2.287  -4.563  12.330  1.00 18.72    -0.168 NA
HETATM   30  C29   D T   1      -2.602  -3.375  12.010  1.00 18.29     0.123 A 
BRANCH  28  31
HETATM   31  C31   D T   1      -2.698  -6.892  11.794  1.00 23.01     0.110 C 
HETATM   32  C33   D T   1      -1.312  -7.103  12.476  1.00 23.05     0.063 C 
HETATM   33  C36   D T   1      -1.031  -8.601  12.760  1.00 27.20     0.292 C 
HETATM   34  N39   D T   1      -2.178  -9.154  13.510  1.00 30.30     0.339 N 
HETATM   35  C41   D T   1      -3.469  -9.122  12.765  1.00 26.52     0.292 C 
HETATM   36  C44   D T   1      -3.863  -7.634  12.503  1.00 29.21     0.063 C 
ENDBRANCH  28  31
ENDBRANCH   4  26
TORSDOF 5
ENDMDL
MODEL 3
REMARK VINA RESULT:   -10.833      3.884      7.575
REMARK INTER + INTRA:         -14.763
REMARK INTER:                 -13.799
REMARK INTRA:                  -0.964
REMARK UNBOUND:                -0.765
REMARK  5 active torsions:
REMARK  status: ('A' for Active; 'I' for Inactive)
REMARK    1  A    between atoms: C3_3  and  C48_30 
REMARK    2  A    between atoms: C7_6  and  C10_8 
REMARK    3  A    between atoms: C13_11  and  C24_18 
REMARK    4  A    between atoms: N27_20  and  C31_23 
REMARK    5  A    between atoms: C48_30  and  N51_31 
ROOT
HETATM    1  C10   D T   1      -3.464   0.745   9.828  1.00 15.48     0.019 A 
HETATM    2  C11   D T   1      -4.087  -0.517   9.794  1.00 17.77     0.099 A 
HETATM    3  N12   D T   1      -3.502  -1.623  10.353  1.00 14.42    -0.242 NA
HETATM    4  C13   D T   1      -4.128  -2.827  10.311  1.00 16.70     0.103 A 
HETATM    5  C14   D T   1      -5.372  -2.924   9.679  1.00 16.81     0.118 A 
HETATM    6  N16   D T   1      -5.952  -1.848   9.113  1.00 18.92    -0.241 NA
HETATM    7  C17   D T   1      -5.341  -0.643   9.163  1.00 19.63     0.099 A 
HETATM    8  C18   D T   1      -5.972   0.465   8.573  1.00 16.22     0.021 A 
HETATM    9  C20   D T   1      -5.344   1.716   8.604  1.00 16.47     0.002 A 
HETATM   10  C22   D T   1      -4.098   1.859   9.238  1.00 11.45     0.002 A 
ENDROOT
BRANCH   1  11
HETATM   11  C7    D T   1      -2.123   0.965  10.439  1.00 15.00     0.006 A 
HETATM   12  C5    D T   1      -1.054   0.276   9.850  1.00 16.13     0.030 A 
HETATM   13  C4    D T   1       0.244   0.399  10.353  1.00 20.46     0.140 A 
HETATM   14  C3    D T   1       0.485   1.233  11.457  1.00 19.71     0.055 A 
HETATM   15  F47   D T   1       1.231  -0.287   9.758  1.00 18.81    -0.204 F 
HETATM   16  C2    D T   1      -0.595   1.913  12.056  1.00 20.82     0.140 A 
HETATM   17  F1    D T   1      -0.419   2.719  13.104  1.00 22.79    -0.204 F 
HETATM   18  C8    D T   1      -1.895   1.783  11.551  1.00 15.46     0.030 A 
BRANCH  14  19
HETATM   19  C48   D T   1       1.918   1.400  11.996  1.00 20.25     0.129 C 
BRANCH  19  20
HETATM   20  N51   D T   1       2.770   2.122  10.982  1.00 24.07    -0.361 N 
HETATM   21  C52   D T   1       4.237   1.851  11.110  1.00 22.40     0.130 C 
HETATM   22  C55   D T   1       5.091   2.598  10.051  1.00 27.40     0.166 C 
HETATM   23  O58   D T   1       4.733   3.994  10.017  1.00 26.30    -0.350 OA
HETATM   24  C59   D T   1       3.358   4.175   9.631  1.00 25.21     0.166 C 
HETATM   25  C62   D T   1       2.436   3.559  10.719  1.00 22.22     0.130 C 
ENDBRANCH  19  20
ENDBRANCH  14  19
ENDBRANCH   1  11
BRANCH   4  26
HETATM   26  C24   D T   1      -3.463  -4.026  10.964  1.00 15.92     0.059 A 
HETATM   27  C25   D T   1      -3.665  -5.360  10.782  1.00 18.01     0.098 A 
HETATM   28  N27   D T   1      -2.840  -5.983  11.587  1.00 18.37    -0.251 N 
HETATM   29  N28   D T   1      -2.121  -5.085  12.298  1.00 18.72    -0.168 NA
HETATM   30  C29   D T   1      -2.428  -3.892  11.989  1.00 18.29     0.123 A 
BRANCH  28  31
HETATM   31  C31   D T   1      -2.639  -7.407  11.828  1.00 23.01     0.110 C 
HETATM   32  C33   D T   1      -1.189  -7.657  12.345  1.00 23.05     0.063 C 
HETATM   33  C36   D T   1      -0.926  -9.159  12.622  1.00 27.20     0.292 C 
HETATM   34  N39   D T   1      -1.994  -9.659  13.515  1.00 30.30     0.339 N 
HETATM   35  C41   D T   1      -3.362  -9.593  12.927  1.00 26.52     0.292 C 
HETATM   36  C44   D T   1      -3.735  -8.096  12.686  1.00 29.21     0.063 C 
ENDBRANCH  28  31
ENDBRANCH   4  26
TORSDOF 5
ENDMDL
MODEL 4
REMARK VINA RESULT:   -10.822      3.763      7.286
REMARK INTER + INTRA:         -14.750
REMARK INTER:                 -13.530
REMARK INTRA:                  -1.220
REMARK UNBOUND:                -0.765
REMARK  5 active torsions:
REMARK  status: ('A' for Active; 'I' for Inactive)
REMARK    1  A    between atoms: C3_3  and  C48_30 
REMARK    2  A    between atoms: C7_6  and  C10_8 
REMARK    3  A    between atoms: C13_11  and  C24_18 
REMARK    4  A    between atoms: N27_20  and  C31_23 
REMARK    5  A    between atoms: C48_30  and  N51_31 
ROOT
HETATM    1  C10   D T   1      -3.176   1.251   9.500  1.00 15.48     0.019 A 
HETATM    2  C11   D T   1      -4.083   0.176   9.441  1.00 17.77     0.099 A 
HETATM    3  N12   D T   1      -3.761  -1.063   9.930  1.00 14.42    -0.242 NA
HETATM    4  C13   D T   1      -4.657  -2.081   9.866  1.00 16.70     0.103 A 
HETATM    5  C14   D T   1      -5.907  -1.850   9.283  1.00 16.81     0.118 A 
HETATM    6  N16   D T   1      -6.232  -0.640   8.786  1.00 18.92    -0.241 NA
HETATM    7  C17   D T   1      -5.350   0.382   8.858  1.00 19.63     0.099 A 
HETATM    8  C18   D T   1      -5.716   1.636   8.341  1.00 16.22     0.021 A 
HETATM    9  C20   D T   1      -4.807   2.699   8.396  1.00 16.47     0.002 A 
HETATM   10  C22   D T   1      -3.544   2.511   8.982  1.00 11.45     0.002 A 
ENDROOT
BRANCH   1  11
HETATM   11  C7    D T   1      -1.803   1.118  10.062  1.00 15.00     0.006 A 
HETATM   12  C5    D T   1      -1.575   1.743  11.296  1.00 16.13     0.030 A 
HETATM   13  C4    D T   1      -0.319   1.692  11.906  1.00 20.46     0.140 A 
HETATM   14  C3    D T   1       0.729   0.997  11.280  1.00 19.71     0.055 A 
HETATM   15  F47   D T   1      -0.151   2.312  13.084  1.00 18.81    -0.204 F 
HETATM   16  C2    D T   1       0.501   0.383  10.033  1.00 20.82     0.140 A 
HETATM   17  F1    D T   1       1.462  -0.292   9.399  1.00 22.79    -0.204 F 
HETATM   18  C8    D T   1      -0.759   0.440   9.423  1.00 15.46     0.030 A 
BRANCH  14  19
HETATM   19  C48   D T   1       2.107   0.909  11.963  1.00 20.25     0.129 C 
BRANCH  19  20
HETATM   20  N51   D T   1       3.100   1.783  11.238  1.00 24.07    -0.361 N 
HETATM   21  C52   D T   1       4.526   1.359  11.405  1.00 22.40     0.130 C 
HETATM   22  C55   D T   1       5.527   2.269  10.644  1.00 27.40     0.166 C 
HETATM   23  O58   D T   1       5.268   3.655  10.945  1.00 26.30    -0.350 OA
HETATM   24  C59   D T   1       3.951   4.049  10.514  1.00 25.21     0.166 C 
HETATM   25  C62   D T   1       2.889   3.264  11.332  1.00 22.22     0.130 C 
ENDBRANCH  19  20
ENDBRANCH  14  19
ENDBRANCH   1  11
BRANCH   4  26
HETATM   26  C24   D T   1      -4.277  -3.434  10.441  1.00 15.92     0.059 A 
HETATM   27  C25   D T   1      -3.119  -3.857  11.020  1.00 18.01     0.098 A 
HETATM   28  N27   D T   1      -3.296  -5.114  11.349  1.00 18.37    -0.251 N 
HETATM   29  N28   D T   1      -4.534  -5.518  10.982  1.00 18.72    -0.168 NA
HETATM   30  C29   D T   1      -5.188  -4.578  10.432  1.00 18.29     0.123 A 
BRANCH  28  31
HETATM   31  C31   D T   1      -2.391  -6.070  11.974  1.00 23.01     0.110 C 
HETATM   32  C33   D T   1      -3.099  -7.451  12.121  1.00 23.05     0.063 C 
HETATM   33  C36   D T   1      -2.173  -8.508  12.777  1.00 27.20     0.292 C 
HETATM   34  N39   D T   1      -0.903  -8.543  12.021  1.00 30.30     0.339 N 
HETATM   35  C41   D T   1      -0.138  -7.265  12.052  1.00 26.52     0.292 C 
HETATM   36  C44   D T   1      -0.977  -6.158  11.339  1.00 29.21     0.063 C 
ENDBRANCH  28  31
ENDBRANCH   4  26
TORSDOF 5
ENDMDL
MODEL 5
REMARK VINA RESULT:   -10.767      2.410      6.163
REMARK INTER + INTRA:         -14.678
REMARK INTER:                 -13.251
REMARK INTRA:                  -1.428
REMARK UNBOUND:                -0.765
REMARK  5 active torsions:
REMARK  status: ('A' for Active; 'I' for Inactive)
REMARK    1  A    between atoms: C3_3  and  C48_30 
REMARK    2  A    between atoms: C7_6  and  C10_8 
REMARK    3  A    between atoms: C13_11  and  C24_18 
REMARK    4  A    between atoms: N27_20  and  C31_23 
REMARK    5  A    between atoms: C48_30  and  N51_31 
ROOT
HETATM    1  C10   D T   1      -2.987   0.888   9.596  1.00 15.48     0.019 A 
HETATM    2  C11   D T   1      -4.044  -0.040   9.542  1.00 17.77     0.099 A 
HETATM    3  N12   D T   1      -3.871  -1.348   9.912  1.00 14.42    -0.242 NA
HETATM    4  C13   D T   1      -4.910  -2.221   9.856  1.00 16.70     0.103 A 
HETATM    5  C14   D T   1      -6.154  -1.768   9.405  1.00 16.81     0.118 A 
HETATM    6  N16   D T   1      -6.334  -0.488   9.025  1.00 18.92    -0.241 NA
HETATM    7  C17   D T   1      -5.309   0.390   9.091  1.00 19.63     0.099 A 
HETATM    8  C18   D T   1      -5.525   1.721   8.698  1.00 16.22     0.021 A 
HETATM    9  C20   D T   1      -4.468   2.637   8.746  1.00 16.47     0.002 A 
HETATM   10  C22   D T   1      -3.205   2.226   9.203  1.00 11.45     0.002 A 
ENDROOT
BRANCH   1  11
HETATM   11  C7    D T   1      -1.609   0.517  10.023  1.00 15.00     0.006 A 
HETATM   12  C5    D T   1      -0.716   0.173   8.999  1.00 16.13     0.030 A 
HETATM   13  C4    D T   1       0.598  -0.206   9.290  1.00 20.46     0.140 A 
HETATM   14  C3    D T   1       1.034  -0.234  10.625  1.00 19.71     0.055 A 
HETATM   15  F47   D T   1       1.412  -0.532   8.274  1.00 18.81    -0.204 F 
HETATM   16  C2    D T   1       0.128   0.099  11.652  1.00 20.82     0.140 A 
HETATM   17  F1    D T   1       0.494   0.092  12.935  1.00 22.79    -0.204 F 
HETATM   18  C8    D T   1      -1.189   0.473  11.357  1.00 15.46     0.030 A 
BRANCH  14  19
HETATM   19  C48   D T   1       2.490  -0.617  10.949  1.00 20.25     0.129 C 
BRANCH  19  20
HETATM   20  N51   D T   1       2.615  -2.116  11.067  1.00 24.07    -0.361 N 
HETATM   21  C52   D T   1       2.985  -2.802   9.788  1.00 22.40     0.130 C 
HETATM   22  C55   D T   1       3.116  -4.341   9.936  1.00 27.40     0.166 C 
HETATM   23  O58   D T   1       1.953  -4.878  10.598  1.00 26.30    -0.350 OA
HETATM   24  C59   D T   1       1.817  -4.352  11.931  1.00 25.21     0.166 C 
HETATM   25  C62   D T   1       1.553  -2.823  11.853  1.00 22.22     0.130 C 
ENDBRANCH  19  20
ENDBRANCH  14  19
ENDBRANCH   1  11
BRANCH   4  26
HETATM   26  C24   D T   1      -4.689  -3.656  10.299  1.00 15.92     0.059 A 
HETATM   27  C25   D T   1      -3.540  -4.333  10.574  1.00 18.01     0.098 A 
HETATM   28  N27   D T   1      -3.887  -5.551  10.913  1.00 18.37    -0.251 N 
HETATM   29  N28   D T   1      -5.232  -5.683  10.848  1.00 18.72    -0.168 NA
HETATM   30  C29   D T   1      -5.791  -4.600  10.490  1.00 18.29     0.123 A 
BRANCH  28  31
HETATM   31  C31   D T   1      -3.075  -6.703  11.284  1.00 23.01     0.110 C 
HETATM   32  C33   D T   1      -1.652  -6.233  11.713  1.00 23.05     0.063 C 
HETATM   33  C36   D T   1      -0.750  -7.424  12.124  1.00 27.20     0.292 C 
HETATM   34  N39   D T   1      -1.469  -8.221  13.141  1.00 30.30     0.339 N 
HETATM   35  C41   D T   1      -2.740  -8.829  12.654  1.00 26.52     0.292 C 
HETATM   36  C44   D T   1      -3.738  -7.686  12.288  1.00 29.21     0.063 C 
ENDBRANCH  28  31
ENDBRANCH   4  26
TORSDOF 5
ENDMDL
MODEL 6
REMARK VINA RESULT:   -10.462      3.428      7.143
REMARK INTER + INTRA:         -14.285
REMARK INTER:                 -13.931
REMARK INTRA:                  -0.354
REMARK UNBOUND:                -0.765
REMARK  5 active torsions:
REMARK  status: ('A' for Active; 'I' for Inactive)
REMARK    1  A    between atoms: C3_3  and  C48_30 
REMARK    2  A    between atoms: C7_6  and  C10_8 
REMARK    3  A    between atoms: C13_11  and  C24_18 
REMARK    4  A    between atoms: N27_20  and  C31_23 
REMARK    5  A    between atoms: C48_30  and  N51_31 
ROOT
HETATM    1  C10   D T   1      -3.922  -0.960  10.297  1.00 15.48     0.019 A 
HETATM    2  C11   D T   1      -4.419  -2.264  10.112  1.00 17.77     0.099 A 
HETATM    3  N12   D T   1      -3.678  -3.368  10.442  1.00 14.42    -0.242 NA
HETATM    4  C13   D T   1      -4.184  -4.615  10.259  1.00 16.70     0.103 A 
HETATM    5  C14   D T   1      -5.467  -4.754   9.718  1.00 16.81     0.118 A 
HETATM    6  N16   D T   1      -6.201  -3.677   9.377  1.00 18.92    -0.241 NA
HETATM    7  C17   D T   1      -5.709  -2.433   9.569  1.00 19.63     0.099 A 
HETATM    8  C18   D T   1      -6.497  -1.326   9.214  1.00 16.22     0.021 A 
HETATM    9  C20   D T   1      -5.995  -0.032   9.393  1.00 16.47     0.002 A 
HETATM   10  C22   D T   1      -4.715   0.153   9.942  1.00 11.45     0.002 A 
ENDROOT
BRANCH   1  11
HETATM   11  C7    D T   1      -2.557  -0.685  10.828  1.00 15.00     0.006 A 
HETATM   12  C5    D T   1      -2.146   0.655  10.814  1.00 16.13     0.030 A 
HETATM   13  C4    D T   1      -0.878   1.022  11.276  1.00 20.46     0.140 A 
HETATM   14  C3    D T   1      -0.007   0.037  11.770  1.00 19.71     0.055 A 
HETATM   15  F47   D T   1      -0.530   2.317  11.235  1.00 18.81    -0.204 F 
HETATM   16  C2    D T   1      -0.419  -1.311  11.769  1.00 20.82     0.140 A 
HETATM   17  F1    D T   1       0.368  -2.283  12.231  1.00 22.79    -0.204 F 
HETATM   18  C8    D T   1      -1.689  -1.675  11.301  1.00 15.46     0.030 A 
BRANCH  14  19
HETATM   19  C48   D T   1       1.377   0.438  12.312  1.00 20.25     0.129 C 
BRANCH  19  20
HETATM   20  N51   D T   1       2.338   0.650  11.168  1.00 24.07    -0.361 N 
HETATM   21  C52   D T   1       2.679   2.085  10.912  1.00 22.40     0.130 C 
HETATM   22  C55   D T   1       3.674   2.276   9.737  1.00 27.40     0.166 C 
HETATM   23  O58   D T   1       3.225   1.544   8.579  1.00 26.30    -0.350 OA
HETATM   24  C59   D T   1       3.171   0.129   8.840  1.00 25.21     0.166 C 
HETATM   25  C62   D T   1       2.094  -0.150   9.925  1.00 22.22     0.130 C 
ENDBRANCH  19  20
ENDBRANCH  14  19
ENDBRANCH   1  11
BRANCH   4  26
HETATM   26  C24   D T   1      -3.347  -5.816  10.659  1.00 15.92     0.059 A 
HETATM   27  C25   D T   1      -2.774  -6.139  11.852  1.00 18.01     0.098 A 
HETATM   28  N27   D T   1      -2.153  -7.280  11.679  1.00 18.37    -0.251 N 
HETATM   29  N28   D T   1      -2.296  -7.695  10.400  1.00 18.72    -0.168 NA
HETATM   30  C29   D T   1      -2.995  -6.881   9.720  1.00 18.29     0.123 A 
BRANCH  28  31
HETATM   31  C31   D T   1      -1.356  -8.079  12.602  1.00 23.01     0.110 C 
HETATM   32  C33   D T   1      -2.282  -9.049  13.397  1.00 23.05     0.063 C 
HETATM   33  C36   D T   1      -1.480  -9.928  14.390  1.00 27.20     0.292 C 
HETATM   34  N39   D T   1      -0.387 -10.590  13.645  1.00 30.30     0.339 N 
HETATM   35  C41   D T   1       0.604  -9.650  13.051  1.00 26.52     0.292 C 
HETATM   36  C44   D T   1      -0.114  -8.772  11.978  1.00 29.21     0.063 C 
ENDBRANCH  28  31
ENDBRANCH   4  26
TORSDOF 5
ENDMDL
MODEL 7
REMARK VINA RESULT:   -10.379      3.665      7.573
REMARK INTER + INTRA:         -14.177
REMARK INTER:                 -13.702
REMARK INTRA:                  -0.475
REMARK UNBOUND:                -0.765
REMARK  5 active torsions:
REMARK  status: ('A' for Active; 'I' for Inactive)
REMARK    1  A    between atoms: C3_3  and  C48_30 
REMARK    2  A    between atoms: C7_6  and  C10_8 
REMARK    3  A    between atoms: C13_11  and  C24_18 
REMARK    4  A    between atoms: N27_20  and  C31_23 
REMARK    5  A    between atoms: C48_30  and  N51_31 
ROOT
HETATM    1  C10   D T   1      -3.929  -1.290  10.183  1.00 15.48     0.019 A 
HETATM    2  C11   D T   1      -4.416  -2.610  10.146  1.00 17.77     0.099 A 
HETATM    3  N12   D T   1      -3.619  -3.678  10.467  1.00 14.42    -0.242 NA
HETATM    4  C13   D T   1      -4.116  -4.942  10.428  1.00 16.70     0.103 A 
HETATM    5  C14   D T   1      -5.448  -5.136  10.046  1.00 16.81     0.118 A 
HETATM    6  N16   D T   1      -6.237  -4.096   9.714  1.00 18.92    -0.241 NA
HETATM    7  C17   D T   1      -5.754  -2.835   9.763  1.00 19.63     0.099 A 
HETATM    8  C18   D T   1      -6.600  -1.766   9.422  1.00 16.22     0.021 A 
HETATM    9  C20   D T   1      -6.108  -0.457   9.453  1.00 16.47     0.002 A 
HETATM   10  C22   D T   1      -4.779  -0.216   9.842  1.00 11.45     0.002 A 
ENDROOT
BRANCH   1  11
HETATM   11  C7    D T   1      -2.520  -0.960  10.538  1.00 15.00     0.006 A 
HETATM   12  C5    D T   1      -1.920   0.070   9.800  1.00 16.13     0.030 A 
HETATM   13  C4    D T   1      -0.597   0.450  10.041  1.00 20.46     0.140 A 
HETATM   14  C3    D T   1       0.141  -0.200  11.044  1.00 19.71     0.055 A 
HETATM   15  F47   D T   1      -0.068   1.437   9.302  1.00 18.81    -0.204 F 
HETATM   16  C2    D T   1      -0.461  -1.245  11.774  1.00 20.82     0.140 A 
HETATM   17  F1    D T   1       0.195  -1.892  12.738  1.00 22.79    -0.204 F 
HETATM   18  C8    D T   1      -1.786  -1.626  11.525  1.00 15.46     0.030 A 
BRANCH  14  19
HETATM   19  C48   D T   1       1.588   0.236  11.338  1.00 20.25     0.129 C 
BRANCH  19  20
HETATM   20  N51   D T   1       1.592   1.558  12.064  1.00 24.07    -0.361 N 
HETATM   21  C52   D T   1       0.375   1.800  12.902  1.00 22.40     0.130 C 
HETATM   22  C55   D T   1       0.406   3.163  13.645  1.00 27.40     0.166 C 
HETATM   23  O58   D T   1       0.729   4.224  12.724  1.00 26.30    -0.350 OA
HETATM   24  C59   D T   1       2.037   4.044  12.151  1.00 25.21     0.166 C 
HETATM   25  C62   D T   1       2.042   2.756  11.283  1.00 22.22     0.130 C 
ENDBRANCH  19  20
ENDBRANCH  14  19
ENDBRANCH   1  11
BRANCH   4  26
HETATM   26  C24   D T   1      -3.215  -6.100  10.816  1.00 15.92     0.059 A 
HETATM   27  C25   D T   1      -3.426  -7.141  11.668  1.00 18.01     0.098 A 
HETATM   28  N27   D T   1      -2.335  -7.868  11.657  1.00 18.37    -0.251 N 
HETATM   29  N28   D T   1      -1.418  -7.314  10.832  1.00 18.72    -0.168 NA
HETATM   30  C29   D T   1      -1.859  -6.255  10.287  1.00 18.29     0.123 A 
BRANCH  28  31
HETATM   31  C31   D T   1      -1.993  -9.081  12.390  1.00 23.01     0.110 C 
HETATM   32  C33   D T   1      -1.055  -9.976  11.525  1.00 23.05     0.063 C 
HETATM   33  C36   D T   1      -0.656 -11.279  12.265  1.00 27.20     0.292 C 
HETATM   34  N39   D T   1      -0.109 -10.910  13.588  1.00 30.30     0.339 N 
HETATM   35  C41   D T   1      -1.083 -10.223  14.482  1.00 26.52     0.292 C 
HETATM   36  C44   D T   1      -1.480  -8.857  13.839  1.00 29.21     0.063 C 
ENDBRANCH  28  31
ENDBRANCH   4  26
TORSDOF 5
ENDMDL
MODEL 8
REMARK VINA RESULT:   -10.192      3.053      8.785
REMARK INTER + INTRA:         -13.935
REMARK INTER:                 -12.536
REMARK INTRA:                  -1.400
REMARK UNBOUND:                -0.765
REMARK  5 active torsions:
REMARK  status: ('A' for Active; 'I' for Inactive)
REMARK    1  A    between atoms: C3_3  and  C48_30 
REMARK    2  A    between atoms: C7_6  and  C10_8 
REMARK    3  A    between atoms: C13_11  and  C24_18 
REMARK    4  A    between atoms: N27_20  and  C31_23 
REMARK    5  A    between atoms: C48_30  and  N51_31 
ROOT
HETATM    1  C10   D T   1       0.063  -5.767  11.635  1.00 15.48     0.019 A 
HETATM    2  C11   D T   1      -1.328  -5.871  11.444  1.00 17.77     0.099 A 
HETATM    3  N12   D T   1      -2.072  -4.813  10.993  1.00 14.42    -0.242 NA
HETATM    4  C13   D T   1      -3.412  -4.943  10.812  1.00 16.70     0.103 A 
HETATM    5  C14   D T   1      -4.021  -6.167  11.104  1.00 16.81     0.118 A 
HETATM    6  N16   D T   1      -3.304  -7.211  11.562  1.00 18.92    -0.241 NA
HETATM    7  C17   D T   1      -1.968  -7.094  11.732  1.00 19.63     0.099 A 
HETATM    8  C18   D T   1      -1.240  -8.200  12.202  1.00 16.22     0.021 A 
HETATM    9  C20   D T   1       0.141  -8.089  12.397  1.00 16.47     0.002 A 
HETATM   10  C22   D T   1       0.794  -6.879  12.106  1.00 11.45     0.002 A 
ENDROOT
BRANCH   1  11
HETATM   11  C7    D T   1       0.817  -4.505  11.395  1.00 15.00     0.006 A 
HETATM   12  C5    D T   1       1.507  -4.418  10.178  1.00 16.13     0.030 A 
HETATM   13  C4    D T   1       2.259  -3.284   9.857  1.00 20.46     0.140 A 
HETATM   14  C3    D T   1       2.316  -2.211  10.762  1.00 19.71     0.055 A 
HETATM   15  F47   D T   1       2.906  -3.254   8.683  1.00 18.81    -0.204 F 
HETATM   16  C2    D T   1       1.633  -2.308  11.991  1.00 20.82     0.140 A 
HETATM   17  F1    D T   1       1.653  -1.315  12.882  1.00 22.79    -0.204 F 
HETATM   18  C8    D T   1       0.885  -3.448  12.310  1.00 15.46     0.030 A 
BRANCH  14  19
HETATM   19  C48   D T   1       3.115  -0.945  10.401  1.00 20.25     0.129 C 
BRANCH  19  20
HETATM   20  N51   D T   1       2.188   0.112   9.852  1.00 24.07    -0.361 N 
HETATM   21  C52   D T   1       1.843   1.192  10.830  1.00 22.40     0.130 C 
HETATM   22  C55   D T   1       0.896   2.271  10.240  1.00 27.40     0.166 C 
HETATM   23  O58   D T   1      -0.237   1.644   9.604  1.00 26.30    -0.350 OA
HETATM   24  C59   D T   1       0.172   0.814   8.501  1.00 25.21     0.166 C 
HETATM   25  C62   D T   1       1.024  -0.368   9.038  1.00 22.22     0.130 C 
ENDBRANCH  19  20
ENDBRANCH  14  19
ENDBRANCH   1  11
BRANCH   4  26
HETATM   26  C24   D T   1      -4.202  -3.758  10.285  1.00 15.92     0.059 A 
HETATM   27  C25   D T   1      -4.044  -2.422  10.497  1.00 18.01     0.098 A 
HETATM   28  N27   D T   1      -4.986  -1.815   9.817  1.00 18.37    -0.251 N 
HETATM   29  N28   D T   1      -5.759  -2.726   9.183  1.00 18.72    -0.168 NA
HETATM   30  C29   D T   1      -5.362  -3.912   9.407  1.00 18.29     0.123 A 
BRANCH  28  31
HETATM   31  C31   D T   1      -5.309  -0.399   9.694  1.00 23.01     0.110 C 
HETATM   32  C33   D T   1      -4.431   0.432  10.678  1.00 23.05     0.063 C 
HETATM   33  C36   D T   1      -4.734   1.949  10.582  1.00 27.20     0.292 C 
HETATM   34  N39   D T   1      -4.622   2.354   9.164  1.00 30.30     0.339 N 
HETATM   35  C41   D T   1      -5.604   1.691   8.260  1.00 26.52     0.292 C 
HETATM   36  C44   D T   1      -5.317   0.156   8.244  1.00 29.21     0.063 C 
ENDBRANCH  28  31
ENDBRANCH   4  26
TORSDOF 5
ENDMDL
MODEL 9
REMARK VINA RESULT:    -9.910      3.185      7.068
REMARK INTER + INTRA:         -13.571
REMARK INTER:                 -12.230
REMARK INTRA:                  -1.341
REMARK UNBOUND:                -0.765
REMARK  5 active torsions:
REMARK  status: ('A' for Active; 'I' for Inactive)
REMARK    1  A    between atoms: C3_3  and  C48_30 
REMARK    2  A    between atoms: C7_6  and  C10_8 
REMARK    3  A    between atoms: C13_11  and  C24_18 
REMARK    4  A    between atoms: N27_20  and  C31_23 
REMARK    5  A    between atoms: C48_30  and  N51_31 
ROOT
HETATM    1  C10   D T   1      -2.169  -0.803  10.948  1.00 15.48     0.019 A 
HETATM    2  C11   D T   1      -3.067  -1.887  10.918  1.00 17.77     0.099 A 
HETATM    3  N12   D T   1      -2.626  -3.185  10.917  1.00 14.42    -0.242 NA
HETATM    4  C13   D T   1      -3.514  -4.212  10.894  1.00 16.70     0.103 A 
HETATM    5  C14   D T   1      -4.882  -3.926  10.860  1.00 16.81     0.118 A 
HETATM    6  N16   D T   1      -5.329  -2.655  10.846  1.00 18.92    -0.241 NA
HETATM    7  C17   D T   1      -4.452  -1.628  10.882  1.00 19.63     0.099 A 
HETATM    8  C18   D T   1      -4.943  -0.311  10.876  1.00 16.22     0.021 A 
HETATM    9  C20   D T   1      -4.046   0.763  10.898  1.00 16.47     0.002 A 
HETATM   10  C22   D T   1      -2.663   0.519  10.943  1.00 11.45     0.002 A 
ENDROOT
BRANCH   1  11
HETATM   11  C7    D T   1      -0.690  -0.981  10.948  1.00 15.00     0.006 A 
HETATM   12  C5    D T   1      -0.050  -0.844   9.708  1.00 16.13     0.030 A 
HETATM   13  C4    D T   1       1.333  -1.005   9.593  1.00 20.46     0.140 A 
HETATM   14  C3    D T   1       2.096  -1.298  10.735  1.00 19.71     0.055 A 
HETATM   15  F47   D T   1       1.897  -0.871   8.383  1.00 18.81    -0.204 F 
HETATM   16  C2    D T   1       1.447  -1.450  11.977  1.00 20.82     0.140 A 
HETATM   17  F1    D T   1       2.126  -1.724  13.092  1.00 22.79    -0.204 F 
HETATM   18  C8    D T   1       0.060  -1.292  12.087  1.00 15.46     0.030 A 
BRANCH  14  19
HETATM   19  C48   D T   1       3.625  -1.444  10.621  1.00 20.25     0.129 C 
BRANCH  19  20
HETATM   20  N51   D T   1       4.009  -2.902  10.647  1.00 24.07    -0.361 N 
HETATM   21  C52   D T   1       5.341  -3.174  11.272  1.00 22.40     0.130 C 
HETATM   22  C55   D T   1       5.710  -4.682  11.295  1.00 27.40     0.166 C 
HETATM   23  O58   D T   1       5.525  -5.259   9.986  1.00 26.30    -0.350 OA
HETATM   24  C59   D T   1       4.150  -5.182   9.568  1.00 25.21     0.166 C 
HETATM   25  C62   D T   1       3.748  -3.691   9.400  1.00 22.22     0.130 C 
ENDBRANCH  19  20
ENDBRANCH  14  19
ENDBRANCH   1  11
BRANCH   4  26
HETATM   26  C24   D T   1      -2.991  -5.637  10.922  1.00 15.92     0.059 A 
HETATM   27  C25   D T   1      -2.323  -6.318  11.894  1.00 18.01     0.098 A 
HETATM   28  N27   D T   1      -2.093  -7.521  11.426  1.00 18.37    -0.251 N 
HETATM   29  N28   D T   1      -2.582  -7.630  10.169  1.00 18.72    -0.168 NA
HETATM   30  C29   D T   1      -3.135  -6.552   9.789  1.00 18.29     0.123 A 
BRANCH  28  31
HETATM   31  C31   D T   1      -1.400  -8.657  12.021  1.00 23.01     0.110 C 
HETATM   32  C33   D T   1      -2.337  -9.376  13.038  1.00 23.05     0.063 C 
HETATM   33  C36   D T   1      -1.646 -10.598  13.695  1.00 27.20     0.292 C 
HETATM   34  N39   D T   1      -1.120 -11.466  12.620  1.00 30.30     0.339 N 
HETATM   35  C41   D T   1      -0.077 -10.824  11.771  1.00 26.52     0.292 C 
HETATM   36  C44   D T   1      -0.717  -9.620  11.012  1.00 29.21     0.063 C 
ENDBRANCH  28  31
ENDBRANCH   4  26
TORSDOF 5
ENDMDL
