MODEL 1
REMARK VINA RESULT:    -8.811      0.000      0.000
REMARK INTER + INTRA:         -16.736
REMARK INTER:                 -14.993
REMARK INTRA:                  -1.743
REMARK UNBOUND:                -1.743
REMARK  12 active torsions:
REMARK  status: ('A' for Active; 'I' for Inactive)
REMARK    1  A    between atoms: C1_1  and  O11_11 
REMARK    2  A    between atoms: C2_2  and  O13_13 
REMARK    3  A    between atoms: C10_10  and  O14_14 
REMARK    4  A    between atoms: O13_13  and  C23_23 
REMARK    5  A    between atoms: O14_14  and  C15_15 
REMARK    6  A    between atoms: C18_18  and  N22_22 
REMARK       I    between atoms: N22_22  and  C32_32 
REMARK    7  A    between atoms: C23_23  and  C24_24 
REMARK    8  A    between atoms: C24_24  and  C25_25 
REMARK    9  A    between atoms: C25_25  and  N26_26 
REMARK   10  A    between atoms: C32_32  and  C33_33 
REMARK   11  A    between atoms: C33_33  and  C34_34 
REMARK       I    between atoms: C34_34  and  N35_35 
REMARK   12  A    between atoms: N35_35  and  C38_38 
ROOT
HETATM    1  C15   D T   1       6.754  15.878  -5.899  1.00 20.42     0.127 A 
HETATM    2  C16   D T   1       7.543  14.891  -5.343  1.00 16.92     0.029 A 
HETATM    3  C17   D T   1       7.120  14.259  -4.195  1.00 18.89     0.021 A 
HETATM    4  C18   D T   1       5.913  14.597  -3.561  1.00 19.71     0.087 A 
HETATM    5  C19   D T   1       5.077  15.566  -4.103  1.00 20.34     0.051 A 
HETATM    6  C20   D T   1       5.482  16.232  -5.260  1.00 23.00     0.164 A 
HETATM    7  F21   D T   1       4.782  17.212  -5.858  1.00 24.23    -0.202 F 
ENDROOT
BRANCH   1   8
HETATM    8  O14   D T   1       7.079  16.572  -7.030  1.00 19.07    -0.305 OA
BRANCH   8   9
HETATM    9  C10   D T   1       8.418  16.731  -7.337  1.00 16.92     0.103 A 
HETATM   10  C5    D T   1       8.992  18.033  -7.058  1.00 16.19     0.043 A 
HETATM   11  C4    D T   1      10.421  18.228  -7.423  1.00 14.79     0.085 A 
HETATM   12  C6    D T   1       8.223  19.022  -6.476  1.00 16.37     0.030 A 
HETATM   13  C3    D T   1      11.012  19.456  -7.152  1.00 15.80     0.045 A 
HETATM   14  N7    D T   1      11.111  17.220  -7.992  1.00 17.15    -0.244 NA
HETATM   15  C2    D T   1      10.236  20.470  -6.575  1.00 18.47     0.118 A 
HETATM   16  C1    D T   1       8.820  20.267  -6.225  1.00 19.14     0.116 A 
HETATM   17  C8    D T   1      10.572  16.019  -8.290  1.00 16.83     0.101 A 
HETATM   18  C9    D T   1       9.228  15.740  -7.927  1.00 17.41     0.045 A 
BRANCH  15  19
HETATM   19  O13   D T   1      10.691  21.713  -6.276  1.00 18.42    -0.329 OA
BRANCH  19  20
HETATM   20  C23   D T   1      11.658  21.988  -5.257  1.00 21.03     0.151 C 
BRANCH  20  21
HETATM   21  C24   D T   1      11.079  21.424  -3.959  1.00 22.44     0.056 C 
BRANCH  21  22
HETATM   22  C25   D T   1      12.184  20.574  -3.376  1.00 28.63     0.100 C 
BRANCH  22  23
HETATM   23  N26   D T   1      12.002  19.151  -3.568  1.00 33.59    -0.364 N 
HETATM   24  C27   D T   1      13.218  18.441  -3.982  1.00 36.37     0.130 C 
HETATM   25  C28   D T   1      12.816  17.176  -4.745  1.00 38.52     0.166 C 
HETATM   26  O29   D T   1      11.895  16.498  -3.903  1.00 39.12    -0.350 OA
HETATM   27  C30   D T   1      10.686  17.269  -3.874  1.00 39.82     0.166 C 
HETATM   28  C31   D T   1      10.932  18.424  -2.889  1.00 38.13     0.130 C 
ENDBRANCH  22  23
ENDBRANCH  21  22
ENDBRANCH  20  21
ENDBRANCH  19  20
ENDBRANCH  15  19
BRANCH  16  29
HETATM   29  O11   D T   1       8.172  21.367  -5.677  1.00 20.67    -0.326 OA
HETATM   30  C12   D T   1       7.559  22.409  -6.440  1.00 21.17     0.181 C 
ENDBRANCH  16  29
ENDBRANCH   8   9
ENDBRANCH   1   8
BRANCH   4  31
HETATM   31  N22   D T   1       5.593  13.929  -2.430  1.00 20.22    -0.211 NA
HETATM   32  C32   D T   1       5.509  14.381  -1.161  1.00 20.90     0.263 C 
HETATM   33  O36   D T   1       5.804  15.501  -0.815  1.00 20.49    -0.270 OA
BRANCH  32  34
HETATM   34  C33   D T   1       4.980  13.437  -0.098  1.00 20.84     0.146 A 
HETATM   35  C45   D T   1       5.685  13.734   1.240  1.00 21.22     0.019 A 
HETATM   36  C46   D T   1       5.973  12.424   0.512  1.00 20.56     0.019 A 
BRANCH  34  37
HETATM   37  C34   D T   1       3.465  13.131  -0.081  1.00 20.23     0.263 C 
HETATM   38  N35   D T   1       2.586  14.085   0.280  1.00 17.24    -0.211 NA
HETATM   39  O37   D T   1       3.106  11.949  -0.001  1.00 19.27    -0.270 OA
BRANCH  38  40
HETATM   40  C38   D T   1       1.232  13.854   0.264  1.00 18.52     0.085 A 
HETATM   41  C39   D T   1       0.489  13.751   1.458  1.00 17.15     0.021 A 
HETATM   42  C40   D T   1      -0.890  13.500   1.465  1.00 19.70     0.031 A 
HETATM   43  C41   D T   1      -1.528  13.399   0.205  1.00 19.38     0.140 A 
HETATM   44  C42   D T   1      -0.802  13.512  -0.984  1.00 18.79     0.031 A 
HETATM   45  F44   D T   1      -2.860  13.185   0.131  1.00 21.15    -0.204 F 
HETATM   46  C43   D T   1       0.576  13.766  -0.982  1.00 17.84     0.021 A 
ENDBRANCH  38  40
ENDBRANCH  34  37
ENDBRANCH  32  34
ENDBRANCH   4  31
TORSDOF 12
ENDMDL
MODEL 2
REMARK VINA RESULT:    -8.794      1.242      1.460
REMARK INTER + INTRA:         -16.706
REMARK INTER:                 -14.668
REMARK INTRA:                  -2.038
REMARK UNBOUND:                -1.743
REMARK  12 active torsions:
REMARK  status: ('A' for Active; 'I' for Inactive)
REMARK    1  A    between atoms: C1_1  and  O11_11 
REMARK    2  A    between atoms: C2_2  and  O13_13 
REMARK    3  A    between atoms: C10_10  and  O14_14 
REMARK    4  A    between atoms: O13_13  and  C23_23 
REMARK    5  A    between atoms: O14_14  and  C15_15 
REMARK    6  A    between atoms: C18_18  and  N22_22 
REMARK       I    between atoms: N22_22  and  C32_32 
REMARK    7  A    between atoms: C23_23  and  C24_24 
REMARK    8  A    between atoms: C24_24  and  C25_25 
REMARK    9  A    between atoms: C25_25  and  N26_26 
REMARK   10  A    between atoms: C32_32  and  C33_33 
REMARK   11  A    between atoms: C33_33  and  C34_34 
REMARK       I    between atoms: C34_34  and  N35_35 
REMARK   12  A    between atoms: N35_35  and  C38_38 
ROOT
HETATM    1  C15   D T   1       7.711  15.751  -6.380  1.00 20.42     0.127 A 
HETATM    2  C16   D T   1       8.412  15.141  -5.359  1.00 16.92     0.029 A 
HETATM    3  C17   D T   1       7.763  14.848  -4.180  1.00 18.89     0.021 A 
HETATM    4  C18   D T   1       6.410  15.162  -3.976  1.00 19.71     0.087 A 
HETATM    5  C19   D T   1       5.661  15.753  -4.989  1.00 20.34     0.051 A 
HETATM    6  C20   D T   1       6.292  16.072  -6.192  1.00 23.00     0.164 A 
HETATM    7  F21   D T   1       5.688  16.677  -7.229  1.00 24.23    -0.202 F 
ENDROOT
BRANCH   1   8
HETATM    8  O14   D T   1       8.255  16.091  -7.586  1.00 19.07    -0.305 OA
BRANCH   8   9
HETATM    9  C10   D T   1       9.541  16.598  -7.603  1.00 16.92     0.103 A 
HETATM   10  C5    D T   1       9.667  18.038  -7.484  1.00 16.19     0.043 A 
HETATM   11  C4    D T   1      11.044  18.598  -7.543  1.00 14.79     0.085 A 
HETATM   12  C6    D T   1       8.542  18.824  -7.321  1.00 16.37     0.030 A 
HETATM   13  C3    D T   1      11.207  19.971  -7.413  1.00 15.80     0.045 A 
HETATM   14  N7    D T   1      12.097  17.773  -7.708  1.00 17.15    -0.244 NA
HETATM   15  C2    D T   1      10.070  20.778  -7.261  1.00 18.47     0.118 A 
HETATM   16  C1    D T   1       8.712  20.212  -7.212  1.00 19.14     0.116 A 
HETATM   17  C8    D T   1      11.984  16.436  -7.858  1.00 16.83     0.101 A 
HETATM   18  C9    D T   1      10.707  15.822  -7.764  1.00 17.41     0.045 A 
BRANCH  15  19
HETATM   19  O13   D T   1      10.095  22.129  -7.138  1.00 18.42    -0.329 OA
BRANCH  19  20
HETATM   20  C23   D T   1      11.250  22.876  -6.743  1.00 21.03     0.151 C 
BRANCH  20  21
HETATM   21  C24   D T   1      11.054  23.208  -5.263  1.00 22.44     0.056 C 
BRANCH  21  22
HETATM   22  C25   D T   1      12.274  22.645  -4.572  1.00 28.63     0.100 C 
BRANCH  22  23
HETATM   23  N26   D T   1      12.098  21.303  -4.057  1.00 33.59    -0.364 N 
HETATM   24  C27   D T   1      13.317  20.712  -3.493  1.00 36.37     0.130 C 
HETATM   25  C28   D T   1      13.211  19.187  -3.578  1.00 38.52     0.166 C 
HETATM   26  O29   D T   1      11.966  18.856  -2.982  1.00 39.12    -0.350 OA
HETATM   27  C30   D T   1      10.930  19.312  -3.864  1.00 39.82     0.166 C 
HETATM   28  C31   D T   1      10.789  20.824  -3.619  1.00 38.13     0.130 C 
ENDBRANCH  22  23
ENDBRANCH  21  22
ENDBRANCH  20  21
ENDBRANCH  19  20
ENDBRANCH  15  19
BRANCH  16  29
HETATM   29  O11   D T   1       7.681  21.134  -7.077  1.00 20.67    -0.326 OA
HETATM   30  C12   D T   1       6.889  21.628  -8.159  1.00 21.17     0.181 C 
ENDBRANCH  16  29
ENDBRANCH   8   9
ENDBRANCH   1   8
BRANCH   4  31
HETATM   31  N22   D T   1       5.869  14.848  -2.779  1.00 20.22    -0.211 NA
HETATM   32  C32   D T   1       5.365  13.672  -2.346  1.00 20.90     0.263 C 
HETATM   33  O36   D T   1       5.243  12.688  -3.036  1.00 20.49    -0.270 OA
BRANCH  32  34
HETATM   34  C33   D T   1       4.952  13.562  -0.890  1.00 20.84     0.146 A 
HETATM   35  C45   D T   1       5.652  14.671  -0.080  1.00 21.22     0.019 A 
HETATM   36  C46   D T   1       6.052  13.215   0.137  1.00 20.56     0.019 A 
BRANCH  34  37
HETATM   37  C34   D T   1       3.475  13.237  -0.572  1.00 20.23     0.263 C 
HETATM   38  N35   D T   1       2.608  14.230  -0.295  1.00 17.24    -0.211 NA
HETATM   39  O37   D T   1       3.197  12.096  -0.181  1.00 19.27    -0.270 OA
BRANCH  38  40
HETATM   40  C38   D T   1       1.281  13.973  -0.050  1.00 18.52     0.085 A 
HETATM   41  C39   D T   1       0.781  13.880   1.265  1.00 17.15     0.021 A 
HETATM   42  C40   D T   1      -0.565  13.604   1.539  1.00 19.70     0.031 A 
HETATM   43  C41   D T   1      -1.429  13.466   0.425  1.00 19.38     0.140 A 
HETATM   44  C42   D T   1      -0.945  13.568  -0.882  1.00 18.79     0.031 A 
HETATM   45  F44   D T   1      -2.746  13.225   0.609  1.00 21.15    -0.204 F 
HETATM   46  C43   D T   1       0.403  13.849  -1.146  1.00 17.84     0.021 A 
ENDBRANCH  38  40
ENDBRANCH  34  37
ENDBRANCH  32  34
ENDBRANCH   4  31
TORSDOF 12
ENDMDL
MODEL 3
REMARK VINA RESULT:    -8.507      2.890      4.557
REMARK INTER + INTRA:         -16.218
REMARK INTER:                 -13.974
REMARK INTRA:                  -2.244
REMARK UNBOUND:                -1.743
REMARK  12 active torsions:
REMARK  status: ('A' for Active; 'I' for Inactive)
REMARK    1  A    between atoms: C1_1  and  O11_11 
REMARK    2  A    between atoms: C2_2  and  O13_13 
REMARK    3  A    between atoms: C10_10  and  O14_14 
REMARK    4  A    between atoms: O13_13  and  C23_23 
REMARK    5  A    between atoms: O14_14  and  C15_15 
REMARK    6  A    between atoms: C18_18  and  N22_22 
REMARK       I    between atoms: N22_22  and  C32_32 
REMARK    7  A    between atoms: C23_23  and  C24_24 
REMARK    8  A    between atoms: C24_24  and  C25_25 
REMARK    9  A    between atoms: C25_25  and  N26_26 
REMARK   10  A    between atoms: C32_32  and  C33_33 
REMARK   11  A    between atoms: C33_33  and  C34_34 
REMARK       I    between atoms: C34_34  and  N35_35 
REMARK   12  A    between atoms: N35_35  and  C38_38 
ROOT
HETATM    1  C15   D T   1      10.542  16.162  -3.466  1.00 20.42     0.127 A 
HETATM    2  C16   D T   1       9.698  15.392  -4.241  1.00 16.92     0.029 A 
HETATM    3  C17   D T   1       8.490  14.987  -3.719  1.00 18.89     0.021 A 
HETATM    4  C18   D T   1       8.092  15.321  -2.415  1.00 19.71     0.087 A 
HETATM    5  C19   D T   1       8.901  16.117  -1.611  1.00 20.34     0.051 A 
HETATM    6  C20   D T   1      10.136  16.535  -2.107  1.00 23.00     0.164 A 
HETATM    7  F21   D T   1      11.021  17.274  -1.416  1.00 24.23    -0.202 F 
ENDROOT
BRANCH   1   8
HETATM    8  O14   D T   1      11.763  16.613  -3.880  1.00 19.07    -0.305 OA
BRANCH   8   9
HETATM    9  C10   D T   1      11.922  16.939  -5.214  1.00 16.92     0.103 A 
HETATM   10  C5    D T   1      11.461  18.254  -5.615  1.00 16.19     0.043 A 
HETATM   11  C4    D T   1      11.590  18.598  -7.056  1.00 14.79     0.085 A 
HETATM   12  C6    D T   1      10.936  19.123  -4.679  1.00 16.37     0.030 A 
HETATM   13  C3    D T   1      11.177  19.857  -7.476  1.00 15.80     0.045 A 
HETATM   14  N7    D T   1      12.108  17.700  -7.917  1.00 17.15    -0.244 NA
HETATM   15  C2    D T   1      10.631  20.740  -6.535  1.00 18.47     0.118 A 
HETATM   16  C1    D T   1      10.502  20.384  -5.112  1.00 19.14     0.116 A 
HETATM   17  C8    D T   1      12.503  16.461  -7.557  1.00 16.83     0.101 A 
HETATM   18  C9    D T   1      12.458  16.076  -6.192  1.00 17.41     0.045 A 
BRANCH  15  19
HETATM   19  O13   D T   1      10.180  21.988  -6.820  1.00 18.42    -0.329 OA
BRANCH  19  20
HETATM   20  C23   D T   1       9.202  22.275  -7.826  1.00 21.03     0.151 C 
BRANCH  20  21
HETATM   21  C24   D T   1       7.857  21.829  -7.249  1.00 22.44     0.056 C 
BRANCH  21  22
HETATM   22  C25   D T   1       7.412  20.689  -8.135  1.00 28.63     0.100 C 
BRANCH  22  23
HETATM   23  N26   D T   1       7.415  19.396  -7.483  1.00 33.59    -0.364 N 
HETATM   24  C27   D T   1       6.584  19.331  -6.276  1.00 36.37     0.130 C 
HETATM   25  C28   D T   1       7.128  18.230  -5.361  1.00 38.52     0.166 C 
HETATM   26  O29   D T   1       7.224  17.070  -6.174  1.00 39.12    -0.350 OA
HETATM   27  C30   D T   1       8.291  17.285  -7.109  1.00 39.82     0.166 C 
HETATM   28  C31   D T   1       7.716  18.174  -8.224  1.00 38.13     0.130 C 
ENDBRANCH  22  23
ENDBRANCH  21  22
ENDBRANCH  20  21
ENDBRANCH  19  20
ENDBRANCH  15  19
BRANCH  16  29
HETATM   29  O11   D T   1       9.924  21.352  -4.300  1.00 20.67    -0.326 OA
HETATM   30  C12   D T   1      10.629  22.107  -3.312  1.00 21.17     0.181 C 
ENDBRANCH  16  29
ENDBRANCH   8   9
ENDBRANCH   1   8
BRANCH   4  31
HETATM   31  N22   D T   1       6.894  14.862  -1.989  1.00 20.22    -0.211 NA
HETATM   32  C32   D T   1       5.815  15.549  -1.556  1.00 20.90     0.263 C 
HETATM   33  O36   D T   1       5.789  16.747  -1.398  1.00 20.49    -0.270 OA
BRANCH  32  34
HETATM   34  C33   D T   1       4.539  14.778  -1.277  1.00 20.84     0.146 A 
HETATM   35  C45   D T   1       3.760  14.594  -2.594  1.00 21.22     0.019 A 
HETATM   36  C46   D T   1       3.200  15.510  -1.510  1.00 20.56     0.019 A 
BRANCH  34  37
HETATM   37  C34   D T   1       4.604  13.593  -0.286  1.00 20.23     0.263 C 
HETATM   38  N35   D T   1       5.056  13.783   0.968  1.00 17.24    -0.211 NA
HETATM   39  O37   D T   1       4.633  12.444  -0.747  1.00 19.27    -0.270 OA
BRANCH  38  40
HETATM   40  C38   D T   1       5.085  12.757   1.881  1.00 18.52     0.085 A 
HETATM   41  C39   D T   1       6.299  12.294   2.429  1.00 17.15     0.021 A 
HETATM   42  C40   D T   1       6.354  11.240   3.350  1.00 19.70     0.031 A 
HETATM   43  C41   D T   1       5.117  10.677   3.752  1.00 19.38     0.140 A 
HETATM   44  C42   D T   1       3.908  11.138   3.224  1.00 18.79     0.031 A 
HETATM   45  F44   D T   1       5.087   9.675   4.658  1.00 21.15    -0.204 F 
HETATM   46  C43   D T   1       3.863  12.196   2.306  1.00 17.84     0.021 A 
ENDBRANCH  38  40
ENDBRANCH  34  37
ENDBRANCH  32  34
ENDBRANCH   4  31
TORSDOF 12
ENDMDL
MODEL 4
REMARK VINA RESULT:    -8.489      2.969      5.115
REMARK INTER + INTRA:         -16.188
REMARK INTER:                 -14.491
REMARK INTRA:                  -1.697
REMARK UNBOUND:                -1.743
REMARK  12 active torsions:
REMARK  status: ('A' for Active; 'I' for Inactive)
REMARK    1  A    between atoms: C1_1  and  O11_11 
REMARK    2  A    between atoms: C2_2  and  O13_13 
REMARK    3  A    between atoms: C10_10  and  O14_14 
REMARK    4  A    between atoms: O13_13  and  C23_23 
REMARK    5  A    between atoms: O14_14  and  C15_15 
REMARK    6  A    between atoms: C18_18  and  N22_22 
REMARK       I    between atoms: N22_22  and  C32_32 
REMARK    7  A    between atoms: C23_23  and  C24_24 
REMARK    8  A    between atoms: C24_24  and  C25_25 
REMARK    9  A    between atoms: C25_25  and  N26_26 
REMARK   10  A    between atoms: C32_32  and  C33_33 
REMARK   11  A    between atoms: C33_33  and  C34_34 
REMARK       I    between atoms: C34_34  and  N35_35 
REMARK   12  A    between atoms: N35_35  and  C38_38 
ROOT
HETATM    1  C15   D T   1       4.208  17.165  -3.074  1.00 20.42     0.127 A 
HETATM    2  C16   D T   1       4.371  15.806  -2.889  1.00 16.92     0.029 A 
HETATM    3  C17   D T   1       3.523  15.137  -2.036  1.00 18.89     0.021 A 
HETATM    4  C18   D T   1       2.501  15.795  -1.334  1.00 19.71     0.087 A 
HETATM    5  C19   D T   1       2.285  17.158  -1.512  1.00 20.34     0.051 A 
HETATM    6  C20   D T   1       3.134  17.866  -2.362  1.00 23.00     0.164 A 
HETATM    7  F21   D T   1       3.053  19.189  -2.587  1.00 24.23    -0.202 F 
ENDROOT
BRANCH   1   8
HETATM    8  O14   D T   1       4.994  17.927  -3.890  1.00 19.07    -0.305 OA
BRANCH   8   9
HETATM    9  C10   D T   1       5.657  17.302  -4.930  1.00 16.92     0.103 A 
HETATM   10  C5    D T   1       6.997  16.826  -4.645  1.00 16.19     0.043 A 
HETATM   11  C4    D T   1       7.735  16.188  -5.768  1.00 14.79     0.085 A 
HETATM   12  C6    D T   1       7.532  16.970  -3.380  1.00 16.37     0.030 A 
HETATM   13  C3    D T   1       9.014  15.702  -5.529  1.00 15.80     0.045 A 
HETATM   14  N7    D T   1       7.153  16.084  -6.979  1.00 17.15    -0.244 NA
HETATM   15  C2    D T   1       9.570  15.856  -4.252  1.00 18.47     0.118 A 
HETATM   16  C1    D T   1       8.832  16.496  -3.150  1.00 19.14     0.116 A 
HETATM   17  C8    D T   1       5.921  16.559  -7.261  1.00 16.83     0.101 A 
HETATM   18  C9    D T   1       5.136  17.136  -6.229  1.00 17.41     0.045 A 
BRANCH  15  19
HETATM   19  O13   D T   1      10.812  15.438  -3.897  1.00 18.42    -0.329 OA
BRANCH  19  20
HETATM   20  C23   D T   1      11.947  15.466  -4.769  1.00 21.03     0.151 C 
BRANCH  20  21
HETATM   21  C24   D T   1      12.577  16.849  -4.599  1.00 22.44     0.056 C 
BRANCH  21  22
HETATM   22  C25   D T   1      12.518  17.476  -5.973  1.00 28.63     0.100 C 
BRANCH  22  23
HETATM   23  N26   D T   1      11.396  18.369  -6.169  1.00 33.59    -0.364 N 
HETATM   24  C27   D T   1      11.125  19.252  -5.028  1.00 36.37     0.130 C 
HETATM   25  C28   D T   1       9.647  19.652  -5.054  1.00 38.52     0.166 C 
HETATM   26  O29   D T   1       9.409  20.152  -6.361  1.00 39.12    -0.350 OA
HETATM   27  C30   D T   1       9.470  19.041  -7.267  1.00 39.82     0.166 C 
HETATM   28  C31   D T   1      10.963  18.761  -7.508  1.00 38.13     0.130 C 
ENDBRANCH  22  23
ENDBRANCH  21  22
ENDBRANCH  20  21
ENDBRANCH  19  20
ENDBRANCH  15  19
BRANCH  16  29
HETATM   29  O11   D T   1       9.518  16.596  -1.945  1.00 20.67    -0.326 OA
HETATM   30  C12   D T   1       9.252  15.793  -0.794  1.00 21.17     0.181 C 
ENDBRANCH  16  29
ENDBRANCH   8   9
ENDBRANCH   1   8
BRANCH   4  31
HETATM   31  N22   D T   1       1.730  15.052  -0.509  1.00 20.22    -0.211 NA
HETATM   32  C32   D T   1       0.604  14.358  -0.778  1.00 20.90     0.263 C 
HETATM   33  O36   D T   1       0.039  14.364  -1.846  1.00 20.49    -0.270 OA
BRANCH  32  34
HETATM   34  C33   D T   1       0.022  13.485   0.317  1.00 20.84     0.146 A 
HETATM   35  C45   D T   1      -1.035  12.543  -0.293  1.00 21.22     0.019 A 
HETATM   36  C46   D T   1      -1.476  13.661   0.647  1.00 20.56     0.019 A 
BRANCH  34  37
HETATM   37  C34   D T   1       0.982  12.920   1.389  1.00 20.23     0.263 C 
HETATM   38  N35   D T   1       1.768  11.864   1.104  1.00 17.24    -0.211 NA
HETATM   39  O37   D T   1       0.739  13.161   2.578  1.00 19.27    -0.270 OA
BRANCH  38  40
HETATM   40  C38   D T   1       2.660  11.367   2.023  1.00 18.52     0.085 A 
HETATM   41  C39   D T   1       2.396  10.180   2.736  1.00 17.15     0.021 A 
HETATM   42  C40   D T   1       3.285   9.663   3.689  1.00 19.70     0.031 A 
HETATM   43  C41   D T   1       4.500  10.367   3.878  1.00 19.38     0.140 A 
HETATM   44  C42   D T   1       4.775  11.539   3.167  1.00 18.79     0.031 A 
HETATM   45  F44   D T   1       5.418   9.916   4.761  1.00 21.15    -0.204 F 
HETATM   46  C43   D T   1       3.882  12.045   2.213  1.00 17.84     0.021 A 
ENDBRANCH  38  40
ENDBRANCH  34  37
ENDBRANCH  32  34
ENDBRANCH   4  31
TORSDOF 12
ENDMDL
MODEL 5
REMARK VINA RESULT:    -8.450      2.477      3.689
REMARK INTER + INTRA:         -16.121
REMARK INTER:                 -14.136
REMARK INTRA:                  -1.984
REMARK UNBOUND:                -1.743
REMARK  12 active torsions:
REMARK  status: ('A' for Active; 'I' for Inactive)
REMARK    1  A    between atoms: C1_1  and  O11_11 
REMARK    2  A    between atoms: C2_2  and  O13_13 
REMARK    3  A    between atoms: C10_10  and  O14_14 
REMARK    4  A    between atoms: O13_13  and  C23_23 
REMARK    5  A    between atoms: O14_14  and  C15_15 
REMARK    6  A    between atoms: C18_18  and  N22_22 
REMARK       I    between atoms: N22_22  and  C32_32 
REMARK    7  A    between atoms: C23_23  and  C24_24 
REMARK    8  A    between atoms: C24_24  and  C25_25 
REMARK    9  A    between atoms: C25_25  and  N26_26 
REMARK   10  A    between atoms: C32_32  and  C33_33 
REMARK   11  A    between atoms: C33_33  and  C34_34 
REMARK       I    between atoms: C34_34  and  N35_35 
REMARK   12  A    between atoms: N35_35  and  C38_38 
ROOT
HETATM    1  C15   D T   1       6.723  16.168  -6.292  1.00 20.42     0.127 A 
HETATM    2  C16   D T   1       7.176  14.974  -5.766  1.00 16.92     0.029 A 
HETATM    3  C17   D T   1       6.517  14.420  -4.691  1.00 18.89     0.021 A 
HETATM    4  C18   D T   1       5.404  15.039  -4.101  1.00 19.71     0.087 A 
HETATM    5  C19   D T   1       4.900  16.228  -4.616  1.00 20.34     0.051 A 
HETATM    6  C20   D T   1       5.551  16.820  -5.699  1.00 23.00     0.164 A 
HETATM    7  F21   D T   1       5.185  17.985  -6.260  1.00 24.23    -0.202 F 
ENDROOT
BRANCH   1   8
HETATM    8  O14   D T   1       7.303  16.807  -7.350  1.00 19.07    -0.305 OA
BRANCH   8   9
HETATM    9  C10   D T   1       8.682  16.791  -7.449  1.00 16.92     0.103 A 
HETATM   10  C5    D T   1       9.384  17.902  -6.837  1.00 16.19     0.043 A 
HETATM   11  C4    D T   1      10.865  17.916  -6.973  1.00 14.79     0.085 A 
HETATM   12  C6    D T   1       8.682  18.883  -6.163  1.00 16.37     0.030 A 
HETATM   13  C3    D T   1      11.575  18.954  -6.382  1.00 15.80     0.045 A 
HETATM   14  N7    D T   1      11.486  16.928  -7.647  1.00 17.15    -0.244 NA
HETATM   15  C2    D T   1      10.870  19.961  -5.709  1.00 18.47     0.118 A 
HETATM   16  C1    D T   1       9.403  19.940  -5.588  1.00 19.14     0.116 A 
HETATM   17  C8    D T   1      10.835  15.912  -8.252  1.00 16.83     0.101 A 
HETATM   18  C9    D T   1       9.426  15.803  -8.125  1.00 17.41     0.045 A 
BRANCH  15  19
HETATM   19  O13   D T   1      11.444  21.032  -5.104  1.00 18.42    -0.329 OA
BRANCH  19  20
HETATM   20  C23   D T   1      12.355  20.937  -4.004  1.00 21.03     0.151 C 
BRANCH  20  21
HETATM   21  C24   D T   1      11.617  20.167  -2.908  1.00 22.44     0.056 C 
BRANCH  21  22
HETATM   22  C25   D T   1      12.600  19.120  -2.438  1.00 28.63     0.100 C 
BRANCH  22  23
HETATM   23  N26   D T   1      11.983  17.953  -1.843  1.00 33.59    -0.364 N 
HETATM   24  C27   D T   1      12.835  16.758  -1.845  1.00 36.37     0.130 C 
HETATM   25  C28   D T   1      11.942  15.515  -1.812  1.00 38.52     0.166 C 
HETATM   26  O29   D T   1      11.057  15.708  -0.719  1.00 39.12    -0.350 OA
HETATM   27  C30   D T   1      10.151  16.761  -1.076  1.00 39.82     0.166 C 
HETATM   28  C31   D T   1      10.912  18.079  -0.858  1.00 38.13     0.130 C 
ENDBRANCH  22  23
ENDBRANCH  21  22
ENDBRANCH  20  21
ENDBRANCH  19  20
ENDBRANCH  15  19
BRANCH  16  29
HETATM   29  O11   D T   1       8.839  21.014  -4.909  1.00 20.67    -0.326 OA
HETATM   30  C12   D T   1       8.213  22.132  -5.540  1.00 21.17     0.181 C 
ENDBRANCH  16  29
ENDBRANCH   8   9
ENDBRANCH   1   8
BRANCH   4  31
HETATM   31  N22   D T   1       4.836  14.423  -3.040  1.00 20.22    -0.211 NA
HETATM   32  C32   D T   1       4.696  14.858  -1.769  1.00 20.90     0.263 C 
HETATM   33  O36   D T   1       5.157  15.892  -1.347  1.00 20.49    -0.270 OA
BRANCH  32  34
HETATM   34  C33   D T   1       3.879  14.013  -0.809  1.00 20.84     0.146 A 
HETATM   35  C45   D T   1       2.626  13.489  -1.537  1.00 21.22     0.019 A 
HETATM   36  C46   D T   1       2.474  14.526  -0.428  1.00 20.56     0.019 A 
BRANCH  34  37
HETATM   37  C34   D T   1       4.632  13.057   0.145  1.00 20.23     0.263 C 
HETATM   38  N35   D T   1       5.190  13.530   1.276  1.00 17.24    -0.211 NA
HETATM   39  O37   D T   1       5.060  11.989  -0.313  1.00 19.27    -0.270 OA
BRANCH  38  40
HETATM   40  C38   D T   1       5.828  12.697   2.161  1.00 18.52     0.085 A 
HETATM   41  C39   D T   1       5.112  11.765   2.940  1.00 17.15     0.021 A 
HETATM   42  C40   D T   1       5.741  10.916   3.861  1.00 19.70     0.031 A 
HETATM   43  C41   D T   1       7.153  10.998   3.947  1.00 19.38     0.140 A 
HETATM   44  C42   D T   1       7.871  11.911   3.170  1.00 18.79     0.031 A 
HETATM   45  F44   D T   1       7.832  10.193   4.793  1.00 21.15    -0.204 F 
HETATM   46  C43   D T   1       7.235  12.754   2.249  1.00 17.84     0.021 A 
ENDBRANCH  38  40
ENDBRANCH  34  37
ENDBRANCH  32  34
ENDBRANCH   4  31
TORSDOF 12
ENDMDL
MODEL 6
REMARK VINA RESULT:    -8.404      2.211      3.937
REMARK INTER + INTRA:         -16.042
REMARK INTER:                 -14.604
REMARK INTRA:                  -1.438
REMARK UNBOUND:                -1.743
REMARK  12 active torsions:
REMARK  status: ('A' for Active; 'I' for Inactive)
REMARK    1  A    between atoms: C1_1  and  O11_11 
REMARK    2  A    between atoms: C2_2  and  O13_13 
REMARK    3  A    between atoms: C10_10  and  O14_14 
REMARK    4  A    between atoms: O13_13  and  C23_23 
REMARK    5  A    between atoms: O14_14  and  C15_15 
REMARK    6  A    between atoms: C18_18  and  N22_22 
REMARK       I    between atoms: N22_22  and  C32_32 
REMARK    7  A    between atoms: C23_23  and  C24_24 
REMARK    8  A    between atoms: C24_24  and  C25_25 
REMARK    9  A    between atoms: C25_25  and  N26_26 
REMARK   10  A    between atoms: C32_32  and  C33_33 
REMARK   11  A    between atoms: C33_33  and  C34_34 
REMARK       I    between atoms: C34_34  and  N35_35 
REMARK   12  A    between atoms: N35_35  and  C38_38 
ROOT
HETATM    1  C15   D T   1       6.024  17.241  -4.219  1.00 20.42     0.127 A 
HETATM    2  C16   D T   1       7.004  16.414  -3.707  1.00 16.92     0.029 A 
HETATM    3  C17   D T   1       6.663  15.475  -2.759  1.00 18.89     0.021 A 
HETATM    4  C18   D T   1       5.349  15.340  -2.284  1.00 19.71     0.087 A 
HETATM    5  C19   D T   1       4.328  16.136  -2.792  1.00 20.34     0.051 A 
HETATM    6  C20   D T   1       4.643  17.103  -3.746  1.00 23.00     0.164 A 
HETATM    7  F21   D T   1       3.754  17.956  -4.284  1.00 24.23    -0.202 F 
ENDROOT
BRANCH   1   8
HETATM    8  O14   D T   1       6.251  18.209  -5.156  1.00 19.07    -0.305 OA
BRANCH   8   9
HETATM    9  C10   D T   1       7.263  18.003  -6.075  1.00 16.92     0.103 A 
HETATM   10  C5    D T   1       8.256  19.055  -6.186  1.00 16.19     0.043 A 
HETATM   11  C4    D T   1       9.326  18.863  -7.201  1.00 14.79     0.085 A 
HETATM   12  C6    D T   1       8.184  20.168  -5.370  1.00 16.37     0.030 A 
HETATM   13  C3    D T   1      10.306  19.840  -7.324  1.00 15.80     0.045 A 
HETATM   14  N7    D T   1       9.333  17.754  -7.967  1.00 17.15    -0.244 NA
HETATM   15  C2    D T   1      10.234  20.978  -6.510  1.00 18.47     0.118 A 
HETATM   16  C1    D T   1       9.165  21.160  -5.514  1.00 19.14     0.116 A 
HETATM   17  C8    D T   1       8.390  16.789  -7.896  1.00 16.83     0.101 A 
HETATM   18  C9    D T   1       7.365  16.878  -6.918  1.00 17.41     0.045 A 
BRANCH  15  19
HETATM   19  O13   D T   1      11.119  22.007  -6.543  1.00 18.42    -0.329 OA
BRANCH  19  20
HETATM   20  C23   D T   1      11.438  22.751  -7.724  1.00 21.03     0.151 C 
BRANCH  20  21
HETATM   21  C24   D T   1      10.283  23.732  -7.931  1.00 22.44     0.056 C 
BRANCH  21  22
HETATM   22  C25   D T   1       9.915  23.597  -9.390  1.00 28.63     0.100 C 
BRANCH  22  23
HETATM   23  N26   D T   1       8.491  23.505  -9.636  1.00 33.59    -0.364 N 
HETATM   24  C27   D T   1       7.754  22.746  -8.619  1.00 36.37     0.130 C 
HETATM   25  C28   D T   1       6.481  22.179  -9.252  1.00 38.52     0.166 C 
HETATM   26  O29   D T   1       5.834  23.285  -9.865  1.00 39.12    -0.350 OA
HETATM   27  C30   D T   1       6.624  23.675 -10.997  1.00 39.82     0.166 C 
HETATM   28  C31   D T   1       7.794  24.505 -10.442  1.00 38.13     0.130 C 
ENDBRANCH  22  23
ENDBRANCH  21  22
ENDBRANCH  20  21
ENDBRANCH  19  20
ENDBRANCH  15  19
BRANCH  16  29
HETATM   29  O11   D T   1       9.211  22.348  -4.792  1.00 20.67    -0.326 OA
HETATM   30  C12   D T   1       8.261  23.408  -4.916  1.00 21.17     0.181 C 
ENDBRANCH  16  29
ENDBRANCH   8   9
ENDBRANCH   1   8
BRANCH   4  31
HETATM   31  N22   D T   1       5.119  14.399  -1.341  1.00 20.22    -0.211 NA
HETATM   32  C32   D T   1       5.484  14.378  -0.041  1.00 20.90     0.263 C 
HETATM   33  O36   D T   1       6.184  15.211   0.484  1.00 20.49    -0.270 OA
BRANCH  32  34
HETATM   34  C33   D T   1       4.960  13.253   0.832  1.00 20.84     0.146 A 
HETATM   35  C45   D T   1       5.689  13.283   2.189  1.00 21.22     0.019 A 
HETATM   36  C46   D T   1       5.949  12.133   1.221  1.00 20.56     0.019 A 
BRANCH  34  37
HETATM   37  C34   D T   1       3.441  12.964   0.816  1.00 20.23     0.263 C 
HETATM   38  N35   D T   1       2.565  13.959   0.576  1.00 17.24    -0.211 NA
HETATM   39  O37   D T   1       3.030  11.957   1.407  1.00 19.27    -0.270 OA
BRANCH  38  40
HETATM   40  C38   D T   1       1.214  13.722   0.515  1.00 18.52     0.085 A 
HETATM   41  C39   D T   1       0.396  13.836   1.657  1.00 17.15     0.021 A 
HETATM   42  C40   D T   1      -0.983  13.584   1.622  1.00 19.70     0.031 A 
HETATM   43  C41   D T   1      -1.540  13.252   0.363  1.00 19.38     0.140 A 
HETATM   44  C42   D T   1      -0.739  13.148  -0.778  1.00 18.79     0.031 A 
HETATM   45  F44   D T   1      -2.866  13.021   0.244  1.00 21.15    -0.204 F 
HETATM   46  C43   D T   1       0.638  13.405  -0.733  1.00 17.84     0.021 A 
ENDBRANCH  38  40
ENDBRANCH  34  37
ENDBRANCH  32  34
ENDBRANCH   4  31
TORSDOF 12
ENDMDL
MODEL 7
REMARK VINA RESULT:    -8.328      2.832      4.539
REMARK INTER + INTRA:         -15.912
REMARK INTER:                 -13.715
REMARK INTRA:                  -2.197
REMARK UNBOUND:                -1.743
REMARK  12 active torsions:
REMARK  status: ('A' for Active; 'I' for Inactive)
REMARK    1  A    between atoms: C1_1  and  O11_11 
REMARK    2  A    between atoms: C2_2  and  O13_13 
REMARK    3  A    between atoms: C10_10  and  O14_14 
REMARK    4  A    between atoms: O13_13  and  C23_23 
REMARK    5  A    between atoms: O14_14  and  C15_15 
REMARK    6  A    between atoms: C18_18  and  N22_22 
REMARK       I    between atoms: N22_22  and  C32_32 
REMARK    7  A    between atoms: C23_23  and  C24_24 
REMARK    8  A    between atoms: C24_24  and  C25_25 
REMARK    9  A    between atoms: C25_25  and  N26_26 
REMARK   10  A    between atoms: C32_32  and  C33_33 
REMARK   11  A    between atoms: C33_33  and  C34_34 
REMARK       I    between atoms: C34_34  and  N35_35 
REMARK   12  A    between atoms: N35_35  and  C38_38 
ROOT
HETATM    1  C15   D T   1       6.401  17.174  -6.277  1.00 20.42     0.127 A 
HETATM    2  C16   D T   1       5.428  17.670  -5.434  1.00 16.92     0.029 A 
HETATM    3  C17   D T   1       4.915  16.857  -4.447  1.00 18.89     0.021 A 
HETATM    4  C18   D T   1       5.342  15.530  -4.279  1.00 19.71     0.087 A 
HETATM    5  C19   D T   1       6.339  15.000  -5.091  1.00 20.34     0.051 A 
HETATM    6  C20   D T   1       6.872  15.795  -6.106  1.00 23.00     0.164 A 
HETATM    7  F21   D T   1       7.810  15.386  -6.977  1.00 24.23    -0.202 F 
ENDROOT
BRANCH   1   8
HETATM    8  O14   D T   1       6.974  17.888  -7.291  1.00 19.07    -0.305 OA
BRANCH   8   9
HETATM    9  C10   D T   1       7.541  19.113  -6.988  1.00 16.92     0.103 A 
HETATM   10  C5    D T   1       8.876  19.082  -6.425  1.00 16.19     0.043 A 
HETATM   11  C4    D T   1       9.479  20.392  -6.058  1.00 14.79     0.085 A 
HETATM   12  C6    D T   1       9.533  17.879  -6.254  1.00 16.37     0.030 A 
HETATM   13  C3    D T   1      10.765  20.406  -5.534  1.00 15.80     0.045 A 
HETATM   14  N7    D T   1       8.780  21.529  -6.248  1.00 17.15    -0.244 NA
HETATM   15  C2    D T   1      11.434  19.188  -5.344  1.00 18.47     0.118 A 
HETATM   16  C1    D T   1      10.823  17.898  -5.704  1.00 19.14     0.116 A 
HETATM   17  C8    D T   1       7.522  21.561  -6.736  1.00 16.83     0.101 A 
HETATM   18  C9    D T   1       6.898  20.356  -7.155  1.00 17.41     0.045 A 
BRANCH  15  19
HETATM   19  O13   D T   1      12.683  19.067  -4.829  1.00 18.42    -0.329 OA
BRANCH  19  20
HETATM   20  C23   D T   1      13.078  19.588  -3.555  1.00 21.03     0.151 C 
BRANCH  20  21
HETATM   21  C24   D T   1      11.972  19.197  -2.575  1.00 22.44     0.056 C 
BRANCH  21  22
HETATM   22  C25   D T   1      12.476  17.944  -1.897  1.00 28.63     0.100 C 
BRANCH  22  23
HETATM   23  N26   D T   1      11.430  17.042  -1.465  1.00 33.59    -0.364 N 
HETATM   24  C27   D T   1      10.128  17.285  -2.098  1.00 36.37     0.130 C 
HETATM   25  C28   D T   1       9.024  16.770  -1.171  1.00 38.52     0.166 C 
HETATM   26  O29   D T   1       9.380  15.431  -0.859  1.00 39.12    -0.350 OA
HETATM   27  C30   D T   1      10.535  15.478  -0.009  1.00 39.82     0.166 C 
HETATM   28  C31   D T   1      11.742  15.718  -0.932  1.00 38.13     0.130 C 
ENDBRANCH  22  23
ENDBRANCH  21  22
ENDBRANCH  20  21
ENDBRANCH  19  20
ENDBRANCH  15  19
BRANCH  16  29
HETATM   29  O11   D T   1      11.595  16.772  -5.442  1.00 20.67    -0.326 OA
HETATM   30  C12   D T   1      11.129  15.426  -5.553  1.00 21.17     0.181 C 
ENDBRANCH  16  29
ENDBRANCH   8   9
ENDBRANCH   1   8
BRANCH   4  31
HETATM   31  N22   D T   1       4.766  14.809  -3.292  1.00 20.22    -0.211 NA
HETATM   32  C32   D T   1       4.912  14.916  -1.953  1.00 20.90     0.263 C 
HETATM   33  O36   D T   1       5.688  15.665  -1.410  1.00 20.49    -0.270 OA
BRANCH  32  34
HETATM   34  C33   D T   1       4.023  14.064  -1.066  1.00 20.84     0.146 A 
HETATM   35  C45   D T   1       2.826  13.553  -1.890  1.00 21.22     0.019 A 
HETATM   36  C46   D T   1       2.595  14.579  -0.785  1.00 20.56     0.019 A 
BRANCH  34  37
HETATM   37  C34   D T   1       4.699  13.096  -0.069  1.00 20.23     0.263 C 
HETATM   38  N35   D T   1       5.154  13.552   1.114  1.00 17.24    -0.211 NA
HETATM   39  O37   D T   1       5.174  12.040  -0.507  1.00 19.27    -0.270 OA
BRANCH  38  40
HETATM   40  C38   D T   1       5.721  12.706   2.036  1.00 18.52     0.085 A 
HETATM   41  C39   D T   1       4.931  11.856   2.837  1.00 17.15     0.021 A 
HETATM   42  C40   D T   1       5.487  10.996   3.794  1.00 19.70     0.031 A 
HETATM   43  C41   D T   1       6.900  10.980   3.896  1.00 19.38     0.140 A 
HETATM   44  C42   D T   1       7.692  11.811   3.098  1.00 18.79     0.031 A 
HETATM   45  F44   D T   1       7.511  10.158   4.777  1.00 21.15    -0.204 F 
HETATM   46  C43   D T   1       7.127  12.664   2.140  1.00 17.84     0.021 A 
ENDBRANCH  38  40
ENDBRANCH  34  37
ENDBRANCH  32  34
ENDBRANCH   4  31
TORSDOF 12
ENDMDL
MODEL 8
REMARK VINA RESULT:    -8.303      1.654      2.528
REMARK INTER + INTRA:         -15.871
REMARK INTER:                 -14.229
REMARK INTRA:                  -1.642
REMARK UNBOUND:                -1.743
REMARK  12 active torsions:
REMARK  status: ('A' for Active; 'I' for Inactive)
REMARK    1  A    between atoms: C1_1  and  O11_11 
REMARK    2  A    between atoms: C2_2  and  O13_13 
REMARK    3  A    between atoms: C10_10  and  O14_14 
REMARK    4  A    between atoms: O13_13  and  C23_23 
REMARK    5  A    between atoms: O14_14  and  C15_15 
REMARK    6  A    between atoms: C18_18  and  N22_22 
REMARK       I    between atoms: N22_22  and  C32_32 
REMARK    7  A    between atoms: C23_23  and  C24_24 
REMARK    8  A    between atoms: C24_24  and  C25_25 
REMARK    9  A    between atoms: C25_25  and  N26_26 
REMARK   10  A    between atoms: C32_32  and  C33_33 
REMARK   11  A    between atoms: C33_33  and  C34_34 
REMARK       I    between atoms: C34_34  and  N35_35 
REMARK   12  A    between atoms: N35_35  and  C38_38 
ROOT
HETATM    1  C15   D T   1       6.426  15.186  -4.874  1.00 20.42     0.127 A 
HETATM    2  C16   D T   1       5.157  15.253  -4.334  1.00 16.92     0.029 A 
HETATM    3  C17   D T   1       4.903  14.627  -3.135  1.00 18.89     0.021 A 
HETATM    4  C18   D T   1       5.892  13.907  -2.445  1.00 19.71     0.087 A 
HETATM    5  C19   D T   1       7.190  13.837  -2.941  1.00 20.34     0.051 A 
HETATM    6  C20   D T   1       7.477  14.453  -4.160  1.00 23.00     0.164 A 
HETATM    7  F21   D T   1       8.679  14.425  -4.760  1.00 24.23    -0.202 F 
ENDROOT
BRANCH   1   8
HETATM    8  O14   D T   1       6.786  15.764  -6.057  1.00 19.07    -0.305 OA
BRANCH   8   9
HETATM    9  C10   D T   1       6.542  17.114  -6.227  1.00 16.92     0.103 A 
HETATM   10  C5    D T   1       7.705  17.979  -6.268  1.00 16.19     0.043 A 
HETATM   11  C4    D T   1       7.451  19.438  -6.409  1.00 14.79     0.085 A 
HETATM   12  C6    D T   1       8.975  17.442  -6.182  1.00 16.37     0.030 A 
HETATM   13  C3    D T   1       8.540  20.297  -6.472  1.00 15.80     0.045 A 
HETATM   14  N7    D T   1       6.185  19.894  -6.484  1.00 17.15    -0.244 NA
HETATM   15  C2    D T   1       9.832  19.763  -6.371  1.00 18.47     0.118 A 
HETATM   16  C1    D T   1      10.070  18.317  -6.224  1.00 19.14     0.116 A 
HETATM   17  C8    D T   1       5.097  19.098  -6.408  1.00 16.83     0.101 A 
HETATM   18  C9    D T   1       5.259  17.690  -6.323  1.00 17.41     0.045 A 
BRANCH  15  19
HETATM   19  O13   D T   1      10.974  20.495  -6.404  1.00 18.42    -0.329 OA
BRANCH  19  20
HETATM   20  C23   D T   1      11.231  21.617  -5.551  1.00 21.03     0.151 C 
BRANCH  20  21
HETATM   21  C24   D T   1      11.158  21.086  -4.119  1.00 22.44     0.056 C 
BRANCH  21  22
HETATM   22  C25   D T   1      12.504  20.443  -3.873  1.00 28.63     0.100 C 
BRANCH  22  23
HETATM   23  N26   D T   1      12.431  19.119  -3.293  1.00 33.59    -0.364 N 
HETATM   24  C27   D T   1      13.737  18.485  -3.078  1.00 36.37     0.130 C 
HETATM   25  C28   D T   1      13.556  16.965  -3.089  1.00 38.52     0.166 C 
HETATM   26  O29   D T   1      12.518  16.697  -2.159  1.00 39.12    -0.350 OA
HETATM   27  C30   D T   1      11.293  17.183  -2.726  1.00 39.82     0.166 C 
HETATM   28  C31   D T   1      11.281  18.703  -2.493  1.00 38.13     0.130 C 
ENDBRANCH  22  23
ENDBRANCH  21  22
ENDBRANCH  20  21
ENDBRANCH  19  20
ENDBRANCH  15  19
BRANCH  16  29
HETATM   29  O11   D T   1      11.402  17.934  -6.117  1.00 20.67    -0.326 OA
HETATM   30  C12   D T   1      12.119  17.208  -7.117  1.00 21.17     0.181 C 
ENDBRANCH  16  29
ENDBRANCH   8   9
ENDBRANCH   1   8
BRANCH   4  31
HETATM   31  N22   D T   1       5.539  13.315  -1.283  1.00 20.22    -0.211 NA
HETATM   32  C32   D T   1       5.677  13.760  -0.015  1.00 20.90     0.263 C 
HETATM   33  O36   D T   1       6.244  14.782   0.290  1.00 20.49    -0.270 OA
BRANCH  32  34
HETATM   34  C33   D T   1       5.053  12.946   1.102  1.00 20.84     0.146 A 
HETATM   35  C45   D T   1       5.781  13.257   2.423  1.00 21.22     0.019 A 
HETATM   36  C46   D T   1       5.937  11.880   1.785  1.00 20.56     0.019 A 
BRANCH  34  37
HETATM   37  C34   D T   1       3.514  12.795   1.125  1.00 20.23     0.263 C 
HETATM   38  N35   D T   1       2.734  13.736   0.560  1.00 17.24    -0.211 NA
HETATM   39  O37   D T   1       3.010  12.060   1.983  1.00 19.27    -0.270 OA
BRANCH  38  40
HETATM   40  C38   D T   1       1.367  13.608   0.529  1.00 18.52     0.085 A 
HETATM   41  C39   D T   1       0.580  13.853   1.672  1.00 17.15     0.021 A 
HETATM   42  C40   D T   1      -0.815  13.714   1.668  1.00 19.70     0.031 A 
HETATM   43  C41   D T   1      -1.418  13.356   0.437  1.00 19.38     0.140 A 
HETATM   44  C42   D T   1      -0.647  13.122  -0.704  1.00 18.79     0.031 A 
HETATM   45  F44   D T   1      -2.760  13.228   0.348  1.00 21.15    -0.204 F 
HETATM   46  C43   D T   1       0.747  13.268  -0.692  1.00 17.84     0.021 A 
ENDBRANCH  38  40
ENDBRANCH  34  37
ENDBRANCH  32  34
ENDBRANCH   4  31
TORSDOF 12
ENDMDL
MODEL 9
REMARK VINA RESULT:    -8.274      2.961      5.100
REMARK INTER + INTRA:         -15.821
REMARK INTER:                 -14.835
REMARK INTRA:                  -0.986
REMARK UNBOUND:                -1.743
REMARK  12 active torsions:
REMARK  status: ('A' for Active; 'I' for Inactive)
REMARK    1  A    between atoms: C1_1  and  O11_11 
REMARK    2  A    between atoms: C2_2  and  O13_13 
REMARK    3  A    between atoms: C10_10  and  O14_14 
REMARK    4  A    between atoms: O13_13  and  C23_23 
REMARK    5  A    between atoms: O14_14  and  C15_15 
REMARK    6  A    between atoms: C18_18  and  N22_22 
REMARK       I    between atoms: N22_22  and  C32_32 
REMARK    7  A    between atoms: C23_23  and  C24_24 
REMARK    8  A    between atoms: C24_24  and  C25_25 
REMARK    9  A    between atoms: C25_25  and  N26_26 
REMARK   10  A    between atoms: C32_32  and  C33_33 
REMARK   11  A    between atoms: C33_33  and  C34_34 
REMARK       I    between atoms: C34_34  and  N35_35 
REMARK   12  A    between atoms: N35_35  and  C38_38 
ROOT
HETATM    1  C15   D T   1       6.056  16.916  -4.174  1.00 20.42     0.127 A 
HETATM    2  C16   D T   1       6.118  17.276  -2.843  1.00 16.92     0.029 A 
HETATM    3  C17   D T   1       5.440  16.523  -1.911  1.00 18.89     0.021 A 
HETATM    4  C18   D T   1       4.672  15.405  -2.273  1.00 19.71     0.087 A 
HETATM    5  C19   D T   1       4.603  14.993  -3.599  1.00 20.34     0.051 A 
HETATM    6  C20   D T   1       5.272  15.741  -4.569  1.00 23.00     0.164 A 
HETATM    7  F21   D T   1       5.252  15.468  -5.885  1.00 24.23    -0.202 F 
ENDROOT
BRANCH   1   8
HETATM    8  O14   D T   1       6.684  17.592  -5.181  1.00 19.07    -0.305 OA
BRANCH   8   9
HETATM    9  C10   D T   1       8.040  17.391  -5.358  1.00 16.92     0.103 A 
HETATM   10  C5    D T   1       8.863  18.582  -5.437  1.00 16.19     0.043 A 
HETATM   11  C4    D T   1      10.318  18.377  -5.668  1.00 14.79     0.085 A 
HETATM   12  C6    D T   1       8.293  19.832  -5.297  1.00 16.37     0.030 A 
HETATM   13  C3    D T   1      11.143  19.493  -5.730  1.00 15.80     0.045 A 
HETATM   14  N7    D T   1      10.807  17.128  -5.800  1.00 17.15    -0.244 NA
HETATM   15  C2    D T   1      10.571  20.767  -5.603  1.00 18.47     0.118 A 
HETATM   16  C1    D T   1       9.128  20.956  -5.382  1.00 19.14     0.116 A 
HETATM   17  C8    D T   1      10.041  16.017  -5.765  1.00 16.83     0.101 A 
HETATM   18  C9    D T   1       8.651  16.128  -5.499  1.00 17.41     0.045 A 
BRANCH  15  19
HETATM   19  O13   D T   1      11.264  21.932  -5.660  1.00 18.42    -0.329 OA
BRANCH  19  20
HETATM   20  C23   D T   1      11.463  22.687  -6.860  1.00 21.03     0.151 C 
BRANCH  20  21
HETATM   21  C24   D T   1      10.981  21.797  -8.006  1.00 22.44     0.056 C 
BRANCH  21  22
HETATM   22  C25   D T   1      10.666  22.751  -9.135  1.00 28.63     0.100 C 
BRANCH  22  23
HETATM   23  N26   D T   1       9.271  23.128  -9.222  1.00 33.59    -0.364 N 
HETATM   24  C27   D T   1       8.338  22.076  -8.802  1.00 36.37     0.130 C 
HETATM   25  C28   D T   1       6.994  22.301  -9.499  1.00 38.52     0.166 C 
HETATM   26  O29   D T   1       6.647  23.652  -9.234  1.00 39.12    -0.350 OA
HETATM   27  C30   D T   1       7.551  24.484  -9.974  1.00 39.82     0.166 C 
HETATM   28  C31   D T   1       8.859  24.528  -9.166  1.00 38.13     0.130 C 
ENDBRANCH  22  23
ENDBRANCH  21  22
ENDBRANCH  20  21
ENDBRANCH  19  20
ENDBRANCH  15  19
BRANCH  16  29
HETATM   29  O11   D T   1       8.701  22.276  -5.294  1.00 20.67    -0.326 OA
HETATM   30  C12   D T   1       8.567  23.005  -4.072  1.00 21.17     0.181 C 
ENDBRANCH  16  29
ENDBRANCH   8   9
ENDBRANCH   1   8
BRANCH   4  31
HETATM   31  N22   D T   1       4.030  14.741  -1.285  1.00 20.22    -0.211 NA
HETATM   32  C32   D T   1       2.707  14.637  -1.039  1.00 20.90     0.263 C 
HETATM   33  O36   D T   1       1.850  15.224  -1.657  1.00 20.49    -0.270 OA
BRANCH  32  34
HETATM   34  C33   D T   1       2.255  13.697   0.063  1.00 20.84     0.146 A 
HETATM   35  C45   D T   1       0.862  13.139  -0.286  1.00 21.22     0.019 A 
HETATM   36  C46   D T   1       1.013  14.107   0.883  1.00 20.56     0.019 A 
BRANCH  34  37
HETATM   37  C34   D T   1       3.300  12.739   0.680  1.00 20.23     0.263 C 
HETATM   38  N35   D T   1       4.364  13.233   1.341  1.00 17.24    -0.211 NA
HETATM   39  O37   D T   1       3.376  11.588   0.231  1.00 19.27    -0.270 OA
BRANCH  38  40
HETATM   40  C38   D T   1       5.285  12.405   1.935  1.00 18.52     0.085 A 
HETATM   41  C39   D T   1       4.985  11.702   3.119  1.00 17.15     0.021 A 
HETATM   42  C40   D T   1       5.914  10.863   3.750  1.00 19.70     0.031 A 
HETATM   43  C41   D T   1       7.172  10.711   3.116  1.00 19.38     0.140 A 
HETATM   44  C42   D T   1       7.474  11.395   1.935  1.00 18.79     0.031 A 
HETATM   45  F44   D T   1       8.111   9.898   3.650  1.00 21.15    -0.204 F 
HETATM   46  C43   D T   1       6.537  12.228   1.309  1.00 17.84     0.021 A 
ENDBRANCH  38  40
ENDBRANCH  34  37
ENDBRANCH  32  34
ENDBRANCH   4  31
TORSDOF 12
ENDMDL
