MODEL 1
REMARK VINA RESULT:    -8.639      0.000      0.000
REMARK INTER + INTRA:         -16.162
REMARK INTER:                 -14.699
REMARK INTRA:                  -1.463
REMARK UNBOUND:                -1.463
REMARK  12 active torsions:
REMARK  status: ('A' for Active; 'I' for Inactive)
REMARK    1  A    between atoms: C1_1  and  O11_11 
REMARK    2  A    between atoms: C2_2  and  O13_13 
REMARK    3  A    between atoms: C10_10  and  O14_14 
REMARK    4  A    between atoms: O13_13  and  C23_23 
REMARK    5  A    between atoms: O14_14  and  C15_15 
REMARK    6  A    between atoms: C18_18  and  N22_22 
REMARK       I    between atoms: N22_22  and  C32_32 
REMARK    7  A    between atoms: C23_23  and  C24_24 
REMARK    8  A    between atoms: C24_24  and  C25_25 
REMARK    9  A    between atoms: C25_25  and  N26_26 
REMARK   10  A    between atoms: C32_32  and  C33_33 
REMARK   11  A    between atoms: C33_33  and  C34_34 
REMARK       I    between atoms: C34_34  and  N35_35 
REMARK   12  A    between atoms: N35_35  and  C38_38 
ROOT
HETATM    1  C15   D T   1     -14.260   3.425  -4.951  1.00 20.42     0.127 A 
HETATM    2  C16   D T   1     -14.356   4.789  -4.762  1.00 16.92     0.029 A 
HETATM    3  C17   D T   1     -14.512   5.282  -3.487  1.00 18.89     0.021 A 
HETATM    4  C18   D T   1     -14.591   4.438  -2.366  1.00 19.71     0.087 A 
HETATM    5  C19   D T   1     -14.471   3.060  -2.510  1.00 20.34     0.051 A 
HETATM    6  C20   D T   1     -14.322   2.529  -3.791  1.00 23.00     0.164 A 
HETATM    7  F21   D T   1     -14.234   1.216  -4.063  1.00 24.23    -0.202 F 
ENDROOT
BRANCH   1   8
HETATM    8  O14   D T   1     -14.109   2.829  -6.171  1.00 19.07    -0.305 OA
BRANCH   8   9
HETATM    9  C10   D T   1     -12.829   2.524  -6.595  1.00 16.92     0.103 A 
HETATM   10  C5    D T   1     -12.702   1.403  -7.506  1.00 16.19     0.043 A 
HETATM   11  C4    D T   1     -11.324   1.042  -7.936  1.00 14.79     0.085 A 
HETATM   12  C6    D T   1     -13.828   0.728  -7.939  1.00 16.37     0.030 A 
HETATM   13  C3    D T   1     -11.164  -0.015  -8.824  1.00 15.80     0.045 A 
HETATM   14  N7    D T   1     -10.271   1.741  -7.472  1.00 17.15    -0.244 NA
HETATM   15  C2    D T   1     -12.298  -0.715  -9.258  1.00 18.47     0.118 A 
HETATM   16  C1    D T   1     -13.657  -0.351  -8.818  1.00 19.14     0.116 A 
HETATM   17  C8    D T   1     -10.378   2.760  -6.594  1.00 16.83     0.101 A 
HETATM   18  C9    D T   1     -11.663   3.198  -6.176  1.00 17.41     0.045 A 
BRANCH  15  19
HETATM   19  O13   D T   1     -12.275  -1.770 -10.110  1.00 18.42    -0.329 OA
BRANCH  19  20
HETATM   20  C23   D T   1     -11.347  -1.904 -11.193  1.00 21.03     0.151 C 
BRANCH  20  21
HETATM   21  C24   D T   1     -12.129  -2.533 -12.347  1.00 22.44     0.056 C 
BRANCH  21  22
HETATM   22  C25   D T   1     -13.017  -3.567 -11.698  1.00 28.63     0.100 C 
BRANCH  22  23
HETATM   23  N26   D T   1     -14.411  -3.476 -12.081  1.00 33.59    -0.364 N 
HETATM   24  C27   D T   1     -15.291  -4.412 -11.371  1.00 36.37     0.130 C 
HETATM   25  C28   D T   1     -16.521  -4.689 -12.239  1.00 38.52     0.166 C 
HETATM   26  O29   D T   1     -17.038  -3.413 -12.586  1.00 39.12    -0.350 OA
HETATM   27  C30   D T   1     -16.114  -2.805 -13.501  1.00 39.82     0.166 C 
HETATM   28  C31   D T   1     -14.964  -2.248 -12.646  1.00 38.13     0.130 C 
ENDBRANCH  22  23
ENDBRANCH  21  22
ENDBRANCH  20  21
ENDBRANCH  19  20
ENDBRANCH  15  19
BRANCH  16  29
HETATM   29  O11   D T   1     -14.683  -1.146  -9.315  1.00 20.67    -0.326 OA
HETATM   30  C12   D T   1     -15.719  -1.722  -8.517  1.00 21.17     0.181 C 
ENDBRANCH  16  29
ENDBRANCH   8   9
ENDBRANCH   1   8
BRANCH   4  31
HETATM   31  N22   D T   1     -14.759   5.019  -1.157  1.00 20.22    -0.211 NA
HETATM   32  C32   D T   1     -15.887   5.474  -0.573  1.00 20.90     0.263 C 
HETATM   33  O36   D T   1     -16.969   5.505  -1.110  1.00 20.49    -0.270 OA
BRANCH  32  34
HETATM   34  C33   D T   1     -15.806   5.951   0.865  1.00 20.84     0.146 A 
HETATM   35  C45   D T   1     -15.314   7.413   0.887  1.00 21.22     0.019 A 
HETATM   36  C46   D T   1     -14.409   6.305   1.419  1.00 20.56     0.019 A 
BRANCH  34  37
HETATM   37  C34   D T   1     -16.935   5.539   1.837  1.00 20.23     0.263 C 
HETATM   38  N35   D T   1     -17.280   4.244   1.964  1.00 17.24    -0.211 NA
HETATM   39  O37   D T   1     -17.762   6.397   2.171  1.00 19.27    -0.270 OA
BRANCH  38  40
HETATM   40  C38   D T   1     -18.251   3.845   2.849  1.00 18.52     0.085 A 
HETATM   41  C39   D T   1     -19.464   3.282   2.405  1.00 17.15     0.021 A 
HETATM   42  C40   D T   1     -20.475   2.883   3.290  1.00 19.70     0.031 A 
HETATM   43  C41   D T   1     -20.208   3.027   4.673  1.00 19.38     0.140 A 
HETATM   44  C42   D T   1     -19.004   3.574   5.123  1.00 18.79     0.031 A 
HETATM   45  F44   D T   1     -21.123   2.639   5.588  1.00 21.15    -0.204 F 
HETATM   46  C43   D T   1     -17.996   3.967   4.232  1.00 17.84     0.021 A 
ENDBRANCH  38  40
ENDBRANCH  34  37
ENDBRANCH  32  34
ENDBRANCH   4  31
TORSDOF 12
ENDMDL
MODEL 2
REMARK VINA RESULT:    -8.538      4.306     11.814
REMARK INTER + INTRA:         -15.991
REMARK INTER:                 -14.545
REMARK INTRA:                  -1.446
REMARK UNBOUND:                -1.463
REMARK  12 active torsions:
REMARK  status: ('A' for Active; 'I' for Inactive)
REMARK    1  A    between atoms: C1_1  and  O11_11 
REMARK    2  A    between atoms: C2_2  and  O13_13 
REMARK    3  A    between atoms: C10_10  and  O14_14 
REMARK    4  A    between atoms: O13_13  and  C23_23 
REMARK    5  A    between atoms: O14_14  and  C15_15 
REMARK    6  A    between atoms: C18_18  and  N22_22 
REMARK       I    between atoms: N22_22  and  C32_32 
REMARK    7  A    between atoms: C23_23  and  C24_24 
REMARK    8  A    between atoms: C24_24  and  C25_25 
REMARK    9  A    between atoms: C25_25  and  N26_26 
REMARK   10  A    between atoms: C32_32  and  C33_33 
REMARK   11  A    between atoms: C33_33  and  C34_34 
REMARK       I    between atoms: C34_34  and  N35_35 
REMARK   12  A    between atoms: N35_35  and  C38_38 
ROOT
HETATM    1  C15   D T   1     -13.190  -0.023  -8.214  1.00 20.42     0.127 A 
HETATM    2  C16   D T   1     -13.089  -0.831  -9.329  1.00 16.92     0.029 A 
HETATM    3  C17   D T   1     -13.593  -2.111  -9.279  1.00 18.89     0.021 A 
HETATM    4  C18   D T   1     -14.196  -2.629  -8.122  1.00 19.71     0.087 A 
HETATM    5  C19   D T   1     -14.341  -1.840  -6.986  1.00 20.34     0.051 A 
HETATM    6  C20   D T   1     -13.832  -0.541  -7.002  1.00 23.00     0.164 A 
HETATM    7  F21   D T   1     -13.876   0.304  -5.958  1.00 24.23    -0.202 F 
ENDROOT
BRANCH   1   8
HETATM    8  O14   D T   1     -12.720   1.259  -8.152  1.00 19.07    -0.305 OA
BRANCH   8   9
HETATM    9  C10   D T   1     -11.419   1.459  -7.731  1.00 16.92     0.103 A 
HETATM   10  C5    D T   1     -11.226   2.437  -6.679  1.00 16.19     0.043 A 
HETATM   11  C4    D T   1      -9.824   2.689  -6.247  1.00 14.79     0.085 A 
HETATM   12  C6    D T   1     -12.313   3.082  -6.121  1.00 16.37     0.030 A 
HETATM   13  C3    D T   1      -9.601   3.605  -5.227  1.00 15.80     0.045 A 
HETATM   14  N7    D T   1      -8.811   2.027  -6.837  1.00 17.15    -0.244 NA
HETATM   15  C2    D T   1     -10.696   4.275  -4.664  1.00 18.47     0.118 A 
HETATM   16  C1    D T   1     -12.078   4.022  -5.106  1.00 19.14     0.116 A 
HETATM   17  C8    D T   1      -8.980   1.144  -7.844  1.00 16.83     0.101 A 
HETATM   18  C9    D T   1     -10.291   0.812  -8.277  1.00 17.41     0.045 A 
BRANCH  15  19
HETATM   19  O13   D T   1     -10.609   5.200  -3.675  1.00 18.42    -0.329 OA
BRANCH  19  20
HETATM   20  C23   D T   1     -10.437   6.603  -3.905  1.00 21.03     0.151 C 
BRANCH  20  21
HETATM   21  C24   D T   1     -11.285   7.312  -2.847  1.00 22.44     0.056 C 
BRANCH  21  22
HETATM   22  C25   D T   1     -11.431   6.309  -1.728  1.00 28.63     0.100 C 
BRANCH  22  23
HETATM   23  N26   D T   1     -12.754   6.267  -1.139  1.00 33.59    -0.364 N 
HETATM   24  C27   D T   1     -13.391   7.582  -0.999  1.00 36.37     0.130 C 
HETATM   25  C28   D T   1     -14.410   7.519   0.142  1.00 38.52     0.166 C 
HETATM   26  O29   D T   1     -15.235   6.400  -0.146  1.00 39.12    -0.350 OA
HETATM   27  C30   D T   1     -14.445   5.217   0.046  1.00 39.82     0.166 C 
HETATM   28  C31   D T   1     -13.581   5.066  -1.216  1.00 38.13     0.130 C 
ENDBRANCH  22  23
ENDBRANCH  21  22
ENDBRANCH  20  21
ENDBRANCH  19  20
ENDBRANCH  15  19
BRANCH  16  29
HETATM   29  O11   D T   1     -13.060   4.774  -4.472  1.00 20.67    -0.326 OA
HETATM   30  C12   D T   1     -14.284   5.186  -5.083  1.00 21.17     0.181 C 
ENDBRANCH  16  29
ENDBRANCH   8   9
ENDBRANCH   1   8
BRANCH   4  31
HETATM   31  N22   D T   1     -14.646  -3.903  -8.168  1.00 20.22    -0.211 NA
HETATM   32  C32   D T   1     -15.770  -4.397  -8.730  1.00 20.90     0.263 C 
HETATM   33  O36   D T   1     -16.631  -3.721  -9.239  1.00 20.49    -0.270 OA
BRANCH  32  34
HETATM   34  C33   D T   1     -15.953  -5.903  -8.759  1.00 20.84     0.146 A 
HETATM   35  C45   D T   1     -14.586  -6.583  -8.540  1.00 21.22     0.019 A 
HETATM   36  C46   D T   1     -15.266  -6.681  -9.903  1.00 20.56     0.019 A 
BRANCH  34  37
HETATM   37  C34   D T   1     -17.195  -6.502  -8.061  1.00 20.23     0.263 C 
HETATM   38  N35   D T   1     -17.103  -7.674  -7.405  1.00 17.24    -0.211 NA
HETATM   39  O37   D T   1     -18.314  -6.132  -8.437  1.00 19.27    -0.270 OA
BRANCH  38  40
HETATM   40  C38   D T   1     -18.180  -8.210  -6.742  1.00 18.52     0.085 A 
HETATM   41  C39   D T   1     -18.917  -9.282  -7.282  1.00 17.15     0.021 A 
HETATM   42  C40   D T   1     -20.028  -9.833  -6.630  1.00 19.70     0.031 A 
HETATM   43  C41   D T   1     -20.360  -9.292  -5.363  1.00 19.38     0.140 A 
HETATM   44  C42   D T   1     -19.628  -8.236  -4.815  1.00 18.79     0.031 A 
HETATM   45  F44   D T   1     -21.403  -9.789  -4.662  1.00 21.15    -0.204 F 
HETATM   46  C43   D T   1     -18.516  -7.694  -5.472  1.00 17.84     0.021 A 
ENDBRANCH  38  40
ENDBRANCH  34  37
ENDBRANCH  32  34
ENDBRANCH   4  31
TORSDOF 12
ENDMDL
MODEL 3
REMARK VINA RESULT:    -8.367      3.174     13.567
REMARK INTER + INTRA:         -15.700
REMARK INTER:                 -14.120
REMARK INTRA:                  -1.580
REMARK UNBOUND:                -1.463
REMARK  12 active torsions:
REMARK  status: ('A' for Active; 'I' for Inactive)
REMARK    1  A    between atoms: C1_1  and  O11_11 
REMARK    2  A    between atoms: C2_2  and  O13_13 
REMARK    3  A    between atoms: C10_10  and  O14_14 
REMARK    4  A    between atoms: O13_13  and  C23_23 
REMARK    5  A    between atoms: O14_14  and  C15_15 
REMARK    6  A    between atoms: C18_18  and  N22_22 
REMARK       I    between atoms: N22_22  and  C32_32 
REMARK    7  A    between atoms: C23_23  and  C24_24 
REMARK    8  A    between atoms: C24_24  and  C25_25 
REMARK    9  A    between atoms: C25_25  and  N26_26 
REMARK   10  A    between atoms: C32_32  and  C33_33 
REMARK   11  A    between atoms: C33_33  and  C34_34 
REMARK       I    between atoms: C34_34  and  N35_35 
REMARK   12  A    between atoms: N35_35  and  C38_38 
ROOT
HETATM    1  C15   D T   1     -13.703   1.682  -5.720  1.00 20.42     0.127 A 
HETATM    2  C16   D T   1     -14.076   0.494  -5.124  1.00 16.92     0.029 A 
HETATM    3  C17   D T   1     -14.114  -0.655  -5.882  1.00 18.89     0.021 A 
HETATM    4  C18   D T   1     -13.799  -0.656  -7.250  1.00 19.71     0.087 A 
HETATM    5  C19   D T   1     -13.393   0.515  -7.883  1.00 20.34     0.051 A 
HETATM    6  C20   D T   1     -13.353   1.697  -7.144  1.00 23.00     0.164 A 
HETATM    7  F21   D T   1     -13.014   2.896  -7.649  1.00 24.23    -0.202 F 
ENDROOT
BRANCH   1   8
HETATM    8  O14   D T   1     -13.635   2.879  -5.065  1.00 19.07    -0.305 OA
BRANCH   8   9
HETATM    9  C10   D T   1     -14.762   3.325  -4.401  1.00 16.92     0.103 A 
HETATM   10  C5    D T   1     -14.541   4.249  -3.306  1.00 16.19     0.043 A 
HETATM   11  C4    D T   1     -15.745   4.703  -2.558  1.00 14.79     0.085 A 
HETATM   12  C6    D T   1     -13.261   4.672  -3.000  1.00 16.37     0.030 A 
HETATM   13  C3    D T   1     -15.574   5.605  -1.514  1.00 15.80     0.045 A 
HETATM   14  N7    D T   1     -16.963   4.247  -2.907  1.00 17.15    -0.244 NA
HETATM   15  C2    D T   1     -14.279   6.029  -1.188  1.00 18.47     0.118 A 
HETATM   16  C1    D T   1     -13.094   5.565  -1.932  1.00 19.14     0.116 A 
HETATM   17  C8    D T   1     -17.172   3.357  -3.900  1.00 16.83     0.101 A 
HETATM   18  C9    D T   1     -16.080   2.916  -4.692  1.00 17.41     0.045 A 
BRANCH  15  19
HETATM   19  O13   D T   1     -13.980   6.892  -0.185  1.00 18.42    -0.329 OA
BRANCH  19  20
HETATM   20  C23   D T   1     -14.961   7.592   0.587  1.00 21.03     0.151 C 
BRANCH  20  21
HETATM   21  C24   D T   1     -15.168   6.767   1.858  1.00 22.44     0.056 C 
BRANCH  21  22
HETATM   22  C25   D T   1     -16.629   6.935   2.199  1.00 28.63     0.100 C 
BRANCH  22  23
HETATM   23  N26   D T   1     -17.476   5.860   1.723  1.00 33.59    -0.364 N 
HETATM   24  C27   D T   1     -18.454   6.270   0.709  1.00 36.37     0.130 C 
HETATM   25  C28   D T   1     -19.643   5.307   0.751  1.00 38.52     0.166 C 
HETATM   26  O29   D T   1     -19.083   4.005   0.657  1.00 39.12    -0.350 OA
HETATM   27  C30   D T   1     -18.395   3.740   1.889  1.00 39.82     0.166 C 
HETATM   28  C31   D T   1     -17.044   4.466   1.793  1.00 38.13     0.130 C 
ENDBRANCH  22  23
ENDBRANCH  21  22
ENDBRANCH  20  21
ENDBRANCH  19  20
ENDBRANCH  15  19
BRANCH  16  29
HETATM   29  O11   D T   1     -11.873   6.055  -1.484  1.00 20.67    -0.326 OA
HETATM   30  C12   D T   1     -10.623   5.836  -2.140  1.00 21.17     0.181 C 
ENDBRANCH  16  29
ENDBRANCH   8   9
ENDBRANCH   1   8
BRANCH   4  31
HETATM   31  N22   D T   1     -13.882  -1.832  -7.911  1.00 20.22    -0.211 NA
HETATM   32  C32   D T   1     -14.923  -2.370  -8.580  1.00 20.90     0.263 C 
HETATM   33  O36   D T   1     -16.028  -1.885  -8.626  1.00 20.49    -0.270 OA
BRANCH  32  34
HETATM   34  C33   D T   1     -14.689  -3.651  -9.359  1.00 20.84     0.146 A 
HETATM   35  C45   D T   1     -15.928  -4.560  -9.222  1.00 21.22     0.019 A 
HETATM   36  C46   D T   1     -14.617  -4.968  -8.555  1.00 20.56     0.019 A 
BRANCH  34  37
HETATM   37  C34   D T   1     -13.994  -3.554 -10.736  1.00 20.23     0.263 C 
HETATM   38  N35   D T   1     -12.662  -3.376 -10.811  1.00 17.24    -0.211 NA
HETATM   39  O37   D T   1     -14.680  -3.238 -11.716  1.00 19.27    -0.270 OA
BRANCH  38  40
HETATM   40  C38   D T   1     -12.013  -3.327 -12.020  1.00 18.52     0.085 A 
HETATM   41  C39   D T   1     -11.889  -4.469 -12.835  1.00 17.15     0.021 A 
HETATM   42  C40   D T   1     -11.217  -4.445 -14.065  1.00 19.70     0.031 A 
HETATM   43  C41   D T   1     -10.699  -3.196 -14.487  1.00 19.38     0.140 A 
HETATM   44  C42   D T   1     -10.828  -2.055 -13.691  1.00 18.79     0.031 A 
HETATM   45  F44   D T   1     -10.063  -3.088 -15.674  1.00 21.15    -0.204 F 
HETATM   46  C43   D T   1     -11.505  -2.087 -12.464  1.00 17.84     0.021 A 
ENDBRANCH  38  40
ENDBRANCH  34  37
ENDBRANCH  32  34
ENDBRANCH   4  31
TORSDOF 12
ENDMDL
MODEL 4
REMARK VINA RESULT:    -8.263      3.286     13.525
REMARK INTER + INTRA:         -15.523
REMARK INTER:                 -13.780
REMARK INTRA:                  -1.743
REMARK UNBOUND:                -1.463
REMARK  12 active torsions:
REMARK  status: ('A' for Active; 'I' for Inactive)
REMARK    1  A    between atoms: C1_1  and  O11_11 
REMARK    2  A    between atoms: C2_2  and  O13_13 
REMARK    3  A    between atoms: C10_10  and  O14_14 
REMARK    4  A    between atoms: O13_13  and  C23_23 
REMARK    5  A    between atoms: O14_14  and  C15_15 
REMARK    6  A    between atoms: C18_18  and  N22_22 
REMARK       I    between atoms: N22_22  and  C32_32 
REMARK    7  A    between atoms: C23_23  and  C24_24 
REMARK    8  A    between atoms: C24_24  and  C25_25 
REMARK    9  A    between atoms: C25_25  and  N26_26 
REMARK   10  A    between atoms: C32_32  and  C33_33 
REMARK   11  A    between atoms: C33_33  and  C34_34 
REMARK       I    between atoms: C34_34  and  N35_35 
REMARK   12  A    between atoms: N35_35  and  C38_38 
ROOT
HETATM    1  C15   D T   1     -13.729   0.182  -7.837  1.00 20.42     0.127 A 
HETATM    2  C16   D T   1     -13.706  -0.255  -9.146  1.00 16.92     0.029 A 
HETATM    3  C17   D T   1     -13.830  -1.601  -9.408  1.00 18.89     0.021 A 
HETATM    4  C18   D T   1     -13.966  -2.550  -8.382  1.00 19.71     0.087 A 
HETATM    5  C19   D T   1     -14.021  -2.149  -7.051  1.00 20.34     0.051 A 
HETATM    6  C20   D T   1     -13.888  -0.793  -6.752  1.00 23.00     0.164 A 
HETATM    7  F21   D T   1     -13.887  -0.286  -5.508  1.00 24.23    -0.202 F 
ENDROOT
BRANCH   1   8
HETATM    8  O14   D T   1     -13.609   1.491  -7.464  1.00 19.07    -0.305 OA
BRANCH   8   9
HETATM    9  C10   D T   1     -12.358   1.957  -7.106  1.00 16.92     0.103 A 
HETATM   10  C5    D T   1     -12.319   2.959  -6.059  1.00 16.19     0.043 A 
HETATM   11  C4    D T   1     -10.981   3.497  -5.695  1.00 14.79     0.085 A 
HETATM   12  C6    D T   1     -13.488   3.369  -5.445  1.00 16.37     0.030 A 
HETATM   13  C3    D T   1     -10.901   4.445  -4.682  1.00 15.80     0.045 A 
HETATM   14  N7    D T   1      -9.882   3.055  -6.337  1.00 17.15    -0.244 NA
HETATM   15  C2    D T   1     -12.082   4.877  -4.064  1.00 18.47     0.118 A 
HETATM   16  C1    D T   1     -13.402   4.342  -4.439  1.00 19.14     0.116 A 
HETATM   17  C8    D T   1      -9.915   2.151  -7.339  1.00 16.83     0.101 A 
HETATM   18  C9    D T   1     -11.149   1.553  -7.709  1.00 17.41     0.045 A 
BRANCH  15  19
HETATM   19  O13   D T   1     -12.139   5.805  -3.075  1.00 18.42    -0.329 OA
BRANCH  19  20
HETATM   20  C23   D T   1     -11.438   5.694  -1.832  1.00 21.03     0.151 C 
BRANCH  20  21
HETATM   21  C24   D T   1     -12.410   5.030  -0.855  1.00 22.44     0.056 C 
BRANCH  21  22
HETATM   22  C25   D T   1     -13.499   6.052  -0.632  1.00 28.63     0.100 C 
BRANCH  22  23
HETATM   23  N26   D T   1     -14.555   5.610   0.255  1.00 33.59    -0.364 N 
HETATM   24  C27   D T   1     -14.939   4.204   0.077  1.00 36.37     0.130 C 
HETATM   25  C28   D T   1     -16.385   4.024   0.543  1.00 38.52     0.166 C 
HETATM   26  O29   D T   1     -16.435   4.573   1.852  1.00 39.12    -0.350 OA
HETATM   27  C30   D T   1     -16.299   5.997   1.730  1.00 39.82     0.166 C 
HETATM   28  C31   D T   1     -14.799   6.271   1.534  1.00 38.13     0.130 C 
ENDBRANCH  22  23
ENDBRANCH  21  22
ENDBRANCH  20  21
ENDBRANCH  19  20
ENDBRANCH  15  19
BRANCH  16  29
HETATM   29  O11   D T   1     -14.486   4.879  -3.753  1.00 20.67    -0.326 OA
HETATM   30  C12   D T   1     -15.846   4.496  -3.962  1.00 21.17     0.181 C 
ENDBRANCH  16  29
ENDBRANCH   8   9
ENDBRANCH   1   8
BRANCH   4  31
HETATM   31  N22   D T   1     -14.066  -3.849  -8.741  1.00 20.22    -0.211 NA
HETATM   32  C32   D T   1     -15.168  -4.604  -8.933  1.00 20.90     0.263 C 
HETATM   33  O36   D T   1     -16.296  -4.230  -8.724  1.00 20.49    -0.270 OA
BRANCH  32  34
HETATM   34  C33   D T   1     -14.986  -6.008  -9.481  1.00 20.84     0.146 A 
HETATM   35  C45   D T   1     -16.067  -6.930  -8.879  1.00 21.22     0.019 A 
HETATM   36  C46   D T   1     -14.606  -7.119  -8.477  1.00 20.56     0.019 A 
BRANCH  34  37
HETATM   37  C34   D T   1     -14.629  -6.169 -10.976  1.00 20.23     0.263 C 
HETATM   38  N35   D T   1     -13.744  -5.336 -11.554  1.00 17.24    -0.211 NA
HETATM   39  O37   D T   1     -15.428  -6.768 -11.707  1.00 19.27    -0.270 OA
BRANCH  38  40
HETATM   40  C38   D T   1     -13.378  -5.481 -12.869  1.00 18.52     0.085 A 
HETATM   41  C39   D T   1     -12.488  -6.494 -13.277  1.00 17.15     0.021 A 
HETATM   42  C40   D T   1     -12.088  -6.651 -14.612  1.00 19.70     0.031 A 
HETATM   43  C41   D T   1     -12.659  -5.765 -15.558  1.00 19.38     0.140 A 
HETATM   44  C42   D T   1     -13.551  -4.765 -15.165  1.00 18.79     0.031 A 
HETATM   45  F44   D T   1     -12.343  -5.871 -16.868  1.00 21.15    -0.204 F 
HETATM   46  C43   D T   1     -13.948  -4.618 -13.829  1.00 17.84     0.021 A 
ENDBRANCH  38  40
ENDBRANCH  34  37
ENDBRANCH  32  34
ENDBRANCH   4  31
TORSDOF 12
ENDMDL
MODEL 5
REMARK VINA RESULT:    -8.180      2.250      4.175
REMARK INTER + INTRA:         -15.381
REMARK INTER:                 -13.542
REMARK INTRA:                  -1.839
REMARK UNBOUND:                -1.463
REMARK  12 active torsions:
REMARK  status: ('A' for Active; 'I' for Inactive)
REMARK    1  A    between atoms: C1_1  and  O11_11 
REMARK    2  A    between atoms: C2_2  and  O13_13 
REMARK    3  A    between atoms: C10_10  and  O14_14 
REMARK    4  A    between atoms: O13_13  and  C23_23 
REMARK    5  A    between atoms: O14_14  and  C15_15 
REMARK    6  A    between atoms: C18_18  and  N22_22 
REMARK       I    between atoms: N22_22  and  C32_32 
REMARK    7  A    between atoms: C23_23  and  C24_24 
REMARK    8  A    between atoms: C24_24  and  C25_25 
REMARK    9  A    between atoms: C25_25  and  N26_26 
REMARK   10  A    between atoms: C32_32  and  C33_33 
REMARK   11  A    between atoms: C33_33  and  C34_34 
REMARK       I    between atoms: C34_34  and  N35_35 
REMARK   12  A    between atoms: N35_35  and  C38_38 
ROOT
HETATM    1  C15   D T   1     -13.761   1.347  -6.895  1.00 20.42     0.127 A 
HETATM    2  C16   D T   1     -14.773   1.515  -5.971  1.00 16.92     0.029 A 
HETATM    3  C17   D T   1     -14.567   2.346  -4.893  1.00 18.89     0.021 A 
HETATM    4  C18   D T   1     -13.352   3.020  -4.693  1.00 19.71     0.087 A 
HETATM    5  C19   D T   1     -12.316   2.899  -5.614  1.00 20.34     0.051 A 
HETATM    6  C20   D T   1     -12.490   2.057  -6.712  1.00 23.00     0.164 A 
HETATM    7  F21   D T   1     -11.554   1.827  -7.649  1.00 24.23    -0.202 F 
ENDROOT
BRANCH   1   8
HETATM    8  O14   D T   1     -13.855   0.545  -7.997  1.00 19.07    -0.305 OA
BRANCH   8   9
HETATM    9  C10   D T   1     -14.107  -0.801  -7.805  1.00 16.92     0.103 A 
HETATM   10  C5    D T   1     -14.758  -1.496  -8.898  1.00 16.19     0.043 A 
HETATM   11  C4    D T   1     -15.070  -2.935  -8.686  1.00 14.79     0.085 A 
HETATM   12  C6    D T   1     -15.057  -0.826 -10.070  1.00 16.37     0.030 A 
HETATM   13  C3    D T   1     -15.677  -3.641  -9.718  1.00 15.80     0.045 A 
HETATM   14  N7    D T   1     -14.755  -3.526  -7.517  1.00 17.15    -0.244 NA
HETATM   15  C2    D T   1     -15.996  -2.966 -10.905  1.00 18.47     0.118 A 
HETATM   16  C1    D T   1     -15.688  -1.538 -11.099  1.00 19.14     0.116 A 
HETATM   17  C8    D T   1     -14.184  -2.875  -6.481  1.00 16.83     0.101 A 
HETATM   18  C9    D T   1     -13.809  -1.513  -6.625  1.00 17.41     0.045 A 
BRANCH  15  19
HETATM   19  O13   D T   1     -16.600  -3.536 -11.978  1.00 18.42    -0.329 OA
BRANCH  19  20
HETATM   20  C23   D T   1     -16.103  -4.698 -12.652  1.00 21.03     0.151 C 
BRANCH  20  21
HETATM   21  C24   D T   1     -15.015  -4.201 -13.606  1.00 22.44     0.056 C 
BRANCH  21  22
HETATM   22  C25   D T   1     -13.713  -4.572 -12.939  1.00 28.63     0.100 C 
BRANCH  22  23
HETATM   23  N26   D T   1     -12.697  -3.542 -13.007  1.00 33.59    -0.364 N 
HETATM   24  C27   D T   1     -12.620  -2.860 -14.304  1.00 36.37     0.130 C 
HETATM   25  C28   D T   1     -11.206  -2.304 -14.488  1.00 38.52     0.166 C 
HETATM   26  O29   D T   1     -10.938  -1.549 -13.315  1.00 39.12    -0.350 OA
HETATM   27  C30   D T   1     -10.794  -2.475 -12.228  1.00 39.82     0.166 C 
HETATM   28  C31   D T   1     -12.219  -2.867 -11.803  1.00 38.13     0.130 C 
ENDBRANCH  22  23
ENDBRANCH  21  22
ENDBRANCH  20  21
ENDBRANCH  19  20
ENDBRANCH  15  19
BRANCH  16  29
HETATM   29  O11   D T   1     -16.080  -0.999 -12.319  1.00 20.67    -0.326 OA
HETATM   30  C12   D T   1     -16.960   0.117 -12.465  1.00 21.17     0.181 C 
ENDBRANCH  16  29
ENDBRANCH   8   9
ENDBRANCH   1   8
BRANCH   4  31
HETATM   31  N22   D T   1     -13.243   3.802  -3.596  1.00 20.22    -0.211 NA
HETATM   32  C32   D T   1     -13.614   5.087  -3.416  1.00 20.90     0.263 C 
HETATM   33  O36   D T   1     -14.055   5.797  -4.287  1.00 20.49    -0.270 OA
BRANCH  32  34
HETATM   34  C33   D T   1     -13.506   5.675  -2.021  1.00 20.84     0.146 A 
HETATM   35  C45   D T   1     -12.819   7.053  -2.105  1.00 21.22     0.019 A 
HETATM   36  C46   D T   1     -12.088   5.886  -1.447  1.00 20.56     0.019 A 
BRANCH  34  37
HETATM   37  C34   D T   1     -14.705   5.506  -1.061  1.00 20.23     0.263 C 
HETATM   38  N35   D T   1     -15.086   4.278  -0.663  1.00 17.24    -0.211 NA
HETATM   39  O37   D T   1     -15.533   6.423  -0.991  1.00 19.27    -0.270 OA
BRANCH  38  40
HETATM   40  C38   D T   1     -16.122   4.100   0.221  1.00 18.52     0.085 A 
HETATM   41  C39   D T   1     -17.304   3.434  -0.156  1.00 17.15     0.021 A 
HETATM   42  C40   D T   1     -18.379   3.256   0.725  1.00 19.70     0.031 A 
HETATM   43  C41   D T   1     -18.211   3.740   2.045  1.00 19.38     0.140 A 
HETATM   44  C42   D T   1     -17.038   4.392   2.432  1.00 18.79     0.031 A 
HETATM   45  F44   D T   1     -19.194   3.581   2.959  1.00 21.15    -0.204 F 
HETATM   46  C43   D T   1     -15.966   4.562   1.546  1.00 17.84     0.021 A 
ENDBRANCH  38  40
ENDBRANCH  34  37
ENDBRANCH  32  34
ENDBRANCH   4  31
TORSDOF 12
ENDMDL
MODEL 6
REMARK VINA RESULT:    -8.022      1.868      2.238
REMARK INTER + INTRA:         -15.113
REMARK INTER:                 -14.291
REMARK INTRA:                  -0.822
REMARK UNBOUND:                -1.463
REMARK  12 active torsions:
REMARK  status: ('A' for Active; 'I' for Inactive)
REMARK    1  A    between atoms: C1_1  and  O11_11 
REMARK    2  A    between atoms: C2_2  and  O13_13 
REMARK    3  A    between atoms: C10_10  and  O14_14 
REMARK    4  A    between atoms: O13_13  and  C23_23 
REMARK    5  A    between atoms: O14_14  and  C15_15 
REMARK    6  A    between atoms: C18_18  and  N22_22 
REMARK       I    between atoms: N22_22  and  C32_32 
REMARK    7  A    between atoms: C23_23  and  C24_24 
REMARK    8  A    between atoms: C24_24  and  C25_25 
REMARK    9  A    between atoms: C25_25  and  N26_26 
REMARK   10  A    between atoms: C32_32  and  C33_33 
REMARK   11  A    between atoms: C33_33  and  C34_34 
REMARK       I    between atoms: C34_34  and  N35_35 
REMARK   12  A    between atoms: N35_35  and  C38_38 
ROOT
HETATM    1  C15   D T   1     -14.679   3.048  -4.561  1.00 20.42     0.127 A 
HETATM    2  C16   D T   1     -15.202   4.317  -4.416  1.00 16.92     0.029 A 
HETATM    3  C17   D T   1     -15.333   4.850  -3.154  1.00 18.89     0.021 A 
HETATM    4  C18   D T   1     -14.964   4.136  -2.002  1.00 19.71     0.087 A 
HETATM    5  C19   D T   1     -14.409   2.865  -2.105  1.00 20.34     0.051 A 
HETATM    6  C20   D T   1     -14.272   2.294  -3.371  1.00 23.00     0.164 A 
HETATM    7  F21   D T   1     -13.786   1.062  -3.599  1.00 24.23    -0.202 F 
ENDROOT
BRANCH   1   8
HETATM    8  O14   D T   1     -14.510   2.422  -5.764  1.00 19.07    -0.305 OA
BRANCH   8   9
HETATM    9  C10   D T   1     -13.232   2.345  -6.286  1.00 16.92     0.103 A 
HETATM   10  C5    D T   1     -12.993   1.290  -7.251  1.00 16.19     0.043 A 
HETATM   11  C4    D T   1     -11.611   1.173  -7.787  1.00 14.79     0.085 A 
HETATM   12  C6    D T   1     -14.024   0.453  -7.635  1.00 16.37     0.030 A 
HETATM   13  C3    D T   1     -11.348   0.185  -8.729  1.00 15.80     0.045 A 
HETATM   14  N7    D T   1     -10.652   2.020  -7.365  1.00 17.15    -0.244 NA
HETATM   15  C2    D T   1     -12.383  -0.677  -9.116  1.00 18.47     0.118 A 
HETATM   16  C1    D T   1     -13.747  -0.555  -8.570  1.00 19.14     0.116 A 
HETATM   17  C8    D T   1     -10.858   2.980  -6.439  1.00 16.83     0.101 A 
HETATM   18  C9    D T   1     -12.162   3.187  -5.917  1.00 17.41     0.045 A 
BRANCH  15  19
HETATM   19  O13   D T   1     -12.252  -1.687 -10.012  1.00 18.42    -0.329 OA
BRANCH  19  20
HETATM   20  C23   D T   1     -11.493  -1.588 -11.223  1.00 21.03     0.151 C 
BRANCH  20  21
HETATM   21  C24   D T   1     -11.616  -2.948 -11.912  1.00 22.44     0.056 C 
BRANCH  21  22
HETATM   22  C25   D T   1     -10.546  -2.944 -12.977  1.00 28.63     0.100 C 
BRANCH  22  23
HETATM   23  N26   D T   1     -10.831  -3.803 -14.108  1.00 33.59    -0.364 N 
HETATM   24  C27   D T   1     -11.543  -5.038 -13.758  1.00 36.37     0.130 C 
HETATM   25  C28   D T   1     -11.236  -6.101 -14.816  1.00 38.52     0.166 C 
HETATM   26  O29   D T   1     -11.524  -5.491 -16.065  1.00 39.12    -0.350 OA
HETATM   27  C30   D T   1     -10.523  -4.489 -16.299  1.00 39.82     0.166 C 
HETATM   28  C31   D T   1     -10.934  -3.266 -15.462  1.00 38.13     0.130 C 
ENDBRANCH  22  23
ENDBRANCH  21  22
ENDBRANCH  20  21
ENDBRANCH  19  20
ENDBRANCH  15  19
BRANCH  16  29
HETATM   29  O11   D T   1     -14.665  -1.492  -9.030  1.00 20.67    -0.326 OA
HETATM   30  C12   D T   1     -15.968  -1.174  -9.522  1.00 21.17     0.181 C 
ENDBRANCH  16  29
ENDBRANCH   8   9
ENDBRANCH   1   8
BRANCH   4  31
HETATM   31  N22   D T   1     -15.146   4.740  -0.806  1.00 20.22    -0.211 NA
HETATM   32  C32   D T   1     -14.565   5.853  -0.309  1.00 20.90     0.263 C 
HETATM   33  O36   D T   1     -13.684   6.467  -0.861  1.00 20.49    -0.270 OA
BRANCH  32  34
HETATM   34  C33   D T   1     -15.070   6.393   1.016  1.00 20.84     0.146 A 
HETATM   35  C45   D T   1     -14.825   7.914   1.069  1.00 21.22     0.019 A 
HETATM   36  C46   D T   1     -14.026   6.990   1.985  1.00 20.56     0.019 A 
BRANCH  34  37
HETATM   37  C34   D T   1     -16.404   5.841   1.570  1.00 20.23     0.263 C 
HETATM   38  N35   D T   1     -16.518   4.537   1.884  1.00 17.24    -0.211 NA
HETATM   39  O37   D T   1     -17.440   6.478   1.343  1.00 19.27    -0.270 OA
BRANCH  38  40
HETATM   40  C38   D T   1     -17.678   4.028   2.416  1.00 18.52     0.085 A 
HETATM   41  C39   D T   1     -18.677   3.467   1.597  1.00 17.15     0.021 A 
HETATM   42  C40   D T   1     -19.875   2.957   2.116  1.00 19.70     0.031 A 
HETATM   43  C41   D T   1     -20.025   2.985   3.525  1.00 19.38     0.140 A 
HETATM   44  C42   D T   1     -19.034   3.529   4.345  1.00 18.79     0.031 A 
HETATM   45  F44   D T   1     -21.140   2.486   4.101  1.00 21.15    -0.204 F 
HETATM   46  C43   D T   1     -17.838   4.033   3.818  1.00 17.84     0.021 A 
ENDBRANCH  38  40
ENDBRANCH  34  37
ENDBRANCH  32  34
ENDBRANCH   4  31
TORSDOF 12
ENDMDL
MODEL 7
REMARK VINA RESULT:    -7.990      4.402     10.376
REMARK INTER + INTRA:         -15.058
REMARK INTER:                 -14.003
REMARK INTRA:                  -1.055
REMARK UNBOUND:                -1.463
REMARK  12 active torsions:
REMARK  status: ('A' for Active; 'I' for Inactive)
REMARK    1  A    between atoms: C1_1  and  O11_11 
REMARK    2  A    between atoms: C2_2  and  O13_13 
REMARK    3  A    between atoms: C10_10  and  O14_14 
REMARK    4  A    between atoms: O13_13  and  C23_23 
REMARK    5  A    between atoms: O14_14  and  C15_15 
REMARK    6  A    between atoms: C18_18  and  N22_22 
REMARK       I    between atoms: N22_22  and  C32_32 
REMARK    7  A    between atoms: C23_23  and  C24_24 
REMARK    8  A    between atoms: C24_24  and  C25_25 
REMARK    9  A    between atoms: C25_25  and  N26_26 
REMARK   10  A    between atoms: C32_32  and  C33_33 
REMARK   11  A    between atoms: C33_33  and  C34_34 
REMARK       I    between atoms: C34_34  and  N35_35 
REMARK   12  A    between atoms: N35_35  and  C38_38 
ROOT
HETATM    1  C15   D T   1     -15.529   5.886   0.521  1.00 20.42     0.127 A 
HETATM    2  C16   D T   1     -14.908   6.929  -0.137  1.00 16.92     0.029 A 
HETATM    3  C17   D T   1     -13.838   6.661  -0.962  1.00 18.89     0.021 A 
HETATM    4  C18   D T   1     -13.347   5.358  -1.146  1.00 19.71     0.087 A 
HETATM    5  C19   D T   1     -13.961   4.277  -0.522  1.00 20.34     0.051 A 
HETATM    6  C20   D T   1     -15.041   4.517   0.327  1.00 23.00     0.164 A 
HETATM    7  F21   D T   1     -15.693   3.563   1.014  1.00 24.23    -0.202 F 
ENDROOT
BRANCH   1   8
HETATM    8  O14   D T   1     -16.593   6.038   1.364  1.00 19.07    -0.305 OA
BRANCH   8   9
HETATM    9  C10   D T   1     -17.722   6.675   0.884  1.00 16.92     0.103 A 
HETATM   10  C5    D T   1     -18.516   5.938  -0.079  1.00 16.19     0.043 A 
HETATM   11  C4    D T   1     -19.710   6.632  -0.634  1.00 14.79     0.085 A 
HETATM   12  C6    D T   1     -18.156   4.654  -0.440  1.00 16.37     0.030 A 
HETATM   13  C3    D T   1     -20.508   5.950  -1.545  1.00 15.80     0.045 A 
HETATM   14  N7    D T   1     -20.001   7.887  -0.241  1.00 17.15    -0.244 NA
HETATM   15  C2    D T   1     -20.144   4.652  -1.927  1.00 18.47     0.118 A 
HETATM   16  C1    D T   1     -18.954   3.979  -1.376  1.00 19.14     0.116 A 
HETATM   17  C8    D T   1     -19.244   8.593   0.626  1.00 16.83     0.101 A 
HETATM   18  C9    D T   1     -18.117   7.983   1.237  1.00 17.41     0.045 A 
BRANCH  15  19
HETATM   19  O13   D T   1     -20.828   3.889  -2.816  1.00 18.42    -0.329 OA
BRANCH  19  20
HETATM   20  C23   D T   1     -21.028   4.244  -4.189  1.00 21.03     0.151 C 
BRANCH  20  21
HETATM   21  C24   D T   1     -19.638   4.529  -4.760  1.00 22.44     0.056 C 
BRANCH  21  22
HETATM   22  C25   D T   1     -19.271   3.283  -5.531  1.00 28.63     0.100 C 
BRANCH  22  23
HETATM   23  N26   D T   1     -17.905   2.844  -5.333  1.00 33.59    -0.364 N 
HETATM   24  C27   D T   1     -17.109   3.729  -4.474  1.00 36.37     0.130 C 
HETATM   25  C28   D T   1     -15.630   3.565  -4.832  1.00 38.52     0.166 C 
HETATM   26  O29   D T   1     -15.376   2.169  -4.777  1.00 39.12    -0.350 OA
HETATM   27  C30   D T   1     -16.057   1.561  -5.884  1.00 39.82     0.166 C 
HETATM   28  C31   D T   1     -17.532   1.439  -5.470  1.00 38.13     0.130 C 
ENDBRANCH  22  23
ENDBRANCH  21  22
ENDBRANCH  20  21
ENDBRANCH  19  20
ENDBRANCH  15  19
BRANCH  16  29
HETATM   29  O11   D T   1     -18.706   2.701  -1.862  1.00 20.67    -0.326 OA
HETATM   30  C12   D T   1     -19.124   1.495  -1.220  1.00 21.17     0.181 C 
ENDBRANCH  16  29
ENDBRANCH   8   9
ENDBRANCH   1   8
BRANCH   4  31
HETATM   31  N22   D T   1     -12.283   5.201  -1.964  1.00 20.22    -0.211 NA
HETATM   32  C32   D T   1     -12.182   5.418  -3.292  1.00 20.90     0.263 C 
HETATM   33  O36   D T   1     -13.105   5.730  -4.005  1.00 20.49    -0.270 OA
BRANCH  32  34
HETATM   34  C33   D T   1     -10.812   5.298  -3.935  1.00 20.84     0.146 A 
HETATM   35  C45   D T   1      -9.728   5.566  -2.870  1.00 21.22     0.019 A 
HETATM   36  C46   D T   1      -9.942   6.572  -3.998  1.00 20.56     0.019 A 
BRANCH  34  37
HETATM   37  C34   D T   1     -10.579   4.157  -4.952  1.00 20.23     0.263 C 
HETATM   38  N35   D T   1     -11.620   3.619  -5.615  1.00 17.24    -0.211 NA
HETATM   39  O37   D T   1      -9.542   3.489  -4.855  1.00 19.27    -0.270 OA
BRANCH  38  40
HETATM   40  C38   D T   1     -11.438   2.633  -6.553  1.00 18.52     0.085 A 
HETATM   41  C39   D T   1     -12.467   1.728  -6.878  1.00 17.15     0.021 A 
HETATM   42  C40   D T   1     -12.299   0.705  -7.820  1.00 19.70     0.031 A 
HETATM   43  C41   D T   1     -11.046   0.643  -8.480  1.00 19.38     0.140 A 
HETATM   44  C42   D T   1     -10.023   1.542  -8.173  1.00 18.79     0.031 A 
HETATM   45  F44   D T   1     -10.818  -0.300  -9.420  1.00 21.15    -0.204 F 
HETATM   46  C43   D T   1     -10.202   2.566  -7.232  1.00 17.84     0.021 A 
ENDBRANCH  38  40
ENDBRANCH  34  37
ENDBRANCH  32  34
ENDBRANCH   4  31
TORSDOF 12
ENDMDL
MODEL 8
REMARK VINA RESULT:    -7.879      4.760     10.133
REMARK INTER + INTRA:         -14.868
REMARK INTER:                 -14.092
REMARK INTRA:                  -0.777
REMARK UNBOUND:                -1.463
REMARK  12 active torsions:
REMARK  status: ('A' for Active; 'I' for Inactive)
REMARK    1  A    between atoms: C1_1  and  O11_11 
REMARK    2  A    between atoms: C2_2  and  O13_13 
REMARK    3  A    between atoms: C10_10  and  O14_14 
REMARK    4  A    between atoms: O13_13  and  C23_23 
REMARK    5  A    between atoms: O14_14  and  C15_15 
REMARK    6  A    between atoms: C18_18  and  N22_22 
REMARK       I    between atoms: N22_22  and  C32_32 
REMARK    7  A    between atoms: C23_23  and  C24_24 
REMARK    8  A    between atoms: C24_24  and  C25_25 
REMARK    9  A    between atoms: C25_25  and  N26_26 
REMARK   10  A    between atoms: C32_32  and  C33_33 
REMARK   11  A    between atoms: C33_33  and  C34_34 
REMARK       I    between atoms: C34_34  and  N35_35 
REMARK   12  A    between atoms: N35_35  and  C38_38 
ROOT
HETATM    1  C15   D T   1     -17.167   4.555  -0.271  1.00 20.42     0.127 A 
HETATM    2  C16   D T   1     -16.597   5.808  -0.383  1.00 16.92     0.029 A 
HETATM    3  C17   D T   1     -15.337   5.927  -0.923  1.00 18.89     0.021 A 
HETATM    4  C18   D T   1     -14.602   4.810  -1.354  1.00 19.71     0.087 A 
HETATM    5  C19   D T   1     -15.150   3.533  -1.283  1.00 20.34     0.051 A 
HETATM    6  C20   D T   1     -16.422   3.379  -0.731  1.00 23.00     0.164 A 
HETATM    7  F21   D T   1     -17.043   2.197  -0.574  1.00 24.23    -0.202 F 
ENDROOT
BRANCH   1   8
HETATM    8  O14   D T   1     -18.407   4.322   0.253  1.00 19.07    -0.305 OA
BRANCH   8   9
HETATM    9  C10   D T   1     -19.436   5.175  -0.098  1.00 16.92     0.103 A 
HETATM   10  C5    D T   1     -19.928   5.064  -1.458  1.00 16.19     0.043 A 
HETATM   11  C4    D T   1     -21.008   6.007  -1.859  1.00 14.79     0.085 A 
HETATM   12  C6    D T   1     -19.402   4.115  -2.313  1.00 16.37     0.030 A 
HETATM   13  C3    D T   1     -21.519   5.917  -3.148  1.00 15.80     0.045 A 
HETATM   14  N7    D T   1     -21.472   6.911  -0.975  1.00 17.15    -0.244 NA
HETATM   15  C2    D T   1     -20.982   4.967  -4.026  1.00 18.47     0.118 A 
HETATM   16  C1    D T   1     -19.907   4.044  -3.619  1.00 19.14     0.116 A 
HETATM   17  C8    D T   1     -20.992   7.046   0.279  1.00 16.83     0.101 A 
HETATM   18  C9    D T   1     -19.997   6.150   0.753  1.00 17.41     0.045 A 
BRANCH  15  19
HETATM   19  O13   D T   1     -21.383   4.790  -5.311  1.00 18.42    -0.329 OA
BRANCH  19  20
HETATM   20  C23   D T   1     -22.127   5.759  -6.057  1.00 21.03     0.151 C 
BRANCH  20  21
HETATM   21  C24   D T   1     -21.444   5.858  -7.422  1.00 22.44     0.056 C 
BRANCH  21  22
HETATM   22  C25   D T   1     -20.313   4.859  -7.366  1.00 28.63     0.100 C 
BRANCH  22  23
HETATM   23  N26   D T   1     -20.157   4.072  -8.572  1.00 33.59    -0.364 N 
HETATM   24  C27   D T   1     -19.811   4.858  -9.761  1.00 36.37     0.130 C 
HETATM   25  C28   D T   1     -20.284   4.104 -11.007  1.00 38.52     0.166 C 
HETATM   26  O29   D T   1     -19.746   2.795 -10.887  1.00 39.12    -0.350 OA
HETATM   27  C30   D T   1     -20.440   2.139  -9.816  1.00 39.82     0.166 C 
HETATM   28  C31   D T   1     -19.809   2.654  -8.512  1.00 38.13     0.130 C 
ENDBRANCH  22  23
ENDBRANCH  21  22
ENDBRANCH  20  21
ENDBRANCH  19  20
ENDBRANCH  15  19
BRANCH  16  29
HETATM   29  O11   D T   1     -19.461   3.169  -4.602  1.00 20.67    -0.326 OA
HETATM   30  C12   D T   1     -18.102   3.060  -5.032  1.00 21.17     0.181 C 
ENDBRANCH  16  29
ENDBRANCH   8   9
ENDBRANCH   1   8
BRANCH   4  31
HETATM   31  N22   D T   1     -13.367   5.030  -1.856  1.00 20.22    -0.211 NA
HETATM   32  C32   D T   1     -13.005   5.544  -3.051  1.00 20.90     0.263 C 
HETATM   33  O36   D T   1     -13.778   5.829  -3.933  1.00 20.49    -0.270 OA
BRANCH  32  34
HETATM   34  C33   D T   1     -11.532   5.816  -3.296  1.00 20.84     0.146 A 
HETATM   35  C45   D T   1     -10.815   5.981  -1.940  1.00 21.22     0.019 A 
HETATM   36  C46   D T   1     -10.980   7.190  -2.856  1.00 20.56     0.019 A 
BRANCH  34  37
HETATM   37  C34   D T   1     -10.818   5.025  -4.415  1.00 20.23     0.263 C 
HETATM   38  N35   D T   1     -11.140   3.738  -4.645  1.00 17.24    -0.211 NA
HETATM   39  O37   D T   1      -9.714   5.427  -4.804  1.00 19.27    -0.270 OA
BRANCH  38  40
HETATM   40  C38   D T   1     -10.552   3.023  -5.659  1.00 18.52     0.085 A 
HETATM   41  C39   D T   1      -9.199   2.634  -5.595  1.00 17.15     0.021 A 
HETATM   42  C40   D T   1      -8.574   1.918  -6.624  1.00 19.70     0.031 A 
HETATM   43  C41   D T   1      -9.380   1.554  -7.731  1.00 19.38     0.140 A 
HETATM   44  C42   D T   1     -10.724   1.926  -7.799  1.00 18.79     0.031 A 
HETATM   45  F44   D T   1      -8.854   0.840  -8.751  1.00 21.15    -0.204 F 
HETATM   46  C43   D T   1     -11.343   2.638  -6.763  1.00 17.84     0.021 A 
ENDBRANCH  38  40
ENDBRANCH  34  37
ENDBRANCH  32  34
ENDBRANCH   4  31
TORSDOF 12
ENDMDL
MODEL 9
REMARK VINA RESULT:    -7.830      3.700     12.634
REMARK INTER + INTRA:         -14.785
REMARK INTER:                 -12.829
REMARK INTRA:                  -1.957
REMARK UNBOUND:                -1.463
REMARK  12 active torsions:
REMARK  status: ('A' for Active; 'I' for Inactive)
REMARK    1  A    between atoms: C1_1  and  O11_11 
REMARK    2  A    between atoms: C2_2  and  O13_13 
REMARK    3  A    between atoms: C10_10  and  O14_14 
REMARK    4  A    between atoms: O13_13  and  C23_23 
REMARK    5  A    between atoms: O14_14  and  C15_15 
REMARK    6  A    between atoms: C18_18  and  N22_22 
REMARK       I    between atoms: N22_22  and  C32_32 
REMARK    7  A    between atoms: C23_23  and  C24_24 
REMARK    8  A    between atoms: C24_24  and  C25_25 
REMARK    9  A    between atoms: C25_25  and  N26_26 
REMARK   10  A    between atoms: C32_32  and  C33_33 
REMARK   11  A    between atoms: C33_33  and  C34_34 
REMARK       I    between atoms: C34_34  and  N35_35 
REMARK   12  A    between atoms: N35_35  and  C38_38 
ROOT
HETATM    1  C15   D T   1     -13.666   0.228  -6.448  1.00 20.42     0.127 A 
HETATM    2  C16   D T   1     -14.247  -1.024  -6.414  1.00 16.92     0.029 A 
HETATM    3  C17   D T   1     -14.349  -1.748  -7.580  1.00 18.89     0.021 A 
HETATM    4  C18   D T   1     -13.893  -1.248  -8.811  1.00 19.71     0.087 A 
HETATM    5  C19   D T   1     -13.278  -0.003  -8.884  1.00 20.34     0.051 A 
HETATM    6  C20   D T   1     -13.168   0.760  -7.721  1.00 23.00     0.164 A 
HETATM    7  F21   D T   1     -12.629   1.990  -7.668  1.00 24.23    -0.202 F 
ENDROOT
BRANCH   1   8
HETATM    8  O14   D T   1     -13.518   1.033  -5.354  1.00 19.07    -0.305 OA
BRANCH   8   9
HETATM    9  C10   D T   1     -14.484   1.992  -5.112  1.00 16.92     0.103 A 
HETATM   10  C5    D T   1     -14.010   3.280  -4.644  1.00 16.19     0.043 A 
HETATM   11  C4    D T   1     -15.045   4.305  -4.342  1.00 14.79     0.085 A 
HETATM   12  C6    D T   1     -12.655   3.512  -4.501  1.00 16.37     0.030 A 
HETATM   13  C3    D T   1     -14.628   5.559  -3.910  1.00 15.80     0.045 A 
HETATM   14  N7    D T   1     -16.349   4.010  -4.500  1.00 17.15    -0.244 NA
HETATM   15  C2    D T   1     -13.257   5.800  -3.748  1.00 18.47     0.118 A 
HETATM   16  C1    D T   1     -12.243   4.773  -4.044  1.00 19.14     0.116 A 
HETATM   17  C8    D T   1     -16.799   2.801  -4.898  1.00 16.83     0.101 A 
HETATM   18  C9    D T   1     -15.872   1.786  -5.254  1.00 17.41     0.045 A 
BRANCH  15  19
HETATM   19  O13   D T   1     -12.725   6.972  -3.321  1.00 18.42    -0.329 OA
BRANCH  19  20
HETATM   20  C23   D T   1     -12.876   7.482  -1.991  1.00 21.03     0.151 C 
BRANCH  20  21
HETATM   21  C24   D T   1     -12.883   6.261  -1.068  1.00 22.44     0.056 C 
BRANCH  21  22
HETATM   22  C25   D T   1     -14.062   6.475  -0.148  1.00 28.63     0.100 C 
BRANCH  22  23
HETATM   23  N26   D T   1     -15.144   5.532  -0.343  1.00 33.59    -0.364 N 
HETATM   24  C27   D T   1     -14.766   4.131  -0.121  1.00 36.37     0.130 C 
HETATM   25  C28   D T   1     -15.706   3.232  -0.928  1.00 38.52     0.166 C 
HETATM   26  O29   D T   1     -17.020   3.638  -0.574  1.00 39.12    -0.350 OA
HETATM   27  C30   D T   1     -17.238   4.940  -1.138  1.00 39.82     0.166 C 
HETATM   28  C31   D T   1     -16.539   5.938  -0.200  1.00 38.13     0.130 C 
ENDBRANCH  22  23
ENDBRANCH  21  22
ENDBRANCH  20  21
ENDBRANCH  19  20
ENDBRANCH  15  19
BRANCH  16  29
HETATM   29  O11   D T   1     -10.923   5.147  -3.818  1.00 20.67    -0.326 OA
HETATM   30  C12   D T   1      -9.823   4.775  -4.650  1.00 21.17     0.181 C 
ENDBRANCH  16  29
ENDBRANCH   8   9
ENDBRANCH   1   8
BRANCH   4  31
HETATM   31  N22   D T   1     -14.053  -2.030  -9.901  1.00 20.22    -0.211 NA
HETATM   32  C32   D T   1     -13.136  -2.744 -10.588  1.00 20.90     0.263 C 
HETATM   33  O36   D T   1     -11.950  -2.727 -10.362  1.00 20.49    -0.270 OA
BRANCH  32  34
HETATM   34  C33   D T   1     -13.625  -3.658 -11.697  1.00 20.84     0.146 A 
HETATM   35  C45   D T   1     -12.672  -3.543 -12.904  1.00 21.22     0.019 A 
HETATM   36  C46   D T   1     -14.092  -2.994 -13.011  1.00 20.56     0.019 A 
BRANCH  34  37
HETATM   37  C34   D T   1     -14.159  -5.056 -11.311  1.00 20.23     0.263 C 
HETATM   38  N35   D T   1     -14.766  -5.244 -10.124  1.00 17.24    -0.211 NA
HETATM   39  O37   D T   1     -13.683  -6.043 -11.884  1.00 19.27    -0.270 OA
BRANCH  38  40
HETATM   40  C38   D T   1     -15.286  -6.465  -9.772  1.00 18.52     0.085 A 
HETATM   41  C39   D T   1     -14.680  -7.265  -8.784  1.00 17.15     0.021 A 
HETATM   42  C40   D T   1     -15.184  -8.521  -8.420  1.00 19.70     0.031 A 
HETATM   43  C41   D T   1     -16.374  -8.943  -9.063  1.00 19.38     0.140 A 
HETATM   44  C42   D T   1     -16.989  -8.152 -10.035  1.00 18.79     0.031 A 
HETATM   45  F44   D T   1     -16.936 -10.130  -8.745  1.00 21.15    -0.204 F 
HETATM   46  C43   D T   1     -16.481  -6.895 -10.390  1.00 17.84     0.021 A 
ENDBRANCH  38  40
ENDBRANCH  34  37
ENDBRANCH  32  34
ENDBRANCH   4  31
TORSDOF 12
ENDMDL
