MODEL 1
REMARK VINA RESULT:    -7.830      0.000      0.000
REMARK INTER + INTRA:         -14.901
REMARK INTER:                 -13.323
REMARK INTRA:                  -1.578
REMARK UNBOUND:                -1.578
REMARK  12 active torsions:
REMARK  status: ('A' for Active; 'I' for Inactive)
REMARK    1  A    between atoms: C1_1  and  O11_11 
REMARK    2  A    between atoms: C2_2  and  O13_13 
REMARK    3  A    between atoms: C10_10  and  O14_14 
REMARK    4  A    between atoms: O13_13  and  C23_23 
REMARK    5  A    between atoms: O14_14  and  C15_15 
REMARK    6  A    between atoms: C18_18  and  N22_22 
REMARK       I    between atoms: N22_22  and  C32_32 
REMARK    7  A    between atoms: C23_23  and  C24_24 
REMARK    8  A    between atoms: C24_24  and  C25_25 
REMARK    9  A    between atoms: C25_25  and  N26_26 
REMARK   10  A    between atoms: C32_32  and  C33_33 
REMARK   11  A    between atoms: C33_33  and  C34_34 
REMARK       I    between atoms: C34_34  and  N35_35 
REMARK   12  A    between atoms: N35_35  and  C38_38 
ROOT
HETATM    1  C15   D T   1      15.729  -1.763   0.633  1.00 20.42     0.127 A 
HETATM    2  C16   D T   1      15.167  -0.549   0.290  1.00 16.92     0.029 A 
HETATM    3  C17   D T   1      13.870  -0.517  -0.172  1.00 18.89     0.021 A 
HETATM    4  C18   D T   1      13.102  -1.684  -0.320  1.00 19.71     0.087 A 
HETATM    5  C19   D T   1      13.622  -2.922   0.039  1.00 20.34     0.051 A 
HETATM    6  C20   D T   1      14.937  -2.990   0.503  1.00 23.00     0.164 A 
HETATM    7  F21   D T   1      15.563  -4.128   0.844  1.00 24.23    -0.202 F 
ENDROOT
BRANCH   1   8
HETATM    8  O14   D T   1      17.005  -1.912   1.097  1.00 19.07    -0.305 OA
BRANCH   8   9
HETATM    9  C10   D T   1      18.026  -1.273   0.417  1.00 16.92     0.103 A 
HETATM   10  C5    D T   1      18.958  -2.126  -0.294  1.00 16.19     0.043 A 
HETATM   11  C4    D T   1      20.084  -1.452  -0.994  1.00 14.79     0.085 A 
HETATM   12  C6    D T   1      18.778  -3.497  -0.307  1.00 16.37     0.030 A 
HETATM   13  C3    D T   1      20.987  -2.235  -1.705  1.00 15.80     0.045 A 
HETATM   14  N7    D T   1      20.203  -0.110  -0.939  1.00 17.15    -0.244 NA
HETATM   15  C2    D T   1      20.820  -3.626  -1.711  1.00 18.47     0.118 A 
HETATM   16  C1    D T   1      19.704  -4.282  -1.007  1.00 19.14     0.116 A 
HETATM   17  C8    D T   1      19.361   0.686  -0.246  1.00 16.83     0.101 A 
HETATM   18  C9    D T   1      18.233   0.122   0.407  1.00 17.41     0.045 A 
BRANCH  15  19
HETATM   19  O13   D T   1      21.638  -4.497  -2.351  1.00 18.42    -0.329 OA
BRANCH  19  20
HETATM   20  C23   D T   1      22.160  -4.285  -3.669  1.00 21.03     0.151 C 
BRANCH  20  21
HETATM   21  C24   D T   1      21.121  -4.858  -4.634  1.00 22.44     0.056 C 
BRANCH  21  22
HETATM   22  C25   D T   1      20.998  -6.316  -4.255  1.00 28.63     0.100 C 
BRANCH  22  23
HETATM   23  N26   D T   1      19.914  -7.011  -4.918  1.00 33.59    -0.364 N 
HETATM   24  C27   D T   1      20.010  -7.013  -6.383  1.00 36.37     0.130 C 
HETATM   25  C28   D T   1      18.604  -7.170  -6.968  1.00 38.52     0.166 C 
HETATM   26  O29   D T   1      18.050  -8.310  -6.331  1.00 39.12    -0.350 OA
HETATM   27  C30   D T   1      17.803  -7.961  -4.960  1.00 39.82     0.166 C 
HETATM   28  C31   D T   1      19.157  -8.059  -4.239  1.00 38.13     0.130 C 
ENDBRANCH  22  23
ENDBRANCH  21  22
ENDBRANCH  20  21
ENDBRANCH  19  20
ENDBRANCH  15  19
BRANCH  16  29
HETATM   29  O11   D T   1      19.678  -5.670  -1.085  1.00 20.67    -0.326 OA
HETATM   30  C12   D T   1      18.505  -6.468  -0.912  1.00 21.17     0.181 C 
ENDBRANCH  16  29
ENDBRANCH   8   9
ENDBRANCH   1   8
BRANCH   4  31
HETATM   31  N22   D T   1      11.845  -1.547  -0.796  1.00 20.22    -0.211 NA
HETATM   32  C32   D T   1      11.385  -1.689  -2.058  1.00 20.90     0.263 C 
HETATM   33  O36   D T   1      12.085  -1.895  -3.020  1.00 20.49    -0.270 OA
BRANCH  32  34
HETATM   34  C33   D T   1       9.886  -1.620  -2.285  1.00 20.84     0.146 A 
HETATM   35  C45   D T   1       9.161  -1.792  -0.935  1.00 21.22     0.019 A 
HETATM   36  C46   D T   1       9.062  -2.893  -1.989  1.00 20.56     0.019 A 
BRANCH  34  37
HETATM   37  C34   D T   1       9.346  -0.572  -3.284  1.00 20.23     0.263 C 
HETATM   38  N35   D T   1       9.750  -0.590  -4.569  1.00 17.24    -0.211 NA
HETATM   39  O37   D T   1       8.886   0.484  -2.834  1.00 19.27    -0.270 OA
BRANCH  38  40
HETATM   40  C38   D T   1       9.255   0.303  -5.487  1.00 18.52     0.085 A 
HETATM   41  C39   D T   1       9.966   1.468  -5.836  1.00 17.15     0.021 A 
HETATM   42  C40   D T   1       9.474   2.400  -6.759  1.00 19.70     0.031 A 
HETATM   43  C41   D T   1       8.233   2.100  -7.373  1.00 19.38     0.140 A 
HETATM   44  C42   D T   1       7.525   0.941  -7.041  1.00 18.79     0.031 A 
HETATM   45  F44   D T   1       7.706   2.937  -8.293  1.00 21.15    -0.204 F 
HETATM   46  C43   D T   1       8.028   0.011  -6.121  1.00 17.84     0.021 A 
ENDBRANCH  38  40
ENDBRANCH  34  37
ENDBRANCH  32  34
ENDBRANCH   4  31
TORSDOF 12
ENDMDL
MODEL 2
REMARK VINA RESULT:    -7.706      6.544      8.413
REMARK INTER + INTRA:         -14.690
REMARK INTER:                 -12.919
REMARK INTRA:                  -1.771
REMARK UNBOUND:                -1.578
REMARK  12 active torsions:
REMARK  status: ('A' for Active; 'I' for Inactive)
REMARK    1  A    between atoms: C1_1  and  O11_11 
REMARK    2  A    between atoms: C2_2  and  O13_13 
REMARK    3  A    between atoms: C10_10  and  O14_14 
REMARK    4  A    between atoms: O13_13  and  C23_23 
REMARK    5  A    between atoms: O14_14  and  C15_15 
REMARK    6  A    between atoms: C18_18  and  N22_22 
REMARK       I    between atoms: N22_22  and  C32_32 
REMARK    7  A    between atoms: C23_23  and  C24_24 
REMARK    8  A    between atoms: C24_24  and  C25_25 
REMARK    9  A    between atoms: C25_25  and  N26_26 
REMARK   10  A    between atoms: C32_32  and  C33_33 
REMARK   11  A    between atoms: C33_33  and  C34_34 
REMARK       I    between atoms: C34_34  and  N35_35 
REMARK   12  A    between atoms: N35_35  and  C38_38 
ROOT
HETATM    1  C15   D T   1      10.725  -3.712   0.638  1.00 20.42     0.127 A 
HETATM    2  C16   D T   1      10.294  -4.557  -0.365  1.00 16.92     0.029 A 
HETATM    3  C17   D T   1       9.629  -4.029  -1.448  1.00 18.89     0.021 A 
HETATM    4  C18   D T   1       9.361  -2.654  -1.560  1.00 19.71     0.087 A 
HETATM    5  C19   D T   1       9.801  -1.766  -0.585  1.00 20.34     0.051 A 
HETATM    6  C20   D T   1      10.471  -2.272   0.530  1.00 23.00     0.164 A 
HETATM    7  F21   D T   1      10.911  -1.523   1.555  1.00 24.23    -0.202 F 
ENDROOT
BRANCH   1   8
HETATM    8  O14   D T   1      11.389  -4.128   1.757  1.00 19.07    -0.305 OA
BRANCH   8   9
HETATM    9  C10   D T   1      10.711  -4.923   2.662  1.00 16.92     0.103 A 
HETATM   10  C5    D T   1      11.008  -6.342   2.622  1.00 16.19     0.043 A 
HETATM   11  C4    D T   1      10.253  -7.212   3.563  1.00 14.79     0.085 A 
HETATM   12  C6    D T   1      11.957  -6.830   1.744  1.00 16.37     0.030 A 
HETATM   13  C3    D T   1      10.526  -8.575   3.569  1.00 15.80     0.045 A 
HETATM   14  N7    D T   1       9.338  -6.670   4.392  1.00 17.15    -0.244 NA
HETATM   15  C2    D T   1      11.476  -9.080   2.672  1.00 18.47     0.118 A 
HETATM   16  C1    D T   1      12.212  -8.209   1.740  1.00 19.14     0.116 A 
HETATM   17  C8    D T   1       9.029  -5.357   4.406  1.00 16.83     0.101 A 
HETATM   18  C9    D T   1       9.741  -4.455   3.573  1.00 17.41     0.045 A 
BRANCH  15  19
HETATM   19  O13   D T   1      11.820 -10.388   2.569  1.00 18.42    -0.329 OA
BRANCH  19  20
HETATM   20  C23   D T   1      10.933 -11.415   2.109  1.00 21.03     0.151 C 
BRANCH  20  21
HETATM   21  C24   D T   1      10.750 -11.176   0.609  1.00 22.44     0.056 C 
BRANCH  21  22
HETATM   22  C25   D T   1       9.255 -11.092   0.407  1.00 28.63     0.100 C 
BRANCH  22  23
HETATM   23  N26   D T   1       8.812  -9.872  -0.235  1.00 33.59    -0.364 N 
HETATM   24  C27   D T   1       7.529  -9.363   0.266  1.00 36.37     0.130 C 
HETATM   25  C28   D T   1       6.870  -8.523  -0.832  1.00 38.52     0.166 C 
HETATM   26  O29   D T   1       7.853  -7.583  -1.236  1.00 39.12    -0.350 OA
HETATM   27  C30   D T   1       8.878  -8.303  -1.937  1.00 39.82     0.166 C 
HETATM   28  C31   D T   1       9.761  -8.955  -0.860  1.00 38.13     0.130 C 
ENDBRANCH  22  23
ENDBRANCH  21  22
ENDBRANCH  20  21
ENDBRANCH  19  20
ENDBRANCH  15  19
BRANCH  16  29
HETATM   29  O11   D T   1      13.109  -8.853   0.896  1.00 20.67    -0.326 OA
HETATM   30  C12   D T   1      14.519  -8.925   1.116  1.00 21.17     0.181 C 
ENDBRANCH  16  29
ENDBRANCH   8   9
ENDBRANCH   1   8
BRANCH   4  31
HETATM   31  N22   D T   1       8.687  -2.237  -2.655  1.00 20.22    -0.211 NA
HETATM   32  C32   D T   1       9.157  -1.911  -3.878  1.00 20.90     0.263 C 
HETATM   33  O36   D T   1      10.327  -1.866  -4.170  1.00 20.49    -0.270 OA
BRANCH  32  34
HETATM   34  C33   D T   1       8.150  -1.612  -4.974  1.00 20.84     0.146 A 
HETATM   35  C45   D T   1       6.850  -2.393  -4.695  1.00 21.22     0.019 A 
HETATM   36  C46   D T   1       7.723  -2.783  -5.887  1.00 20.56     0.019 A 
BRANCH  34  37
HETATM   37  C34   D T   1       8.041  -0.158  -5.490  1.00 20.23     0.263 C 
HETATM   38  N35   D T   1       8.245   0.115  -6.792  1.00 17.24    -0.211 NA
HETATM   39  O37   D T   1       8.170   0.763  -4.675  1.00 19.27    -0.270 OA
BRANCH  38  40
HETATM   40  C38   D T   1       8.114   1.390  -7.285  1.00 18.52     0.085 A 
HETATM   41  C39   D T   1       6.963   1.790  -7.992  1.00 17.15     0.021 A 
HETATM   42  C40   D T   1       6.815   3.081  -8.517  1.00 19.70     0.031 A 
HETATM   43  C41   D T   1       7.866   3.998  -8.268  1.00 19.38     0.140 A 
HETATM   44  C42   D T   1       9.007   3.612  -7.559  1.00 18.79     0.031 A 
HETATM   45  F44   D T   1       7.784   5.268  -8.720  1.00 21.15    -0.204 F 
HETATM   46  C43   D T   1       9.144   2.321  -7.033  1.00 17.84     0.021 A 
ENDBRANCH  38  40
ENDBRANCH  34  37
ENDBRANCH  32  34
ENDBRANCH   4  31
TORSDOF 12
ENDMDL
MODEL 3
REMARK VINA RESULT:    -7.689      5.510      9.299
REMARK INTER + INTRA:         -14.661
REMARK INTER:                 -13.037
REMARK INTRA:                  -1.625
REMARK UNBOUND:                -1.578
REMARK  12 active torsions:
REMARK  status: ('A' for Active; 'I' for Inactive)
REMARK    1  A    between atoms: C1_1  and  O11_11 
REMARK    2  A    between atoms: C2_2  and  O13_13 
REMARK    3  A    between atoms: C10_10  and  O14_14 
REMARK    4  A    between atoms: O13_13  and  C23_23 
REMARK    5  A    between atoms: O14_14  and  C15_15 
REMARK    6  A    between atoms: C18_18  and  N22_22 
REMARK       I    between atoms: N22_22  and  C32_32 
REMARK    7  A    between atoms: C23_23  and  C24_24 
REMARK    8  A    between atoms: C24_24  and  C25_25 
REMARK    9  A    between atoms: C25_25  and  N26_26 
REMARK   10  A    between atoms: C32_32  and  C33_33 
REMARK   11  A    between atoms: C33_33  and  C34_34 
REMARK       I    between atoms: C34_34  and  N35_35 
REMARK   12  A    between atoms: N35_35  and  C38_38 
ROOT
HETATM    1  C15   D T   1      12.228  -2.835   1.297  1.00 20.42     0.127 A 
HETATM    2  C16   D T   1      11.482  -1.673   1.263  1.00 16.92     0.029 A 
HETATM    3  C17   D T   1      10.574  -1.489   0.244  1.00 18.89     0.021 A 
HETATM    4  C18   D T   1      10.391  -2.441  -0.773  1.00 19.71     0.087 A 
HETATM    5  C19   D T   1      11.103  -3.635  -0.760  1.00 20.34     0.051 A 
HETATM    6  C20   D T   1      12.038  -3.848   0.255  1.00 23.00     0.164 A 
HETATM    7  F21   D T   1      12.812  -4.942   0.355  1.00 24.23    -0.202 F 
ENDROOT
BRANCH   1   8
HETATM    8  O14   D T   1      13.158  -3.119   2.257  1.00 19.07    -0.305 OA
BRANCH   8   9
HETATM    9  C10   D T   1      14.160  -2.196   2.489  1.00 16.92     0.103 A 
HETATM   10  C5    D T   1      14.236  -1.652   3.831  1.00 16.19     0.043 A 
HETATM   11  C4    D T   1      15.286  -0.627   4.080  1.00 14.79     0.085 A 
HETATM   12  C6    D T   1      13.365  -2.089   4.810  1.00 16.37     0.030 A 
HETATM   13  C3    D T   1      15.404  -0.097   5.360  1.00 15.80     0.045 A 
HETATM   14  N7    D T   1      16.102  -0.243   3.079  1.00 17.15    -0.244 NA
HETATM   15  C2    D T   1      14.515  -0.525   6.355  1.00 18.47     0.118 A 
HETATM   16  C1    D T   1      13.475  -1.535   6.094  1.00 19.14     0.116 A 
HETATM   17  C8    D T   1      16.010  -0.717   1.818  1.00 16.83     0.101 A 
HETATM   18  C9    D T   1      15.067  -1.733   1.513  1.00 17.41     0.045 A 
BRANCH  15  19
HETATM   19  O13   D T   1      14.516  -0.075   7.635  1.00 18.42    -0.329 OA
BRANCH  19  20
HETATM   20  C23   D T   1      15.510   0.807   8.173  1.00 21.03     0.151 C 
BRANCH  20  21
HETATM   21  C24   D T   1      14.763   2.065   8.618  1.00 22.44     0.056 C 
BRANCH  21  22
HETATM   22  C25   D T   1      15.760   3.189   8.453  1.00 28.63     0.100 C 
BRANCH  22  23
HETATM   23  N26   D T   1      15.220   4.370   7.813  1.00 33.59    -0.364 N 
HETATM   24  C27   D T   1      14.111   4.099   6.890  1.00 36.37     0.130 C 
HETATM   25  C28   D T   1      14.054   5.217   5.846  1.00 38.52     0.166 C 
HETATM   26  O29   D T   1      14.029   6.429   6.585  1.00 39.12    -0.350 OA
HETATM   27  C30   D T   1      15.324   6.596   7.182  1.00 39.82     0.166 C 
HETATM   28  C31   D T   1      15.347   5.690   8.425  1.00 38.13     0.130 C 
ENDBRANCH  22  23
ENDBRANCH  21  22
ENDBRANCH  20  21
ENDBRANCH  19  20
ENDBRANCH  15  19
BRANCH  16  29
HETATM   29  O11   D T   1      12.654  -1.846   7.171  1.00 20.67    -0.326 OA
HETATM   30  C12   D T   1      11.642  -2.855   7.153  1.00 21.17     0.181 C 
ENDBRANCH  16  29
ENDBRANCH   8   9
ENDBRANCH   1   8
BRANCH   4  31
HETATM   31  N22   D T   1       9.487  -2.159  -1.736  1.00 20.22    -0.211 NA
HETATM   32  C32   D T   1       9.677  -1.630  -2.964  1.00 20.90     0.263 C 
HETATM   33  O36   D T   1      10.739  -1.233  -3.379  1.00 20.49    -0.270 OA
BRANCH  32  34
HETATM   34  C33   D T   1       8.488  -1.556  -3.903  1.00 20.84     0.146 A 
HETATM   35  C45   D T   1       7.280  -2.255  -3.248  1.00 21.22     0.019 A 
HETATM   36  C46   D T   1       7.944  -2.886  -4.469  1.00 20.56     0.019 A 
BRANCH  34  37
HETATM   37  C34   D T   1       8.247  -0.238  -4.676  1.00 20.23     0.263 C 
HETATM   38  N35   D T   1       8.722  -0.091  -5.928  1.00 17.24    -0.211 NA
HETATM   39  O37   D T   1       7.992   0.783  -4.027  1.00 19.27    -0.270 OA
BRANCH  38  40
HETATM   40  C38   D T   1       8.488   1.051  -6.652  1.00 18.52     0.085 A 
HETATM   41  C39   D T   1       9.387   2.136  -6.624  1.00 17.15     0.021 A 
HETATM   42  C40   D T   1       9.161   3.317  -7.343  1.00 19.70     0.031 A 
HETATM   43  C41   D T   1       7.996   3.364  -8.149  1.00 19.38     0.140 A 
HETATM   44  C42   D T   1       7.105   2.288  -8.191  1.00 18.79     0.031 A 
HETATM   45  F44   D T   1       7.724   4.458  -8.892  1.00 21.15    -0.204 F 
HETATM   46  C43   D T   1       7.342   1.108  -7.474  1.00 17.84     0.021 A 
ENDBRANCH  38  40
ENDBRANCH  34  37
ENDBRANCH  32  34
ENDBRANCH   4  31
TORSDOF 12
ENDMDL
MODEL 4
REMARK VINA RESULT:    -7.643      6.612      9.940
REMARK INTER + INTRA:         -14.582
REMARK INTER:                 -12.875
REMARK INTRA:                  -1.708
REMARK UNBOUND:                -1.578
REMARK  12 active torsions:
REMARK  status: ('A' for Active; 'I' for Inactive)
REMARK    1  A    between atoms: C1_1  and  O11_11 
REMARK    2  A    between atoms: C2_2  and  O13_13 
REMARK    3  A    between atoms: C10_10  and  O14_14 
REMARK    4  A    between atoms: O13_13  and  C23_23 
REMARK    5  A    between atoms: O14_14  and  C15_15 
REMARK    6  A    between atoms: C18_18  and  N22_22 
REMARK       I    between atoms: N22_22  and  C32_32 
REMARK    7  A    between atoms: C23_23  and  C24_24 
REMARK    8  A    between atoms: C24_24  and  C25_25 
REMARK    9  A    between atoms: C25_25  and  N26_26 
REMARK   10  A    between atoms: C32_32  and  C33_33 
REMARK   11  A    between atoms: C33_33  and  C34_34 
REMARK       I    between atoms: C34_34  and  N35_35 
REMARK   12  A    between atoms: N35_35  and  C38_38 
ROOT
HETATM    1  C15   D T   1      12.137  -2.826   1.546  1.00 20.42     0.127 A 
HETATM    2  C16   D T   1      11.858  -3.773   0.581  1.00 16.92     0.029 A 
HETATM    3  C17   D T   1      10.974  -3.464  -0.428  1.00 18.89     0.021 A 
HETATM    4  C18   D T   1      10.333  -2.216  -0.501  1.00 19.71     0.087 A 
HETATM    5  C19   D T   1      10.606  -1.225   0.435  1.00 20.34     0.051 A 
HETATM    6  C20   D T   1      11.492  -1.511   1.476  1.00 23.00     0.164 A 
HETATM    7  F21   D T   1      11.808  -0.653   2.461  1.00 24.23    -0.202 F 
ENDROOT
BRANCH   1   8
HETATM    8  O14   D T   1      12.993  -3.027   2.591  1.00 19.07    -0.305 OA
BRANCH   8   9
HETATM    9  C10   D T   1      12.453  -3.229   3.848  1.00 16.92     0.103 A 
HETATM   10  C5    D T   1      13.092  -2.527   4.944  1.00 16.19     0.043 A 
HETATM   11  C4    D T   1      12.545  -2.771   6.306  1.00 14.79     0.085 A 
HETATM   12  C6    D T   1      14.153  -1.676   4.702  1.00 16.37     0.030 A 
HETATM   13  C3    D T   1      13.117  -2.100   7.380  1.00 15.80     0.045 A 
HETATM   14  N7    D T   1      11.508  -3.617   6.472  1.00 17.15    -0.244 NA
HETATM   15  C2    D T   1      14.203  -1.246   7.145  1.00 18.47     0.118 A 
HETATM   16  C1    D T   1      14.740  -1.019   5.792  1.00 19.14     0.116 A 
HETATM   17  C8    D T   1      10.935  -4.304   5.461  1.00 16.83     0.101 A 
HETATM   18  C9    D T   1      11.368  -4.087   4.126  1.00 17.41     0.045 A 
BRANCH  15  19
HETATM   19  O13   D T   1      14.857  -0.548   8.107  1.00 18.42    -0.329 OA
BRANCH  19  20
HETATM   20  C23   D T   1      14.266   0.512   8.869  1.00 21.03     0.151 C 
BRANCH  20  21
HETATM   21  C24   D T   1      15.359   1.567   9.045  1.00 22.44     0.056 C 
BRANCH  21  22
HETATM   22  C25   D T   1      14.647   2.776   9.607  1.00 28.63     0.100 C 
BRANCH  22  23
HETATM   23  N26   D T   1      14.876   3.997   8.862  1.00 33.59    -0.364 N 
HETATM   24  C27   D T   1      14.387   3.956   7.479  1.00 36.37     0.130 C 
HETATM   25  C28   D T   1      15.197   4.949   6.640  1.00 38.52     0.166 C 
HETATM   26  O29   D T   1      15.130   6.182   7.339  1.00 39.12    -0.350 OA
HETATM   27  C30   D T   1      15.910   6.043   8.536  1.00 39.82     0.166 C 
HETATM   28  C31   D T   1      15.028   5.282   9.540  1.00 38.13     0.130 C 
ENDBRANCH  22  23
ENDBRANCH  21  22
ENDBRANCH  20  21
ENDBRANCH  19  20
ENDBRANCH  15  19
BRANCH  16  29
HETATM   29  O11   D T   1      15.831  -0.161   5.715  1.00 20.67    -0.326 OA
HETATM   30  C12   D T   1      15.769   1.187   5.245  1.00 21.17     0.181 C 
ENDBRANCH  16  29
ENDBRANCH   8   9
ENDBRANCH   1   8
BRANCH   4  31
HETATM   31  N22   D T   1       9.471  -2.016  -1.522  1.00 20.22    -0.211 NA
HETATM   32  C32   D T   1       9.717  -1.610  -2.785  1.00 20.90     0.263 C 
HETATM   33  O36   D T   1      10.800  -1.268  -3.194  1.00 20.49    -0.270 OA
BRANCH  32  34
HETATM   34  C33   D T   1       8.565  -1.611  -3.774  1.00 20.84     0.146 A 
HETATM   35  C45   D T   1       7.371  -2.369  -3.160  1.00 21.22     0.019 A 
HETATM   36  C46   D T   1       8.120  -2.974  -4.346  1.00 20.56     0.019 A 
BRANCH  34  37
HETATM   37  C34   D T   1       8.286  -0.316  -4.572  1.00 20.23     0.263 C 
HETATM   38  N35   D T   1       8.834  -0.139  -5.789  1.00 17.24    -0.211 NA
HETATM   39  O37   D T   1       7.914   0.686  -3.950  1.00 19.27    -0.270 OA
BRANCH  38  40
HETATM   40  C38   D T   1       8.570   0.982  -6.537  1.00 18.52     0.085 A 
HETATM   41  C39   D T   1       9.422   2.103  -6.506  1.00 17.15     0.021 A 
HETATM   42  C40   D T   1       9.164   3.263  -7.249  1.00 19.70     0.031 A 
HETATM   43  C41   D T   1       8.018   3.249  -8.081  1.00 19.38     0.140 A 
HETATM   44  C42   D T   1       7.173   2.136  -8.127  1.00 18.79     0.031 A 
HETATM   45  F44   D T   1       7.718   4.319  -8.848  1.00 21.15    -0.204 F 
HETATM   46  C43   D T   1       7.441   0.978  -7.385  1.00 17.84     0.021 A 
ENDBRANCH  38  40
ENDBRANCH  34  37
ENDBRANCH  32  34
ENDBRANCH   4  31
TORSDOF 12
ENDMDL
MODEL 5
REMARK VINA RESULT:    -7.559      5.852      7.478
REMARK INTER + INTRA:         -14.440
REMARK INTER:                 -12.492
REMARK INTRA:                  -1.948
REMARK UNBOUND:                -1.578
REMARK  12 active torsions:
REMARK  status: ('A' for Active; 'I' for Inactive)
REMARK    1  A    between atoms: C1_1  and  O11_11 
REMARK    2  A    between atoms: C2_2  and  O13_13 
REMARK    3  A    between atoms: C10_10  and  O14_14 
REMARK    4  A    between atoms: O13_13  and  C23_23 
REMARK    5  A    between atoms: O14_14  and  C15_15 
REMARK    6  A    between atoms: C18_18  and  N22_22 
REMARK       I    between atoms: N22_22  and  C32_32 
REMARK    7  A    between atoms: C23_23  and  C24_24 
REMARK    8  A    between atoms: C24_24  and  C25_25 
REMARK    9  A    between atoms: C25_25  and  N26_26 
REMARK   10  A    between atoms: C32_32  and  C33_33 
REMARK   11  A    between atoms: C33_33  and  C34_34 
REMARK       I    between atoms: C34_34  and  N35_35 
REMARK   12  A    between atoms: N35_35  and  C38_38 
ROOT
HETATM    1  C15   D T   1      12.695  -1.722   1.490  1.00 20.42     0.127 A 
HETATM    2  C16   D T   1      11.417  -1.240   1.692  1.00 16.92     0.029 A 
HETATM    3  C17   D T   1      10.529  -1.230   0.640  1.00 18.89     0.021 A 
HETATM    4  C18   D T   1      10.887  -1.683  -0.641  1.00 19.71     0.087 A 
HETATM    5  C19   D T   1      12.155  -2.201  -0.880  1.00 20.34     0.051 A 
HETATM    6  C20   D T   1      13.082  -2.216   0.165  1.00 23.00     0.164 A 
HETATM    7  F21   D T   1      14.346  -2.655   0.051  1.00 24.23    -0.202 F 
ENDROOT
BRANCH   1   8
HETATM    8  O14   D T   1      13.656  -1.773   2.460  1.00 19.07    -0.305 OA
BRANCH   8   9
HETATM    9  C10   D T   1      13.297  -2.237   3.712  1.00 16.92     0.103 A 
HETATM   10  C5    D T   1      13.005  -3.653   3.815  1.00 16.19     0.043 A 
HETATM   11  C4    D T   1      12.577  -4.154   5.149  1.00 14.79     0.085 A 
HETATM   12  C6    D T   1      13.132  -4.473   2.709  1.00 16.37     0.030 A 
HETATM   13  C3    D T   1      12.308  -5.511   5.292  1.00 15.80     0.045 A 
HETATM   14  N7    D T   1      12.470  -3.299   6.186  1.00 17.15    -0.244 NA
HETATM   15  C2    D T   1      12.421  -6.346   4.173  1.00 18.47     0.118 A 
HETATM   16  C1    D T   1      12.838  -5.836   2.856  1.00 19.14     0.116 A 
HETATM   17  C8    D T   1      12.703  -1.973   6.086  1.00 16.83     0.101 A 
HETATM   18  C9    D T   1      13.163  -1.427   4.859  1.00 17.41     0.045 A 
BRANCH  15  19
HETATM   19  O13   D T   1      12.172  -7.680   4.179  1.00 18.42    -0.329 OA
BRANCH  19  20
HETATM   20  C23   D T   1      10.892  -8.254   4.466  1.00 21.03     0.151 C 
BRANCH  20  21
HETATM   21  C24   D T   1      10.221  -8.493   3.113  1.00 22.44     0.056 C 
BRANCH  21  22
HETATM   22  C25   D T   1       9.287  -7.320   2.927  1.00 28.63     0.100 C 
BRANCH  22  23
HETATM   23  N26   D T   1       9.281  -6.773   1.586  1.00 33.59    -0.364 N 
HETATM   24  C27   D T   1       9.534  -5.329   1.526  1.00 36.37     0.130 C 
HETATM   25  C28   D T   1       8.899  -4.770   0.250  1.00 38.52     0.166 C 
HETATM   26  O29   D T   1       9.388  -5.581  -0.807  1.00 39.12    -0.350 OA
HETATM   27  C30   D T   1       8.783  -6.876  -0.673  1.00 39.82     0.166 C 
HETATM   28  C31   D T   1       9.571  -7.610   0.425  1.00 38.13     0.130 C 
ENDBRANCH  22  23
ENDBRANCH  21  22
ENDBRANCH  20  21
ENDBRANCH  19  20
ENDBRANCH  15  19
BRANCH  16  29
HETATM   29  O11   D T   1      12.886  -6.777   1.834  1.00 20.67    -0.326 OA
HETATM   30  C12   D T   1      13.110  -6.467   0.457  1.00 21.17     0.181 C 
ENDBRANCH  16  29
ENDBRANCH   8   9
ENDBRANCH   1   8
BRANCH   4  31
HETATM   31  N22   D T   1       9.949  -1.618  -1.611  1.00 20.22    -0.211 NA
HETATM   32  C32   D T   1      10.102  -1.490  -2.946  1.00 20.90     0.263 C 
HETATM   33  O36   D T   1      11.162  -1.325  -3.499  1.00 20.49    -0.270 OA
BRANCH  32  34
HETATM   34  C33   D T   1       8.866  -1.591  -3.821  1.00 20.84     0.146 A 
HETATM   35  C45   D T   1       7.778  -2.386  -3.071  1.00 21.22     0.019 A 
HETATM   36  C46   D T   1       8.446  -2.999  -4.300  1.00 20.56     0.019 A 
BRANCH  34  37
HETATM   37  C34   D T   1       8.442  -0.346  -4.634  1.00 20.23     0.263 C 
HETATM   38  N35   D T   1       9.011  -0.091  -5.828  1.00 17.24    -0.211 NA
HETATM   39  O37   D T   1       7.907   0.592  -4.032  1.00 19.27    -0.270 OA
BRANCH  38  40
HETATM   40  C38   D T   1       8.625   0.983  -6.590  1.00 18.52     0.085 A 
HETATM   41  C39   D T   1       7.446   0.952  -7.361  1.00 17.15     0.021 A 
HETATM   42  C40   D T   1       7.041   2.031  -8.158  1.00 19.70     0.031 A 
HETATM   43  C41   D T   1       7.852   3.192  -8.124  1.00 19.38     0.140 A 
HETATM   44  C42   D T   1       9.017   3.236  -7.353  1.00 18.79     0.031 A 
HETATM   45  F44   D T   1       7.512   4.283  -8.845  1.00 21.15    -0.204 F 
HETATM   46  C43   D T   1       9.412   2.155  -6.555  1.00 17.84     0.021 A 
ENDBRANCH  38  40
ENDBRANCH  34  37
ENDBRANCH  32  34
ENDBRANCH   4  31
TORSDOF 12
ENDMDL
MODEL 6
REMARK VINA RESULT:    -7.551      6.464      8.844
REMARK INTER + INTRA:         -14.426
REMARK INTER:                 -12.540
REMARK INTRA:                  -1.886
REMARK UNBOUND:                -1.578
REMARK  12 active torsions:
REMARK  status: ('A' for Active; 'I' for Inactive)
REMARK    1  A    between atoms: C1_1  and  O11_11 
REMARK    2  A    between atoms: C2_2  and  O13_13 
REMARK    3  A    between atoms: C10_10  and  O14_14 
REMARK    4  A    between atoms: O13_13  and  C23_23 
REMARK    5  A    between atoms: O14_14  and  C15_15 
REMARK    6  A    between atoms: C18_18  and  N22_22 
REMARK       I    between atoms: N22_22  and  C32_32 
REMARK    7  A    between atoms: C23_23  and  C24_24 
REMARK    8  A    between atoms: C24_24  and  C25_25 
REMARK    9  A    between atoms: C25_25  and  N26_26 
REMARK   10  A    between atoms: C32_32  and  C33_33 
REMARK   11  A    between atoms: C33_33  and  C34_34 
REMARK       I    between atoms: C34_34  and  N35_35 
REMARK   12  A    between atoms: N35_35  and  C38_38 
ROOT
HETATM    1  C15   D T   1      11.440  -2.880   2.450  1.00 20.42     0.127 A 
HETATM    2  C16   D T   1      10.569  -3.788   1.880  1.00 16.92     0.029 A 
HETATM    3  C17   D T   1       9.887  -3.437   0.737  1.00 18.89     0.021 A 
HETATM    4  C18   D T   1      10.038  -2.177   0.136  1.00 19.71     0.087 A 
HETATM    5  C19   D T   1      10.924  -1.244   0.662  1.00 20.34     0.051 A 
HETATM    6  C20   D T   1      11.624  -1.565   1.826  1.00 23.00     0.164 A 
HETATM    7  F21   D T   1      12.478  -0.737   2.451  1.00 24.23    -0.202 F 
ENDROOT
BRANCH   1   8
HETATM    8  O14   D T   1      12.163  -3.120   3.583  1.00 19.07    -0.305 OA
BRANCH   8   9
HETATM    9  C10   D T   1      12.808  -4.337   3.702  1.00 16.92     0.103 A 
HETATM   10  C5    D T   1      12.249  -5.271   4.658  1.00 16.19     0.043 A 
HETATM   11  C4    D T   1      12.961  -6.568   4.824  1.00 14.79     0.085 A 
HETATM   12  C6    D T   1      11.106  -4.946   5.364  1.00 16.37     0.030 A 
HETATM   13  C3    D T   1      12.443  -7.499   5.717  1.00 15.80     0.045 A 
HETATM   14  N7    D T   1      14.073  -6.820   4.105  1.00 17.15    -0.244 NA
HETATM   15  C2    D T   1      11.293  -7.171   6.446  1.00 18.47     0.118 A 
HETATM   16  C1    D T   1      10.602  -5.881   6.279  1.00 19.14     0.116 A 
HETATM   17  C8    D T   1      14.621  -5.938   3.242  1.00 16.83     0.101 A 
HETATM   18  C9    D T   1      13.973  -4.700   2.993  1.00 17.41     0.045 A 
BRANCH  15  19
HETATM   19  O13   D T   1      10.700  -7.984   7.357  1.00 18.42    -0.329 OA
BRANCH  19  20
HETATM   20  C23   D T   1      10.209  -9.296   7.058  1.00 21.03     0.151 C 
BRANCH  20  21
HETATM   21  C24   D T   1       9.054  -9.103   6.074  1.00 22.44     0.056 C 
BRANCH  21  22
HETATM   22  C25   D T   1       9.440  -9.910   4.856  1.00 28.63     0.100 C 
BRANCH  22  23
HETATM   23  N26   D T   1       9.302  -9.195   3.604  1.00 33.59    -0.364 N 
HETATM   24  C27   D T   1       8.865 -10.032   2.481  1.00 36.37     0.130 C 
HETATM   25  C28   D T   1       9.352  -9.397   1.175  1.00 38.52     0.166 C 
HETATM   26  O29   D T   1       8.911  -8.049   1.218  1.00 39.12    -0.350 OA
HETATM   27  C30   D T   1       9.683  -7.375   2.224  1.00 39.82     0.166 C 
HETATM   28  C31   D T   1       9.056  -7.755   3.576  1.00 38.13     0.130 C 
ENDBRANCH  22  23
ENDBRANCH  21  22
ENDBRANCH  20  21
ENDBRANCH  19  20
ENDBRANCH  15  19
BRANCH  16  29
HETATM   29  O11   D T   1       9.485  -5.688   7.084  1.00 20.67    -0.326 OA
HETATM   30  C12   D T   1       9.373  -4.672   8.082  1.00 21.17     0.181 C 
ENDBRANCH  16  29
ENDBRANCH   8   9
ENDBRANCH   1   8
BRANCH   4  31
HETATM   31  N22   D T   1       9.312  -1.924  -0.976  1.00 20.22    -0.211 NA
HETATM   32  C32   D T   1       9.722  -1.772  -2.253  1.00 20.90     0.263 C 
HETATM   33  O36   D T   1      10.878  -1.760  -2.601  1.00 20.49    -0.270 OA
BRANCH  32  34
HETATM   34  C33   D T   1       8.665  -1.640  -3.333  1.00 20.84     0.146 A 
HETATM   35  C45   D T   1       7.337  -2.230  -2.817  1.00 21.22     0.019 A 
HETATM   36  C46   D T   1       8.095  -2.943  -3.935  1.00 20.56     0.019 A 
BRANCH  34  37
HETATM   37  C34   D T   1       8.621  -0.332  -4.156  1.00 20.23     0.263 C 
HETATM   38  N35   D T   1       8.887  -0.353  -5.476  1.00 17.24    -0.211 NA
HETATM   39  O37   D T   1       8.741   0.742  -3.555  1.00 19.27    -0.270 OA
BRANCH  38  40
HETATM   40  C38   D T   1       8.816   0.786  -6.239  1.00 18.52     0.085 A 
HETATM   41  C39   D T   1       7.718   1.035  -7.087  1.00 17.15     0.021 A 
HETATM   42  C40   D T   1       7.631   2.182  -7.886  1.00 19.70     0.031 A 
HETATM   43  C41   D T   1       8.686   3.122  -7.775  1.00 19.38     0.140 A 
HETATM   44  C42   D T   1       9.773   2.889  -6.928  1.00 18.79     0.031 A 
HETATM   45  F44   D T   1       8.660   4.265  -8.493  1.00 21.15    -0.204 F 
HETATM   46  C43   D T   1       9.849   1.741  -6.128  1.00 17.84     0.021 A 
ENDBRANCH  38  40
ENDBRANCH  34  37
ENDBRANCH  32  34
ENDBRANCH   4  31
TORSDOF 12
ENDMDL
MODEL 7
REMARK VINA RESULT:    -7.520      6.442      8.591
REMARK INTER + INTRA:         -14.375
REMARK INTER:                 -12.840
REMARK INTRA:                  -1.535
REMARK UNBOUND:                -1.578
REMARK  12 active torsions:
REMARK  status: ('A' for Active; 'I' for Inactive)
REMARK    1  A    between atoms: C1_1  and  O11_11 
REMARK    2  A    between atoms: C2_2  and  O13_13 
REMARK    3  A    between atoms: C10_10  and  O14_14 
REMARK    4  A    between atoms: O13_13  and  C23_23 
REMARK    5  A    between atoms: O14_14  and  C15_15 
REMARK    6  A    between atoms: C18_18  and  N22_22 
REMARK       I    between atoms: N22_22  and  C32_32 
REMARK    7  A    between atoms: C23_23  and  C24_24 
REMARK    8  A    between atoms: C24_24  and  C25_25 
REMARK    9  A    between atoms: C25_25  and  N26_26 
REMARK   10  A    between atoms: C32_32  and  C33_33 
REMARK   11  A    between atoms: C33_33  and  C34_34 
REMARK       I    between atoms: C34_34  and  N35_35 
REMARK   12  A    between atoms: N35_35  and  C38_38 
ROOT
HETATM    1  C15   D T   1      12.245  -2.551   1.457  1.00 20.42     0.127 A 
HETATM    2  C16   D T   1      11.364  -1.488   1.448  1.00 16.92     0.029 A 
HETATM    3  C17   D T   1      10.477  -1.360   0.402  1.00 18.89     0.021 A 
HETATM    4  C18   D T   1      10.448  -2.271  -0.666  1.00 19.71     0.087 A 
HETATM    5  C19   D T   1      11.300  -3.370  -0.682  1.00 20.34     0.051 A 
HETATM    6  C20   D T   1      12.218  -3.523   0.359  1.00 23.00     0.164 A 
HETATM    7  F21   D T   1      13.116  -4.518   0.438  1.00 24.23    -0.202 F 
ENDROOT
BRANCH   1   8
HETATM    8  O14   D T   1      13.168  -2.771   2.439  1.00 19.07    -0.305 OA
BRANCH   8   9
HETATM    9  C10   D T   1      12.725  -2.855   3.746  1.00 16.92     0.103 A 
HETATM   10  C5    D T   1      12.335  -4.172   4.210  1.00 16.19     0.043 A 
HETATM   11  C4    D T   1      11.817  -4.266   5.602  1.00 14.79     0.085 A 
HETATM   12  C6    D T   1      12.454  -5.268   3.377  1.00 16.37     0.030 A 
HETATM   13  C3    D T   1      11.452  -5.516   6.090  1.00 15.80     0.045 A 
HETATM   14  N7    D T   1      11.724  -3.156   6.360  1.00 17.15    -0.244 NA
HETATM   15  C2    D T   1      11.557  -6.630   5.247  1.00 18.47     0.118 A 
HETATM   16  C1    D T   1      12.064  -6.522   3.868  1.00 19.14     0.116 A 
HETATM   17  C8    D T   1      12.048  -1.921   5.920  1.00 16.83     0.101 A 
HETATM   18  C9    D T   1      12.596  -1.757   4.621  1.00 17.41     0.045 A 
BRANCH  15  19
HETATM   19  O13   D T   1      11.220  -7.896   5.598  1.00 18.42    -0.329 OA
BRANCH  19  20
HETATM   20  C23   D T   1      10.370  -8.220   6.705  1.00 21.03     0.151 C 
BRANCH  20  21
HETATM   21  C24   D T   1       9.178  -8.978   6.117  1.00 22.44     0.056 C 
BRANCH  21  22
HETATM   22  C25   D T   1       9.705  -9.612   4.851  1.00 28.63     0.100 C 
BRANCH  22  23
HETATM   23  N26   D T   1       8.745  -9.656   3.767  1.00 33.59    -0.364 N 
HETATM   24  C27   D T   1       7.460 -10.268   4.128  1.00 36.37     0.130 C 
HETATM   25  C28   D T   1       6.811 -10.831   2.861  1.00 38.52     0.166 C 
HETATM   26  O29   D T   1       6.806  -9.763   1.927  1.00 39.12    -0.350 OA
HETATM   27  C30   D T   1       8.166  -9.532   1.529  1.00 39.82     0.166 C 
HETATM   28  C31   D T   1       8.812  -8.710   2.656  1.00 38.13     0.130 C 
ENDBRANCH  22  23
ENDBRANCH  21  22
ENDBRANCH  20  21
ENDBRANCH  19  20
ENDBRANCH  15  19
BRANCH  16  29
HETATM   29  O11   D T   1      12.093  -7.708   3.144  1.00 20.67    -0.326 OA
HETATM   30  C12   D T   1      13.094  -8.044   2.180  1.00 21.17     0.181 C 
ENDBRANCH  16  29
ENDBRANCH   8   9
ENDBRANCH   1   8
BRANCH   4  31
HETATM   31  N22   D T   1       9.550  -2.050  -1.652  1.00 20.22    -0.211 NA
HETATM   32  C32   D T   1       9.751  -1.612  -2.913  1.00 20.90     0.263 C 
HETATM   33  O36   D T   1      10.819  -1.256  -3.350  1.00 20.49    -0.270 OA
BRANCH  32  34
HETATM   34  C33   D T   1       8.566  -1.593  -3.861  1.00 20.84     0.146 A 
HETATM   35  C45   D T   1       7.383  -2.334  -3.207  1.00 21.22     0.019 A 
HETATM   36  C46   D T   1       8.080  -2.948  -4.419  1.00 20.56     0.019 A 
BRANCH  34  37
HETATM   37  C34   D T   1       8.280  -0.292  -4.647  1.00 20.23     0.263 C 
HETATM   38  N35   D T   1       8.794  -0.119  -5.879  1.00 17.24    -0.211 NA
HETATM   39  O37   D T   1       7.938   0.712  -4.012  1.00 19.27    -0.270 OA
BRANCH  38  40
HETATM   40  C38   D T   1       8.523   1.007  -6.616  1.00 18.52     0.085 A 
HETATM   41  C39   D T   1       9.386   2.120  -6.603  1.00 17.15     0.021 A 
HETATM   42  C40   D T   1       9.121   3.285  -7.335  1.00 19.70     0.031 A 
HETATM   43  C41   D T   1       7.954   3.285  -8.138  1.00 19.38     0.140 A 
HETATM   44  C42   D T   1       7.097   2.182  -8.165  1.00 18.79     0.031 A 
HETATM   45  F44   D T   1       7.645   4.362  -8.893  1.00 21.15    -0.204 F 
HETATM   46  C43   D T   1       7.373   1.018  -7.435  1.00 17.84     0.021 A 
ENDBRANCH  38  40
ENDBRANCH  34  37
ENDBRANCH  32  34
ENDBRANCH   4  31
TORSDOF 12
ENDMDL
MODEL 8
REMARK VINA RESULT:    -7.486      4.340      6.173
REMARK INTER + INTRA:         -14.315
REMARK INTER:                 -12.548
REMARK INTRA:                  -1.768
REMARK UNBOUND:                -1.578
REMARK  12 active torsions:
REMARK  status: ('A' for Active; 'I' for Inactive)
REMARK    1  A    between atoms: C1_1  and  O11_11 
REMARK    2  A    between atoms: C2_2  and  O13_13 
REMARK    3  A    between atoms: C10_10  and  O14_14 
REMARK    4  A    between atoms: O13_13  and  C23_23 
REMARK    5  A    between atoms: O14_14  and  C15_15 
REMARK    6  A    between atoms: C18_18  and  N22_22 
REMARK       I    between atoms: N22_22  and  C32_32 
REMARK    7  A    between atoms: C23_23  and  C24_24 
REMARK    8  A    between atoms: C24_24  and  C25_25 
REMARK    9  A    between atoms: C25_25  and  N26_26 
REMARK   10  A    between atoms: C32_32  and  C33_33 
REMARK   11  A    between atoms: C33_33  and  C34_34 
REMARK       I    between atoms: C34_34  and  N35_35 
REMARK   12  A    between atoms: N35_35  and  C38_38 
ROOT
HETATM    1  C15   D T   1      10.726  -3.030   1.507  1.00 20.42     0.127 A 
HETATM    2  C16   D T   1       9.972  -3.967   0.829  1.00 16.92     0.029 A 
HETATM    3  C17   D T   1       9.336  -3.601  -0.336  1.00 18.89     0.021 A 
HETATM    4  C18   D T   1       9.418  -2.297  -0.852  1.00 19.71     0.087 A 
HETATM    5  C19   D T   1      10.188  -1.332  -0.214  1.00 20.34     0.051 A 
HETATM    6  C20   D T   1      10.838  -1.669   0.975  1.00 23.00     0.164 A 
HETATM    7  F21   D T   1      11.579  -0.816   1.702  1.00 24.23    -0.202 F 
ENDROOT
BRANCH   1   8
HETATM    8  O14   D T   1      11.394  -3.282   2.672  1.00 19.07    -0.305 OA
BRANCH   8   9
HETATM    9  C10   D T   1      12.443  -4.182   2.642  1.00 16.92     0.103 A 
HETATM   10  C5    D T   1      13.777  -3.617   2.654  1.00 16.19     0.043 A 
HETATM   11  C4    D T   1      14.913  -4.576   2.580  1.00 14.79     0.085 A 
HETATM   12  C6    D T   1      13.953  -2.248   2.736  1.00 16.37     0.030 A 
HETATM   13  C3    D T   1      16.209  -4.072   2.610  1.00 15.80     0.045 A 
HETATM   14  N7    D T   1      14.671  -5.899   2.499  1.00 17.15    -0.244 NA
HETATM   15  C2    D T   1      16.395  -2.685   2.679  1.00 18.47     0.118 A 
HETATM   16  C1    D T   1      15.262  -1.746   2.744  1.00 19.14     0.116 A 
HETATM   17  C8    D T   1      13.430  -6.429   2.448  1.00 16.83     0.101 A 
HETATM   18  C9    D T   1      12.296  -5.583   2.563  1.00 17.41     0.045 A 
BRANCH  15  19
HETATM   19  O13   D T   1      17.604  -2.071   2.700  1.00 18.42    -0.329 OA
BRANCH  19  20
HETATM   20  C23   D T   1      18.584  -2.197   1.662  1.00 21.03     0.151 C 
BRANCH  20  21
HETATM   21  C24   D T   1      17.816  -2.127   0.342  1.00 22.44     0.056 C 
BRANCH  21  22
HETATM   22  C25   D T   1      17.685  -0.652   0.043  1.00 28.63     0.100 C 
BRANCH  22  23
HETATM   23  N26   D T   1      16.407  -0.273  -0.522  1.00 33.59    -0.364 N 
HETATM   24  C27   D T   1      16.363   1.101  -1.038  1.00 36.37     0.130 C 
HETATM   25  C28   D T   1      14.914   1.593  -1.006  1.00 38.52     0.166 C 
HETATM   26  O29   D T   1      14.158   0.599  -1.680  1.00 39.12    -0.350 OA
HETATM   27  C30   D T   1      14.132  -0.566  -0.842  1.00 39.82     0.166 C 
HETATM   28  C31   D T   1      15.482  -1.275  -1.047  1.00 38.13     0.130 C 
ENDBRANCH  22  23
ENDBRANCH  21  22
ENDBRANCH  20  21
ENDBRANCH  19  20
ENDBRANCH  15  19
BRANCH  16  29
HETATM   29  O11   D T   1      15.600  -0.398   2.788  1.00 20.67    -0.326 OA
HETATM   30  C12   D T   1      15.113   0.527   3.763  1.00 21.17     0.181 C 
ENDBRANCH  16  29
ENDBRANCH   8   9
ENDBRANCH   1   8
BRANCH   4  31
HETATM   31  N22   D T   1       8.745  -2.034  -1.994  1.00 20.22    -0.211 NA
HETATM   32  C32   D T   1       9.211  -1.600  -3.184  1.00 20.90     0.263 C 
HETATM   33  O36   D T   1      10.358  -1.287  -3.395  1.00 20.49    -0.270 OA
BRANCH  32  34
HETATM   34  C33   D T   1       8.241  -1.528  -4.349  1.00 20.84     0.146 A 
HETATM   35  C45   D T   1       6.997  -2.381  -4.026  1.00 21.22     0.019 A 
HETATM   36  C46   D T   1       7.959  -2.836  -5.122  1.00 20.56     0.019 A 
BRANCH  34  37
HETATM   37  C34   D T   1       8.039  -0.164  -5.049  1.00 20.23     0.263 C 
HETATM   38  N35   D T   1       8.488   0.026  -6.304  1.00 17.24    -0.211 NA
HETATM   39  O37   D T   1       7.844   0.832  -4.344  1.00 19.27    -0.270 OA
BRANCH  38  40
HETATM   40  C38   D T   1       8.287   1.212  -6.965  1.00 18.52     0.085 A 
HETATM   41  C39   D T   1       9.199   2.279  -6.854  1.00 17.15     0.021 A 
HETATM   42  C40   D T   1       9.006   3.504  -7.507  1.00 19.70     0.031 A 
HETATM   43  C41   D T   1       7.860   3.615  -8.333  1.00 19.38     0.140 A 
HETATM   44  C42   D T   1       6.955   2.558  -8.457  1.00 18.79     0.031 A 
HETATM   45  F44   D T   1       7.620   4.756  -9.016  1.00 21.15    -0.204 F 
HETATM   46  C43   D T   1       7.159   1.335  -7.805  1.00 17.84     0.021 A 
ENDBRANCH  38  40
ENDBRANCH  34  37
ENDBRANCH  32  34
ENDBRANCH   4  31
TORSDOF 12
ENDMDL
MODEL 9
REMARK VINA RESULT:    -7.485      5.995      7.743
REMARK INTER + INTRA:         -14.314
REMARK INTER:                 -11.772
REMARK INTRA:                  -2.542
REMARK UNBOUND:                -1.578
REMARK  12 active torsions:
REMARK  status: ('A' for Active; 'I' for Inactive)
REMARK    1  A    between atoms: C1_1  and  O11_11 
REMARK    2  A    between atoms: C2_2  and  O13_13 
REMARK    3  A    between atoms: C10_10  and  O14_14 
REMARK    4  A    between atoms: O13_13  and  C23_23 
REMARK    5  A    between atoms: O14_14  and  C15_15 
REMARK    6  A    between atoms: C18_18  and  N22_22 
REMARK       I    between atoms: N22_22  and  C32_32 
REMARK    7  A    between atoms: C23_23  and  C24_24 
REMARK    8  A    between atoms: C24_24  and  C25_25 
REMARK    9  A    between atoms: C25_25  and  N26_26 
REMARK   10  A    between atoms: C32_32  and  C33_33 
REMARK   11  A    between atoms: C33_33  and  C34_34 
REMARK       I    between atoms: C34_34  and  N35_35 
REMARK   12  A    between atoms: N35_35  and  C38_38 
ROOT
HETATM    1  C15   D T   1      11.905  -2.970   1.382  1.00 20.42     0.127 A 
HETATM    2  C16   D T   1      11.590  -3.902   0.413  1.00 16.92     0.029 A 
HETATM    3  C17   D T   1      10.727  -3.550  -0.600  1.00 18.89     0.021 A 
HETATM    4  C18   D T   1      10.144  -2.274  -0.674  1.00 19.71     0.087 A 
HETATM    5  C19   D T   1      10.455  -1.299   0.266  1.00 20.34     0.051 A 
HETATM    6  C20   D T   1      11.321  -1.627   1.312  1.00 23.00     0.164 A 
HETATM    7  F21   D T   1      11.669  -0.786   2.301  1.00 24.23    -0.202 F 
ENDROOT
BRANCH   1   8
HETATM    8  O14   D T   1      12.744  -3.212   2.432  1.00 19.07    -0.305 OA
BRANCH   8   9
HETATM    9  C10   D T   1      12.268  -3.964   3.490  1.00 16.92     0.103 A 
HETATM   10  C5    D T   1      12.706  -5.344   3.548  1.00 16.19     0.043 A 
HETATM   11  C4    D T   1      12.165  -6.173   4.659  1.00 14.79     0.085 A 
HETATM   12  C6    D T   1      13.587  -5.836   2.603  1.00 16.37     0.030 A 
HETATM   13  C3    D T   1      12.578  -7.497   4.760  1.00 15.80     0.045 A 
HETATM   14  N7    D T   1      11.306  -5.632   5.545  1.00 17.15    -0.244 NA
HETATM   15  C2    D T   1      13.461  -8.007   3.798  1.00 18.47     0.118 A 
HETATM   16  C1    D T   1      13.983  -7.177   2.698  1.00 19.14     0.116 A 
HETATM   17  C8    D T   1      10.864  -4.358   5.473  1.00 16.83     0.101 A 
HETATM   18  C9    D T   1      11.372  -3.490   4.471  1.00 17.41     0.045 A 
BRANCH  15  19
HETATM   19  O13   D T   1      13.925  -9.281   3.777  1.00 18.42    -0.329 OA
BRANCH  19  20
HETATM   20  C23   D T   1      13.132 -10.428   4.107  1.00 21.03     0.151 C 
BRANCH  20  21
HETATM   21  C24   D T   1      12.336 -10.770   2.846  1.00 22.44     0.056 C 
BRANCH  21  22
HETATM   22  C25   D T   1      10.888 -10.610   3.243  1.00 28.63     0.100 C 
BRANCH  22  23
HETATM   23  N26   D T   1      10.283  -9.372   2.797  1.00 33.59    -0.364 N 
HETATM   24  C27   D T   1      10.696  -8.954   1.451  1.00 36.37     0.130 C 
HETATM   25  C28   D T   1      10.547  -7.434   1.341  1.00 38.52     0.166 C 
HETATM   26  O29   D T   1       9.220  -7.149   1.754  1.00 39.12    -0.350 OA
HETATM   27  C30   D T   1       9.147  -7.389   3.168  1.00 39.82     0.166 C 
HETATM   28  C31   D T   1       9.009  -8.911   3.341  1.00 38.13     0.130 C 
ENDBRANCH  22  23
ENDBRANCH  21  22
ENDBRANCH  20  21
ENDBRANCH  19  20
ENDBRANCH  15  19
BRANCH  16  29
HETATM   29  O11   D T   1      14.834  -7.824   1.809  1.00 20.67    -0.326 OA
HETATM   30  C12   D T   1      14.431  -8.358   0.546  1.00 21.17     0.181 C 
ENDBRANCH  16  29
ENDBRANCH   8   9
ENDBRANCH   1   8
BRANCH   4  31
HETATM   31  N22   D T   1       9.297  -2.033  -1.699  1.00 20.22    -0.211 NA
HETATM   32  C32   D T   1       9.568  -1.627  -2.958  1.00 20.90     0.263 C 
HETATM   33  O36   D T   1      10.668  -1.325  -3.356  1.00 20.49    -0.270 OA
BRANCH  32  34
HETATM   34  C33   D T   1       8.425  -1.576  -3.955  1.00 20.84     0.146 A 
HETATM   35  C45   D T   1       7.203  -2.305  -3.362  1.00 21.22     0.019 A 
HETATM   36  C46   D T   1       7.941  -2.916  -4.552  1.00 20.56     0.019 A 
BRANCH  34  37
HETATM   37  C34   D T   1       8.194  -0.261  -4.734  1.00 20.23     0.263 C 
HETATM   38  N35   D T   1       8.672  -0.121  -5.985  1.00 17.24    -0.211 NA
HETATM   39  O37   D T   1       7.941   0.765  -4.090  1.00 19.27    -0.270 OA
BRANCH  38  40
HETATM   40  C38   D T   1       8.446   1.019  -6.715  1.00 18.52     0.085 A 
HETATM   41  C39   D T   1       7.305   1.156  -7.530  1.00 17.15     0.021 A 
HETATM   42  C40   D T   1       7.062   2.304  -8.296  1.00 19.70     0.031 A 
HETATM   43  C41   D T   1       8.001   3.359  -8.184  1.00 19.38     0.140 A 
HETATM   44  C42   D T   1       9.130   3.236  -7.369  1.00 18.79     0.031 A 
HETATM   45  F44   D T   1       7.821   4.508  -8.870  1.00 21.15    -0.204 F 
HETATM   46  C43   D T   1       9.362   2.087  -6.603  1.00 17.84     0.021 A 
ENDBRANCH  38  40
ENDBRANCH  34  37
ENDBRANCH  32  34
ENDBRANCH   4  31
TORSDOF 12
ENDMDL
