MODEL 1
REMARK VINA RESULT:    -8.114      0.000      0.000
REMARK INTER + INTRA:         -15.774
REMARK INTER:                 -13.805
REMARK INTRA:                  -1.969
REMARK UNBOUND:                -1.969
REMARK  12 active torsions:
REMARK  status: ('A' for Active; 'I' for Inactive)
REMARK    1  A    between atoms: C1_1  and  O11_11 
REMARK    2  A    between atoms: C2_2  and  O13_13 
REMARK    3  A    between atoms: C10_10  and  O14_14 
REMARK    4  A    between atoms: O13_13  and  C23_23 
REMARK    5  A    between atoms: O14_14  and  C15_15 
REMARK    6  A    between atoms: C18_18  and  N22_22 
REMARK       I    between atoms: N22_22  and  C32_32 
REMARK    7  A    between atoms: C23_23  and  C24_24 
REMARK    8  A    between atoms: C24_24  and  C25_25 
REMARK    9  A    between atoms: C25_25  and  N26_26 
REMARK   10  A    between atoms: C32_32  and  C33_33 
REMARK   11  A    between atoms: C33_33  and  C34_34 
REMARK       I    between atoms: C34_34  and  N35_35 
REMARK   12  A    between atoms: N35_35  and  C38_38 
ROOT
HETATM    1  C15   D T   1       4.487   4.310  10.950  1.00 20.42     0.127 A 
HETATM    2  C16   D T   1       3.564   5.154  10.366  1.00 16.92     0.029 A 
HETATM    3  C17   D T   1       2.224   4.957  10.613  1.00 18.89     0.021 A 
HETATM    4  C18   D T   1       1.762   3.913  11.429  1.00 19.71     0.087 A 
HETATM    5  C19   D T   1       2.660   3.057  12.058  1.00 20.34     0.051 A 
HETATM    6  C20   D T   1       4.025   3.224  11.821  1.00 23.00     0.164 A 
HETATM    7  F21   D T   1       4.987   2.441  12.338  1.00 24.23    -0.202 F 
ENDROOT
BRANCH   1   8
HETATM    8  O14   D T   1       5.838   4.410  10.771  1.00 19.07    -0.305 OA
BRANCH   8   9
HETATM    9  C10   D T   1       6.376   3.946   9.586  1.00 16.92     0.103 A 
HETATM   10  C5    D T   1       7.491   3.025   9.701  1.00 16.19     0.043 A 
HETATM   11  C4    D T   1       8.103   2.551   8.431  1.00 14.79     0.085 A 
HETATM   12  C6    D T   1       7.935   2.623  10.946  1.00 16.37     0.030 A 
HETATM   13  C3    D T   1       9.161   1.652   8.501  1.00 15.80     0.045 A 
HETATM   14  N7    D T   1       7.623   2.987   7.250  1.00 17.15    -0.244 NA
HETATM   15  C2    D T   1       9.627   1.250   9.760  1.00 18.47     0.118 A 
HETATM   16  C1    D T   1       9.016   1.732  11.010  1.00 19.14     0.116 A 
HETATM   17  C8    D T   1       6.611   3.874   7.136  1.00 16.83     0.101 A 
HETATM   18  C9    D T   1       5.942   4.333   8.301  1.00 17.41     0.045 A 
BRANCH  15  19
HETATM   19  O13   D T   1      10.658   0.392   9.962  1.00 18.42    -0.329 OA
BRANCH  19  20
HETATM   20  C23   D T   1      10.691  -0.951   9.464  1.00 21.03     0.151 C 
BRANCH  20  21
HETATM   21  C24   D T   1       9.885  -1.789  10.456  1.00 22.44     0.056 C 
BRANCH  21  22
HETATM   22  C25   D T   1       8.801  -2.438   9.628  1.00 28.63     0.100 C 
BRANCH  22  23
HETATM   23  N26   D T   1       7.460  -2.223  10.133  1.00 33.59    -0.364 N 
HETATM   24  C27   D T   1       6.820  -0.998   9.635  1.00 36.37     0.130 C 
HETATM   25  C28   D T   1       5.767  -0.546  10.649  1.00 38.52     0.166 C 
HETATM   26  O29   D T   1       4.949  -1.683  10.883  1.00 39.12    -0.350 OA
HETATM   27  C30   D T   1       5.733  -2.635  11.619  1.00 39.82     0.166 C 
HETATM   28  C31   D T   1       6.636  -3.337  10.591  1.00 38.13     0.130 C 
ENDBRANCH  22  23
ENDBRANCH  21  22
ENDBRANCH  20  21
ENDBRANCH  19  20
ENDBRANCH  15  19
BRANCH  16  29
HETATM   29  O11   D T   1       9.596   1.264  12.183  1.00 20.67    -0.326 OA
HETATM   30  C12   D T   1       8.946   1.240  13.456  1.00 21.17     0.181 C 
ENDBRANCH  16  29
ENDBRANCH   8   9
ENDBRANCH   1   8
BRANCH   4  31
HETATM   31  N22   D T   1       0.426   3.794  11.598  1.00 20.22    -0.211 NA
HETATM   32  C32   D T   1      -0.426   4.579  12.289  1.00 20.90     0.263 C 
HETATM   33  O36   D T   1      -0.088   5.518  12.969  1.00 20.49    -0.270 OA
BRANCH  32  34
HETATM   34  C33   D T   1      -1.912   4.288  12.186  1.00 20.84     0.146 A 
HETATM   35  C45   D T   1      -2.311   4.209  10.699  1.00 21.22     0.019 A 
HETATM   36  C46   D T   1      -2.807   5.374  11.551  1.00 20.56     0.019 A 
BRANCH  34  37
HETATM   37  C34   D T   1      -2.526   3.267  13.171  1.00 20.23     0.263 C 
HETATM   38  N35   D T   1      -2.946   2.067  12.726  1.00 17.24    -0.211 NA
HETATM   39  O37   D T   1      -2.990   3.686  14.237  1.00 19.27    -0.270 OA
BRANCH  38  40
HETATM   40  C38   D T   1      -3.457   1.124  13.584  1.00 18.52     0.085 A 
HETATM   41  C39   D T   1      -4.771   0.638  13.444  1.00 17.15     0.021 A 
HETATM   42  C40   D T   1      -5.319  -0.312  14.318  1.00 19.70     0.031 A 
HETATM   43  C41   D T   1      -4.469  -0.807  15.336  1.00 19.38     0.140 A 
HETATM   44  C42   D T   1      -3.159  -0.340  15.476  1.00 18.79     0.031 A 
HETATM   45  F44   D T   1      -4.916  -1.744  16.200  1.00 21.15    -0.204 F 
HETATM   46  C43   D T   1      -2.620   0.606  14.595  1.00 17.84     0.021 A 
ENDBRANCH  38  40
ENDBRANCH  34  37
ENDBRANCH  32  34
ENDBRANCH   4  31
TORSDOF 12
ENDMDL
MODEL 2
REMARK VINA RESULT:    -7.864      2.759      3.568
REMARK INTER + INTRA:         -15.349
REMARK INTER:                 -14.943
REMARK INTRA:                  -0.406
REMARK UNBOUND:                -1.969
REMARK  12 active torsions:
REMARK  status: ('A' for Active; 'I' for Inactive)
REMARK    1  A    between atoms: C1_1  and  O11_11 
REMARK    2  A    between atoms: C2_2  and  O13_13 
REMARK    3  A    between atoms: C10_10  and  O14_14 
REMARK    4  A    between atoms: O13_13  and  C23_23 
REMARK    5  A    between atoms: O14_14  and  C15_15 
REMARK    6  A    between atoms: C18_18  and  N22_22 
REMARK       I    between atoms: N22_22  and  C32_32 
REMARK    7  A    between atoms: C23_23  and  C24_24 
REMARK    8  A    between atoms: C24_24  and  C25_25 
REMARK    9  A    between atoms: C25_25  and  N26_26 
REMARK   10  A    between atoms: C32_32  and  C33_33 
REMARK   11  A    between atoms: C33_33  and  C34_34 
REMARK       I    between atoms: C34_34  and  N35_35 
REMARK   12  A    between atoms: N35_35  and  C38_38 
ROOT
HETATM    1  C15   D T   1       4.178   3.426  10.858  1.00 20.42     0.127 A 
HETATM    2  C16   D T   1       3.449   2.263  11.000  1.00 16.92     0.029 A 
HETATM    3  C17   D T   1       2.075   2.335  11.065  1.00 18.89     0.021 A 
HETATM    4  C18   D T   1       1.390   3.559  11.008  1.00 19.71     0.087 A 
HETATM    5  C19   D T   1       2.085   4.750  10.838  1.00 20.34     0.051 A 
HETATM    6  C20   D T   1       3.479   4.713  10.778  1.00 23.00     0.164 A 
HETATM    7  F21   D T   1       4.264   5.797  10.655  1.00 24.23    -0.202 F 
ENDROOT
BRANCH   1   8
HETATM    8  O14   D T   1       5.542   3.472  10.788  1.00 19.07    -0.305 OA
BRANCH   8   9
HETATM    9  C10   D T   1       6.144   3.184   9.577  1.00 16.92     0.103 A 
HETATM   10  C5    D T   1       6.925   1.964   9.521  1.00 16.19     0.043 A 
HETATM   11  C4    D T   1       7.610   1.665   8.234  1.00 14.79     0.085 A 
HETATM   12  C6    D T   1       7.006   1.137  10.624  1.00 16.37     0.030 A 
HETATM   13  C3    D T   1       8.353   0.495   8.135  1.00 15.80     0.045 A 
HETATM   14  N7    D T   1       7.493   2.518   7.197  1.00 17.15    -0.244 NA
HETATM   15  C2    D T   1       8.451  -0.343   9.254  1.00 18.47     0.118 A 
HETATM   16  C1    D T   1       7.774  -0.032  10.525  1.00 19.14     0.116 A 
HETATM   17  C8    D T   1       6.799   3.675   7.255  1.00 16.83     0.101 A 
HETATM   18  C9    D T   1       6.076   4.005   8.431  1.00 17.41     0.045 A 
BRANCH  15  19
HETATM   19  O13   D T   1       9.156  -1.502   9.290  1.00 18.42    -0.329 OA
BRANCH  19  20
HETATM   20  C23   D T   1      10.346  -1.739   8.530  1.00 21.03     0.151 C 
BRANCH  20  21
HETATM   21  C24   D T   1       9.976  -2.784   7.478  1.00 22.44     0.056 C 
BRANCH  21  22
HETATM   22  C25   D T   1      11.295  -3.351   7.010  1.00 28.63     0.100 C 
BRANCH  22  23
HETATM   23  N26   D T   1      11.173  -4.399   6.017  1.00 33.59    -0.364 N 
HETATM   24  C27   D T   1      12.246  -5.399   6.064  1.00 36.37     0.130 C 
HETATM   25  C28   D T   1      12.392  -6.031   4.678  1.00 38.52     0.166 C 
HETATM   26  O29   D T   1      11.089  -6.462   4.316  1.00 39.12    -0.350 OA
HETATM   27  C30   D T   1      10.300  -5.289   4.066  1.00 39.82     0.166 C 
HETATM   28  C31   D T   1       9.877  -4.751   5.443  1.00 38.13     0.130 C 
ENDBRANCH  22  23
ENDBRANCH  21  22
ENDBRANCH  20  21
ENDBRANCH  19  20
ENDBRANCH  15  19
BRANCH  16  29
HETATM   29  O11   D T   1       7.978  -0.943  11.554  1.00 20.67    -0.326 OA
HETATM   30  C12   D T   1       6.996  -1.869  12.024  1.00 21.17     0.181 C 
ENDBRANCH  16  29
ENDBRANCH   8   9
ENDBRANCH   1   8
BRANCH   4  31
HETATM   31  N22   D T   1       0.041   3.525  11.096  1.00 20.22    -0.211 NA
HETATM   32  C32   D T   1      -0.783   4.201  11.923  1.00 20.90     0.263 C 
HETATM   33  O36   D T   1      -0.409   4.922  12.818  1.00 20.49    -0.270 OA
BRANCH  32  34
HETATM   34  C33   D T   1      -2.279   4.078  11.702  1.00 20.84     0.146 A 
HETATM   35  C45   D T   1      -2.601   4.400  10.229  1.00 21.22     0.019 A 
HETATM   36  C46   D T   1      -3.050   5.362  11.326  1.00 20.56     0.019 A 
BRANCH  34  37
HETATM   37  C34   D T   1      -3.024   2.907  12.381  1.00 20.23     0.263 C 
HETATM   38  N35   D T   1      -2.448   2.238  13.399  1.00 17.24    -0.211 NA
HETATM   39  O37   D T   1      -3.927   2.343  11.752  1.00 19.27    -0.270 OA
BRANCH  38  40
HETATM   40  C38   D T   1      -3.103   1.221  14.048  1.00 18.52     0.085 A 
HETATM   41  C39   D T   1      -2.438   0.388  14.968  1.00 17.15     0.021 A 
HETATM   42  C40   D T   1      -3.083  -0.666  15.631  1.00 19.70     0.031 A 
HETATM   43  C41   D T   1      -4.463  -0.836  15.369  1.00 19.38     0.140 A 
HETATM   44  C42   D T   1      -5.135  -0.006  14.466  1.00 18.79     0.031 A 
HETATM   45  F44   D T   1      -5.160  -1.812  15.989  1.00 21.15    -0.204 F 
HETATM   46  C43   D T   1      -4.483   1.047  13.813  1.00 17.84     0.021 A 
ENDBRANCH  38  40
ENDBRANCH  34  37
ENDBRANCH  32  34
ENDBRANCH   4  31
TORSDOF 12
ENDMDL
MODEL 3
REMARK VINA RESULT:    -7.674      1.819      2.664
REMARK INTER + INTRA:         -15.025
REMARK INTER:                 -13.242
REMARK INTRA:                  -1.784
REMARK UNBOUND:                -1.969
REMARK  12 active torsions:
REMARK  status: ('A' for Active; 'I' for Inactive)
REMARK    1  A    between atoms: C1_1  and  O11_11 
REMARK    2  A    between atoms: C2_2  and  O13_13 
REMARK    3  A    between atoms: C10_10  and  O14_14 
REMARK    4  A    between atoms: O13_13  and  C23_23 
REMARK    5  A    between atoms: O14_14  and  C15_15 
REMARK    6  A    between atoms: C18_18  and  N22_22 
REMARK       I    between atoms: N22_22  and  C32_32 
REMARK    7  A    between atoms: C23_23  and  C24_24 
REMARK    8  A    between atoms: C24_24  and  C25_25 
REMARK    9  A    between atoms: C25_25  and  N26_26 
REMARK   10  A    between atoms: C32_32  and  C33_33 
REMARK   11  A    between atoms: C33_33  and  C34_34 
REMARK       I    between atoms: C34_34  and  N35_35 
REMARK   12  A    between atoms: N35_35  and  C38_38 
ROOT
HETATM    1  C15   D T   1       4.223   3.276   9.944  1.00 20.42     0.127 A 
HETATM    2  C16   D T   1       3.718   2.110  10.485  1.00 16.92     0.029 A 
HETATM    3  C17   D T   1       2.427   2.095  10.963  1.00 18.89     0.021 A 
HETATM    4  C18   D T   1       1.609   3.235  10.933  1.00 19.71     0.087 A 
HETATM    5  C19   D T   1       2.068   4.421  10.373  1.00 20.34     0.051 A 
HETATM    6  C20   D T   1       3.377   4.472   9.888  1.00 23.00     0.164 A 
HETATM    7  F21   D T   1       3.948   5.568   9.360  1.00 24.23    -0.202 F 
ENDROOT
BRANCH   1   8
HETATM    8  O14   D T   1       5.488   3.405   9.446  1.00 19.07    -0.305 OA
BRANCH   8   9
HETATM    9  C10   D T   1       6.536   3.502  10.342  1.00 16.92     0.103 A 
HETATM   10  C5    D T   1       7.625   2.561  10.165  1.00 16.19     0.043 A 
HETATM   11  C4    D T   1       8.739   2.630  11.149  1.00 14.79     0.085 A 
HETATM   12  C6    D T   1       7.602   1.659   9.119  1.00 16.37     0.030 A 
HETATM   13  C3    D T   1       9.810   1.758  10.999  1.00 15.80     0.045 A 
HETATM   14  N7    D T   1       8.696   3.532  12.149  1.00 17.15    -0.244 NA
HETATM   15  C2    D T   1       9.788   0.830   9.949  1.00 18.47     0.118 A 
HETATM   16  C1    D T   1       8.675   0.767   8.986  1.00 19.14     0.116 A 
HETATM   17  C8    D T   1       7.667   4.385  12.343  1.00 16.83     0.101 A 
HETATM   18  C9    D T   1       6.592   4.415  11.417  1.00 17.41     0.045 A 
BRANCH  15  19
HETATM   19  O13   D T   1      10.762  -0.082   9.706  1.00 18.42    -0.329 OA
BRANCH  19  20
HETATM   20  C23   D T   1      11.211  -1.049  10.663  1.00 21.03     0.151 C 
BRANCH  20  21
HETATM   21  C24   D T   1      10.303  -2.267  10.492  1.00 22.44     0.056 C 
BRANCH  21  22
HETATM   22  C25   D T   1       9.549  -2.377  11.796  1.00 28.63     0.100 C 
BRANCH  22  23
HETATM   23  N26   D T   1       8.115  -2.216  11.668  1.00 33.59    -0.364 N 
HETATM   24  C27   D T   1       7.376  -3.481  11.553  1.00 36.37     0.130 C 
HETATM   25  C28   D T   1       6.063  -3.219  10.813  1.00 38.52     0.166 C 
HETATM   26  O29   D T   1       5.445  -2.141  11.501  1.00 39.12    -0.350 OA
HETATM   27  C30   D T   1       6.218  -0.961  11.236  1.00 39.82     0.166 C 
HETATM   28  C31   D T   1       7.438  -1.024  12.170  1.00 38.13     0.130 C 
ENDBRANCH  22  23
ENDBRANCH  21  22
ENDBRANCH  20  21
ENDBRANCH  19  20
ENDBRANCH  15  19
BRANCH  16  29
HETATM   29  O11   D T   1       8.780  -0.217   8.010  1.00 20.67    -0.326 OA
HETATM   30  C12   D T   1       7.924  -1.358   7.914  1.00 21.17     0.181 C 
ENDBRANCH  16  29
ENDBRANCH   8   9
ENDBRANCH   1   8
BRANCH   4  31
HETATM   31  N22   D T   1       0.360   3.122  11.440  1.00 20.22    -0.211 NA
HETATM   32  C32   D T   1      -0.112   3.493  12.649  1.00 20.90     0.263 C 
HETATM   33  O36   D T   1       0.571   3.935  13.541  1.00 20.49    -0.270 OA
BRANCH  32  34
HETATM   34  C33   D T   1      -1.605   3.379  12.900  1.00 20.84     0.146 A 
HETATM   35  C45   D T   1      -2.367   3.944  11.685  1.00 21.22     0.019 A 
HETATM   36  C46   D T   1      -2.409   4.692  13.014  1.00 20.56     0.019 A 
BRANCH  34  37
HETATM   37  C34   D T   1      -2.136   2.093  13.572  1.00 20.23     0.263 C 
HETATM   38  N35   D T   1      -1.288   1.263  14.210  1.00 17.24    -0.211 NA
HETATM   39  O37   D T   1      -3.219   1.636  13.189  1.00 19.27    -0.270 OA
BRANCH  38  40
HETATM   40  C38   D T   1      -1.738   0.135  14.852  1.00 18.52     0.085 A 
HETATM   41  C39   D T   1      -0.865  -0.919  15.182  1.00 17.15     0.021 A 
HETATM   42  C40   D T   1      -1.305  -2.086  15.823  1.00 19.70     0.031 A 
HETATM   43  C41   D T   1      -2.676  -2.145  16.172  1.00 19.38     0.140 A 
HETATM   44  C42   D T   1      -3.547  -1.098  15.859  1.00 18.79     0.031 A 
HETATM   45  F44   D T   1      -3.170  -3.225  16.816  1.00 21.15    -0.204 F 
HETATM   46  C43   D T   1      -3.097   0.065  15.223  1.00 17.84     0.021 A 
ENDBRANCH  38  40
ENDBRANCH  34  37
ENDBRANCH  32  34
ENDBRANCH   4  31
TORSDOF 12
ENDMDL
MODEL 4
REMARK VINA RESULT:    -7.651      2.741      5.583
REMARK INTER + INTRA:         -14.987
REMARK INTER:                 -13.810
REMARK INTRA:                  -1.177
REMARK UNBOUND:                -1.969
REMARK  12 active torsions:
REMARK  status: ('A' for Active; 'I' for Inactive)
REMARK    1  A    between atoms: C1_1  and  O11_11 
REMARK    2  A    between atoms: C2_2  and  O13_13 
REMARK    3  A    between atoms: C10_10  and  O14_14 
REMARK    4  A    between atoms: O13_13  and  C23_23 
REMARK    5  A    between atoms: O14_14  and  C15_15 
REMARK    6  A    between atoms: C18_18  and  N22_22 
REMARK       I    between atoms: N22_22  and  C32_32 
REMARK    7  A    between atoms: C23_23  and  C24_24 
REMARK    8  A    between atoms: C24_24  and  C25_25 
REMARK    9  A    between atoms: C25_25  and  N26_26 
REMARK   10  A    between atoms: C32_32  and  C33_33 
REMARK   11  A    between atoms: C33_33  and  C34_34 
REMARK       I    between atoms: C34_34  and  N35_35 
REMARK   12  A    between atoms: N35_35  and  C38_38 
ROOT
HETATM    1  C15   D T   1       3.784   0.607  14.378  1.00 20.42     0.127 A 
HETATM    2  C16   D T   1       3.121  -0.410  15.035  1.00 16.92     0.029 A 
HETATM    3  C17   D T   1       1.756  -0.523  14.896  1.00 18.89     0.021 A 
HETATM    4  C18   D T   1       1.011   0.376  14.116  1.00 19.71     0.087 A 
HETATM    5  C19   D T   1       1.642   1.398  13.417  1.00 20.34     0.051 A 
HETATM    6  C20   D T   1       3.025   1.545  13.545  1.00 23.00     0.164 A 
HETATM    7  F21   D T   1       3.744   2.513  12.952  1.00 24.23    -0.202 F 
ENDROOT
BRANCH   1   8
HETATM    8  O14   D T   1       5.133   0.814  14.449  1.00 19.07    -0.305 OA
BRANCH   8   9
HETATM    9  C10   D T   1       5.960   0.001  13.697  1.00 16.92     0.103 A 
HETATM   10  C5    D T   1       6.691   0.644  12.622  1.00 16.19     0.043 A 
HETATM   11  C4    D T   1       7.553  -0.231  11.781  1.00 14.79     0.085 A 
HETATM   12  C6    D T   1       6.576   2.005  12.419  1.00 16.37     0.030 A 
HETATM   13  C3    D T   1       8.285   0.352  10.754  1.00 15.80     0.045 A 
HETATM   14  N7    D T   1       7.615  -1.553  12.032  1.00 17.15    -0.244 NA
HETATM   15  C2    D T   1       8.163   1.730  10.531  1.00 18.47     0.118 A 
HETATM   16  C1    D T   1       7.301   2.584  11.367  1.00 19.14     0.116 A 
HETATM   17  C8    D T   1       6.907  -2.164  13.006  1.00 16.83     0.101 A 
HETATM   18  C9    D T   1       6.102  -1.390  13.883  1.00 17.41     0.045 A 
BRANCH  15  19
HETATM   19  O13   D T   1       8.811   2.413   9.555  1.00 18.42    -0.329 OA
BRANCH  19  20
HETATM   20  C23   D T   1       9.068   1.889   8.247  1.00 21.03     0.151 C 
BRANCH  20  21
HETATM   21  C24   D T   1       7.753   2.008   7.477  1.00 22.44     0.056 C 
BRANCH  21  22
HETATM   22  C25   D T   1       7.732   3.425   6.956  1.00 28.63     0.100 C 
BRANCH  22  23
HETATM   23  N26   D T   1       6.501   4.139   7.227  1.00 33.59    -0.364 N 
HETATM   24  C27   D T   1       6.497   5.530   6.756  1.00 36.37     0.130 C 
HETATM   25  C28   D T   1       5.509   6.335   7.603  1.00 38.52     0.166 C 
HETATM   26  O29   D T   1       4.290   5.609   7.561  1.00 39.12    -0.350 OA
HETATM   27  C30   D T   1       4.477   4.406   8.321  1.00 39.82     0.166 C 
HETATM   28  C31   D T   1       5.237   3.431   7.406  1.00 38.13     0.130 C 
ENDBRANCH  22  23
ENDBRANCH  21  22
ENDBRANCH  20  21
ENDBRANCH  19  20
ENDBRANCH  15  19
BRANCH  16  29
HETATM   29  O11   D T   1       7.264   3.927  11.017  1.00 20.67    -0.326 OA
HETATM   30  C12   D T   1       6.351   4.883  11.562  1.00 21.17     0.181 C 
ENDBRANCH  16  29
ENDBRANCH   8   9
ENDBRANCH   1   8
BRANCH   4  31
HETATM   31  N22   D T   1      -0.327   0.190  14.055  1.00 20.22    -0.211 NA
HETATM   32  C32   D T   1      -1.258   0.318  15.024  1.00 20.90     0.263 C 
HETATM   33  O36   D T   1      -1.007   0.555  16.181  1.00 20.49    -0.270 OA
BRANCH  32  34
HETATM   34  C33   D T   1      -2.719   0.189  14.635  1.00 20.84     0.146 A 
HETATM   35  C45   D T   1      -3.519  -0.339  15.842  1.00 21.22     0.019 A 
HETATM   36  C46   D T   1      -3.327  -1.230  14.618  1.00 20.56     0.019 A 
BRANCH  34  37
HETATM   37  C34   D T   1      -3.344   1.302  13.765  1.00 20.23     0.263 C 
HETATM   38  N35   D T   1      -2.552   2.157  13.088  1.00 17.24    -0.211 NA
HETATM   39  O37   D T   1      -4.505   1.652  14.005  1.00 19.27    -0.270 OA
BRANCH  38  40
HETATM   40  C38   D T   1      -3.080   3.129  12.275  1.00 18.52     0.085 A 
HETATM   41  C39   D T   1      -2.614   4.458  12.320  1.00 17.15     0.021 A 
HETATM   42  C40   D T   1      -3.149   5.470  11.510  1.00 19.70     0.031 A 
HETATM   43  C41   D T   1      -4.161   5.089  10.596  1.00 19.38     0.140 A 
HETATM   44  C42   D T   1      -4.621   3.771  10.536  1.00 18.79     0.031 A 
HETATM   45  F44   D T   1      -4.706   6.002   9.764  1.00 21.15    -0.204 F 
HETATM   46  C43   D T   1      -4.078   2.766  11.346  1.00 17.84     0.021 A 
ENDBRANCH  38  40
ENDBRANCH  34  37
ENDBRANCH  32  34
ENDBRANCH   4  31
TORSDOF 12
ENDMDL
MODEL 5
REMARK VINA RESULT:    -7.579      1.535      2.626
REMARK INTER + INTRA:         -14.865
REMARK INTER:                 -13.999
REMARK INTRA:                  -0.866
REMARK UNBOUND:                -1.969
REMARK  12 active torsions:
REMARK  status: ('A' for Active; 'I' for Inactive)
REMARK    1  A    between atoms: C1_1  and  O11_11 
REMARK    2  A    between atoms: C2_2  and  O13_13 
REMARK    3  A    between atoms: C10_10  and  O14_14 
REMARK    4  A    between atoms: O13_13  and  C23_23 
REMARK    5  A    between atoms: O14_14  and  C15_15 
REMARK    6  A    between atoms: C18_18  and  N22_22 
REMARK       I    between atoms: N22_22  and  C32_32 
REMARK    7  A    between atoms: C23_23  and  C24_24 
REMARK    8  A    between atoms: C24_24  and  C25_25 
REMARK    9  A    between atoms: C25_25  and  N26_26 
REMARK   10  A    between atoms: C32_32  and  C33_33 
REMARK   11  A    between atoms: C33_33  and  C34_34 
REMARK       I    between atoms: C34_34  and  N35_35 
REMARK   12  A    between atoms: N35_35  and  C38_38 
ROOT
HETATM    1  C15   D T   1       4.246   3.331  10.936  1.00 20.42     0.127 A 
HETATM    2  C16   D T   1       3.482   2.183  10.987  1.00 16.92     0.029 A 
HETATM    3  C17   D T   1       2.110   2.291  11.036  1.00 18.89     0.021 A 
HETATM    4  C18   D T   1       1.461   3.536  11.052  1.00 19.71     0.087 A 
HETATM    5  C19   D T   1       2.192   4.715  10.975  1.00 20.34     0.051 A 
HETATM    6  C20   D T   1       3.586   4.640  10.933  1.00 23.00     0.164 A 
HETATM    7  F21   D T   1       4.403   5.707  10.896  1.00 24.23    -0.202 F 
ENDROOT
BRANCH   1   8
HETATM    8  O14   D T   1       5.612   3.342  10.889  1.00 19.07    -0.305 OA
BRANCH   8   9
HETATM    9  C10   D T   1       6.225   3.140   9.666  1.00 16.92     0.103 A 
HETATM   10  C5    D T   1       6.842   1.844   9.461  1.00 16.19     0.043 A 
HETATM   11  C4    D T   1       7.540   1.631   8.164  1.00 14.79     0.085 A 
HETATM   12  C6    D T   1       6.763   0.873  10.440  1.00 16.37     0.030 A 
HETATM   13  C3    D T   1       8.126   0.395   7.922  1.00 15.80     0.045 A 
HETATM   14  N7    D T   1       7.583   2.624   7.254  1.00 17.15    -0.244 NA
HETATM   15  C2    D T   1       8.063  -0.592   8.916  1.00 18.47     0.118 A 
HETATM   16  C1    D T   1       7.374  -0.366  10.199  1.00 19.14     0.116 A 
HETATM   17  C8    D T   1       7.044   3.846   7.455  1.00 16.83     0.101 A 
HETATM   18  C9    D T   1       6.318   4.109   8.645  1.00 17.41     0.045 A 
BRANCH  15  19
HETATM   19  O13   D T   1       8.607  -1.830   8.809  1.00 18.42    -0.329 OA
BRANCH  19  20
HETATM   20  C23   D T   1       9.803  -2.118   8.076  1.00 21.03     0.151 C 
BRANCH  20  21
HETATM   21  C24   D T   1      10.955  -1.554   8.907  1.00 22.44     0.056 C 
BRANCH  21  22
HETATM   22  C25   D T   1      10.805  -2.194  10.267  1.00 28.63     0.100 C 
BRANCH  22  23
HETATM   23  N26   D T   1      10.785  -1.252  11.368  1.00 33.59    -0.364 N 
HETATM   24  C27   D T   1      11.158  -1.835  12.663  1.00 36.37     0.130 C 
HETATM   25  C28   D T   1      10.518  -1.006  13.779  1.00 38.52     0.166 C 
HETATM   26  O29   D T   1      10.888   0.339  13.517  1.00 39.12    -0.350 OA
HETATM   27  C30   D T   1      10.180   0.760  12.341  1.00 39.82     0.166 C 
HETATM   28  C31   D T   1      10.951   0.181  11.142  1.00 38.13     0.130 C 
ENDBRANCH  22  23
ENDBRANCH  21  22
ENDBRANCH  20  21
ENDBRANCH  19  20
ENDBRANCH  15  19
BRANCH  16  29
HETATM   29  O11   D T   1       7.410  -1.426  11.095  1.00 20.67    -0.326 OA
HETATM   30  C12   D T   1       6.298  -1.864  11.879  1.00 21.17     0.181 C 
ENDBRANCH  16  29
ENDBRANCH   8   9
ENDBRANCH   1   8
BRANCH   4  31
HETATM   31  N22   D T   1       0.111   3.537  11.117  1.00 20.22    -0.211 NA
HETATM   32  C32   D T   1      -0.707   4.155  11.995  1.00 20.90     0.263 C 
HETATM   33  O36   D T   1      -0.327   4.773  12.961  1.00 20.49    -0.270 OA
BRANCH  32  34
HETATM   34  C33   D T   1      -2.202   4.101  11.742  1.00 20.84     0.146 A 
HETATM   35  C45   D T   1      -2.476   4.408  10.256  1.00 21.22     0.019 A 
HETATM   36  C46   D T   1      -2.900   5.413  11.323  1.00 20.56     0.019 A 
BRANCH  34  37
HETATM   37  C34   D T   1      -3.019   2.982  12.427  1.00 20.23     0.263 C 
HETATM   38  N35   D T   1      -2.425   2.154  13.307  1.00 17.24    -0.211 NA
HETATM   39  O37   D T   1      -4.063   2.603  11.884  1.00 19.27    -0.270 OA
BRANCH  38  40
HETATM   40  C38   D T   1      -3.135   1.177  13.962  1.00 18.52     0.085 A 
HETATM   41  C39   D T   1      -4.414   0.781  13.525  1.00 17.15     0.021 A 
HETATM   42  C40   D T   1      -5.163  -0.202  14.187  1.00 19.70     0.031 A 
HETATM   43  C41   D T   1      -4.555  -0.826  15.302  1.00 19.38     0.140 A 
HETATM   44  C42   D T   1      -3.281  -0.449  15.736  1.00 18.79     0.031 A 
HETATM   45  F44   D T   1      -5.202  -1.802  15.976  1.00 21.15    -0.204 F 
HETATM   46  C43   D T   1      -2.538   0.532  15.066  1.00 17.84     0.021 A 
ENDBRANCH  38  40
ENDBRANCH  34  37
ENDBRANCH  32  34
ENDBRANCH   4  31
TORSDOF 12
ENDMDL
MODEL 6
REMARK VINA RESULT:    -7.278      6.667     10.990
REMARK INTER + INTRA:         -14.352
REMARK INTER:                 -13.520
REMARK INTRA:                  -0.832
REMARK UNBOUND:                -1.969
REMARK  12 active torsions:
REMARK  status: ('A' for Active; 'I' for Inactive)
REMARK    1  A    between atoms: C1_1  and  O11_11 
REMARK    2  A    between atoms: C2_2  and  O13_13 
REMARK    3  A    between atoms: C10_10  and  O14_14 
REMARK    4  A    between atoms: O13_13  and  C23_23 
REMARK    5  A    between atoms: O14_14  and  C15_15 
REMARK    6  A    between atoms: C18_18  and  N22_22 
REMARK       I    between atoms: N22_22  and  C32_32 
REMARK    7  A    between atoms: C23_23  and  C24_24 
REMARK    8  A    between atoms: C24_24  and  C25_25 
REMARK    9  A    between atoms: C25_25  and  N26_26 
REMARK   10  A    between atoms: C32_32  and  C33_33 
REMARK   11  A    between atoms: C33_33  and  C34_34 
REMARK       I    between atoms: C34_34  and  N35_35 
REMARK   12  A    between atoms: N35_35  and  C38_38 
ROOT
HETATM    1  C15   D T   1       7.143   5.622  12.456  1.00 20.42     0.127 A 
HETATM    2  C16   D T   1       7.276   5.556  13.829  1.00 16.92     0.029 A 
HETATM    3  C17   D T   1       7.436   6.720  14.545  1.00 18.89     0.021 A 
HETATM    4  C18   D T   1       7.484   7.977  13.922  1.00 19.71     0.087 A 
HETATM    5  C19   D T   1       7.327   8.091  12.546  1.00 20.34     0.051 A 
HETATM    6  C20   D T   1       7.172   6.928  11.790  1.00 23.00     0.164 A 
HETATM    7  F21   D T   1       7.050   6.903  10.451  1.00 24.23    -0.202 F 
ENDROOT
BRANCH   1   8
HETATM    8  O14   D T   1       6.984   4.533  11.648  1.00 19.07    -0.305 OA
BRANCH   8   9
HETATM    9  C10   D T   1       6.873   3.289  12.241  1.00 16.92     0.103 A 
HETATM   10  C5    D T   1       5.531   2.756  12.375  1.00 16.19     0.043 A 
HETATM   11  C4    D T   1       5.398   1.436  13.049  1.00 14.79     0.085 A 
HETATM   12  C6    D T   1       4.450   3.462  11.884  1.00 16.37     0.030 A 
HETATM   13  C3    D T   1       4.129   0.884  13.178  1.00 15.80     0.045 A 
HETATM   14  N7    D T   1       6.495   0.803  13.508  1.00 17.15    -0.244 NA
HETATM   15  C2    D T   1       3.025   1.600  12.696  1.00 18.47     0.118 A 
HETATM   16  C1    D T   1       3.170   2.909  12.036  1.00 19.14     0.116 A 
HETATM   17  C8    D T   1       7.743   1.312  13.422  1.00 16.83     0.101 A 
HETATM   18  C9    D T   1       7.957   2.542  12.747  1.00 17.41     0.045 A 
BRANCH  15  19
HETATM   19  O13   D T   1       1.738   1.177  12.774  1.00 18.42    -0.329 OA
BRANCH  19  20
HETATM   20  C23   D T   1       1.349  -0.201  12.802  1.00 21.03     0.151 C 
BRANCH  20  21
HETATM   21  C24   D T   1       0.662  -0.419  14.150  1.00 22.44     0.056 C 
BRANCH  21  22
HETATM   22  C25   D T   1       0.049   0.916  14.497  1.00 28.63     0.100 C 
BRANCH  22  23
HETATM   23  N26   D T   1      -1.400   0.920  14.507  1.00 33.59    -0.364 N 
HETATM   24  C27   D T   1      -1.996   0.046  15.526  1.00 36.37     0.130 C 
HETATM   25  C28   D T   1      -3.394  -0.368  15.064  1.00 38.52     0.166 C 
HETATM   26  O29   D T   1      -4.064   0.842  14.744  1.00 39.12    -0.350 OA
HETATM   27  C30   D T   1      -3.461   1.367  13.551  1.00 39.82     0.166 C 
HETATM   28  C31   D T   1      -2.159   2.056  13.993  1.00 38.13     0.130 C 
ENDBRANCH  22  23
ENDBRANCH  21  22
ENDBRANCH  20  21
ENDBRANCH  19  20
ENDBRANCH  15  19
BRANCH  16  29
HETATM   29  O11   D T   1       1.987   3.511  11.628  1.00 20.67    -0.326 OA
HETATM   30  C12   D T   1       1.715   3.941  10.292  1.00 21.17     0.181 C 
ENDBRANCH  16  29
ENDBRANCH   8   9
ENDBRANCH   1   8
BRANCH   4  31
HETATM   31  N22   D T   1       7.660   9.061  14.712  1.00 20.22    -0.211 NA
HETATM   32  C32   D T   1       8.749   9.841  14.870  1.00 20.90     0.263 C 
HETATM   33  O36   D T   1       9.821   9.626  14.356  1.00 20.49    -0.270 OA
BRANCH  32  34
HETATM   34  C33   D T   1       8.618  11.090  15.722  1.00 20.84     0.146 A 
HETATM   35  C45   D T   1      10.012  11.720  15.915  1.00 21.22     0.019 A 
HETATM   36  C46   D T   1       9.302  11.082  17.106  1.00 20.56     0.019 A 
BRANCH  34  37
HETATM   37  C34   D T   1       7.415  12.025  15.466  1.00 20.23     0.263 C 
HETATM   38  N35   D T   1       7.613  13.264  14.975  1.00 17.24    -0.211 NA
HETATM   39  O37   D T   1       6.359  11.801  16.070  1.00 19.27    -0.270 OA
BRANCH  38  40
HETATM   40  C38   D T   1       6.560  14.101  14.699  1.00 18.52     0.085 A 
HETATM   41  C39   D T   1       5.699  14.558  15.715  1.00 17.15     0.021 A 
HETATM   42  C40   D T   1       4.609  15.401  15.454  1.00 19.70     0.031 A 
HETATM   43  C41   D T   1       4.431  15.819  14.114  1.00 19.38     0.140 A 
HETATM   44  C42   D T   1       5.288  15.380  13.100  1.00 18.79     0.031 A 
HETATM   45  F44   D T   1       3.420  16.652  13.787  1.00 21.15    -0.204 F 
HETATM   46  C43   D T   1       6.377  14.542  13.371  1.00 17.84     0.021 A 
ENDBRANCH  38  40
ENDBRANCH  34  37
ENDBRANCH  32  34
ENDBRANCH   4  31
TORSDOF 12
ENDMDL
MODEL 7
REMARK VINA RESULT:    -7.254      1.709      2.362
REMARK INTER + INTRA:         -14.311
REMARK INTER:                 -12.818
REMARK INTRA:                  -1.493
REMARK UNBOUND:                -1.969
REMARK  12 active torsions:
REMARK  status: ('A' for Active; 'I' for Inactive)
REMARK    1  A    between atoms: C1_1  and  O11_11 
REMARK    2  A    between atoms: C2_2  and  O13_13 
REMARK    3  A    between atoms: C10_10  and  O14_14 
REMARK    4  A    between atoms: O13_13  and  C23_23 
REMARK    5  A    between atoms: O14_14  and  C15_15 
REMARK    6  A    between atoms: C18_18  and  N22_22 
REMARK       I    between atoms: N22_22  and  C32_32 
REMARK    7  A    between atoms: C23_23  and  C24_24 
REMARK    8  A    between atoms: C24_24  and  C25_25 
REMARK    9  A    between atoms: C25_25  and  N26_26 
REMARK   10  A    between atoms: C32_32  and  C33_33 
REMARK   11  A    between atoms: C33_33  and  C34_34 
REMARK       I    between atoms: C34_34  and  N35_35 
REMARK   12  A    between atoms: N35_35  and  C38_38 
ROOT
HETATM    1  C15   D T   1       4.258   3.836  11.253  1.00 20.42     0.127 A 
HETATM    2  C16   D T   1       3.575   3.020  12.133  1.00 16.92     0.029 A 
HETATM    3  C17   D T   1       2.199   2.990  12.090  1.00 18.89     0.021 A 
HETATM    4  C18   D T   1       1.464   3.775  11.188  1.00 19.71     0.087 A 
HETATM    5  C19   D T   1       2.113   4.589  10.268  1.00 20.34     0.051 A 
HETATM    6  C20   D T   1       3.508   4.650  10.291  1.00 23.00     0.164 A 
HETATM    7  F21   D T   1       4.248   5.426   9.480  1.00 24.23    -0.202 F 
ENDROOT
BRANCH   1   8
HETATM    8  O14   D T   1       5.619   3.948  11.210  1.00 19.07    -0.305 OA
BRANCH   8   9
HETATM    9  C10   D T   1       6.340   2.928  10.617  1.00 16.92     0.103 A 
HETATM   10  C5    D T   1       7.189   2.145  11.493  1.00 16.19     0.043 A 
HETATM   11  C4    D T   1       8.000   1.071  10.858  1.00 14.79     0.085 A 
HETATM   12  C6    D T   1       7.215   2.404  12.850  1.00 16.37     0.030 A 
HETATM   13  C3    D T   1       8.810   0.286  11.668  1.00 15.80     0.045 A 
HETATM   14  N7    D T   1       7.929   0.875   9.526  1.00 17.15    -0.244 NA
HETATM   15  C2    D T   1       8.855   0.551  13.044  1.00 18.47     0.118 A 
HETATM   16  C1    D T   1       8.051   1.621  13.660  1.00 19.14     0.116 A 
HETATM   17  C8    D T   1       7.170   1.626   8.699  1.00 16.83     0.101 A 
HETATM   18  C9    D T   1       6.330   2.636   9.236  1.00 17.41     0.045 A 
BRANCH  15  19
HETATM   19  O13   D T   1       9.614  -0.132  13.936  1.00 18.42    -0.329 OA
BRANCH  19  20
HETATM   20  C23   D T   1       9.483  -1.535  14.191  1.00 21.03     0.151 C 
BRANCH  20  21
HETATM   21  C24   D T   1       8.076  -1.732  14.756  1.00 22.44     0.056 C 
BRANCH  21  22
HETATM   22  C25   D T   1       7.524  -2.929  14.019  1.00 28.63     0.100 C 
BRANCH  22  23
HETATM   23  N26   D T   1       6.786  -2.598  12.816  1.00 33.59    -0.364 N 
HETATM   24  C27   D T   1       5.891  -1.442  12.961  1.00 36.37     0.130 C 
HETATM   25  C28   D T   1       4.757  -1.567  11.942  1.00 38.52     0.166 C 
HETATM   26  O29   D T   1       5.390  -1.773  10.688  1.00 39.12    -0.350 OA
HETATM   27  C30   D T   1       5.968  -3.087  10.706  1.00 39.82     0.166 C 
HETATM   28  C31   D T   1       7.283  -2.970  11.495  1.00 38.13     0.130 C 
ENDBRANCH  22  23
ENDBRANCH  21  22
ENDBRANCH  20  21
ENDBRANCH  19  20
ENDBRANCH  15  19
BRANCH  16  29
HETATM   29  O11   D T   1       8.213   1.782  15.030  1.00 20.67    -0.326 OA
HETATM   30  C12   D T   1       8.921   2.863  15.642  1.00 21.17     0.181 C 
ENDBRANCH  16  29
ENDBRANCH   8   9
ENDBRANCH   1   8
BRANCH   4  31
HETATM   31  N22   D T   1       0.116   3.685  11.235  1.00 20.22    -0.211 NA
HETATM   32  C32   D T   1      -0.765   4.374  11.990  1.00 20.90     0.263 C 
HETATM   33  O36   D T   1      -0.454   5.167  12.847  1.00 20.49    -0.270 OA
BRANCH  32  34
HETATM   34  C33   D T   1      -2.246   4.169  11.730  1.00 20.84     0.146 A 
HETATM   35  C45   D T   1      -2.544   4.454  10.244  1.00 21.22     0.019 A 
HETATM   36  C46   D T   1      -3.073   5.404  11.314  1.00 20.56     0.019 A 
BRANCH  34  37
HETATM   37  C34   D T   1      -2.946   2.968  12.406  1.00 20.23     0.263 C 
HETATM   38  N35   D T   1      -2.351   2.327  13.430  1.00 17.24    -0.211 NA
HETATM   39  O37   D T   1      -3.820   2.366  11.771  1.00 19.27    -0.270 OA
BRANCH  38  40
HETATM   40  C38   D T   1      -2.968   1.284  14.076  1.00 18.52     0.085 A 
HETATM   41  C39   D T   1      -4.339   1.017  13.899  1.00 17.15     0.021 A 
HETATM   42  C40   D T   1      -4.993  -0.032  14.560  1.00 19.70     0.031 A 
HETATM   43  C41   D T   1      -4.198  -0.857  15.391  1.00 19.38     0.140 A 
HETATM   44  C42   D T   1      -2.833  -0.607  15.565  1.00 18.79     0.031 A 
HETATM   45  F44   D T   1      -4.749  -1.904  16.041  1.00 21.15    -0.204 F 
HETATM   46  C43   D T   1      -2.189   0.441  14.897  1.00 17.84     0.021 A 
ENDBRANCH  38  40
ENDBRANCH  34  37
ENDBRANCH  32  34
ENDBRANCH   4  31
TORSDOF 12
ENDMDL
MODEL 8
REMARK VINA RESULT:    -7.211      2.407      3.537
REMARK INTER + INTRA:         -14.238
REMARK INTER:                 -12.471
REMARK INTRA:                  -1.766
REMARK UNBOUND:                -1.969
REMARK  12 active torsions:
REMARK  status: ('A' for Active; 'I' for Inactive)
REMARK    1  A    between atoms: C1_1  and  O11_11 
REMARK    2  A    between atoms: C2_2  and  O13_13 
REMARK    3  A    between atoms: C10_10  and  O14_14 
REMARK    4  A    between atoms: O13_13  and  C23_23 
REMARK    5  A    between atoms: O14_14  and  C15_15 
REMARK    6  A    between atoms: C18_18  and  N22_22 
REMARK       I    between atoms: N22_22  and  C32_32 
REMARK    7  A    between atoms: C23_23  and  C24_24 
REMARK    8  A    between atoms: C24_24  and  C25_25 
REMARK    9  A    between atoms: C25_25  and  N26_26 
REMARK   10  A    between atoms: C32_32  and  C33_33 
REMARK   11  A    between atoms: C33_33  and  C34_34 
REMARK       I    between atoms: C34_34  and  N35_35 
REMARK   12  A    between atoms: N35_35  and  C38_38 
ROOT
HETATM    1  C15   D T   1       4.391   4.028  10.852  1.00 20.42     0.127 A 
HETATM    2  C16   D T   1       3.849   3.358  11.931  1.00 16.92     0.029 A 
HETATM    3  C17   D T   1       2.480   3.271  12.049  1.00 18.89     0.021 A 
HETATM    4  C18   D T   1       1.613   3.858  11.114  1.00 19.71     0.087 A 
HETATM    5  C19   D T   1       2.117   4.518  10.000  1.00 20.34     0.051 A 
HETATM    6  C20   D T   1       3.501   4.632   9.855  1.00 23.00     0.164 A 
HETATM    7  F21   D T   1       4.108   5.277   8.845  1.00 24.23    -0.202 F 
ENDROOT
BRANCH   1   8
HETATM    8  O14   D T   1       5.731   4.179  10.638  1.00 19.07    -0.305 OA
BRANCH   8   9
HETATM    9  C10   D T   1       6.526   4.551  11.706  1.00 16.92     0.103 A 
HETATM   10  C5    D T   1       7.431   3.541  12.218  1.00 16.19     0.043 A 
HETATM   11  C4    D T   1       8.262   3.918  13.394  1.00 14.79     0.085 A 
HETATM   12  C6    D T   1       7.499   2.299  11.618  1.00 16.37     0.030 A 
HETATM   13  C3    D T   1       9.156   2.983  13.900  1.00 15.80     0.045 A 
HETATM   14  N7    D T   1       8.142   5.147  13.933  1.00 17.15    -0.244 NA
HETATM   15  C2    D T   1       9.221   1.716  13.307  1.00 18.47     0.118 A 
HETATM   16  C1    D T   1       8.388   1.352  12.147  1.00 19.14     0.116 A 
HETATM   17  C8    D T   1       7.274   6.079  13.485  1.00 16.83     0.101 A 
HETATM   18  C9    D T   1       6.484   5.812  12.337  1.00 17.41     0.045 A 
BRANCH  15  19
HETATM   19  O13   D T   1      10.039   0.714  13.716  1.00 18.42    -0.329 OA
BRANCH  19  20
HETATM   20  C23   D T   1      10.024   0.157  15.036  1.00 21.03     0.151 C 
BRANCH  20  21
HETATM   21  C24   D T   1       8.903  -0.882  15.044  1.00 22.44     0.056 C 
BRANCH  21  22
HETATM   22  C25   D T   1       7.956  -0.426  16.129  1.00 28.63     0.100 C 
BRANCH  22  23
HETATM   23  N26   D T   1       6.574  -0.327  15.708  1.00 33.59    -0.364 N 
HETATM   24  C27   D T   1       5.977  -1.606  15.302  1.00 36.37     0.130 C 
HETATM   25  C28   D T   1       4.833  -1.328  14.325  1.00 38.52     0.166 C 
HETATM   26  O29   D T   1       4.002  -0.374  14.970  1.00 39.12    -0.350 OA
HETATM   27  C30   D T   1       4.720   0.869  15.006  1.00 39.82     0.166 C 
HETATM   28  C31   D T   1       5.716   0.759  16.172  1.00 38.13     0.130 C 
ENDBRANCH  22  23
ENDBRANCH  21  22
ENDBRANCH  20  21
ENDBRANCH  19  20
ENDBRANCH  15  19
BRANCH  16  29
HETATM   29  O11   D T   1       8.546   0.054  11.677  1.00 20.67    -0.326 OA
HETATM   30  C12   D T   1       7.490  -0.904  11.572  1.00 21.17     0.181 C 
ENDBRANCH  16  29
ENDBRANCH   8   9
ENDBRANCH   1   8
BRANCH   4  31
HETATM   31  N22   D T   1       0.284   3.730  11.327  1.00 20.22    -0.211 NA
HETATM   32  C32   D T   1      -0.578   4.586  11.915  1.00 20.90     0.263 C 
HETATM   33  O36   D T   1      -0.255   5.624  12.441  1.00 20.49    -0.270 OA
BRANCH  32  34
HETATM   34  C33   D T   1      -2.056   4.245  11.888  1.00 20.84     0.146 A 
HETATM   35  C45   D T   1      -2.521   4.117  10.423  1.00 21.22     0.019 A 
HETATM   36  C46   D T   1      -3.016   5.285  11.271  1.00 20.56     0.019 A 
BRANCH  34  37
HETATM   37  C34   D T   1      -2.590   3.228  12.923  1.00 20.23     0.263 C 
HETATM   38  N35   D T   1      -3.207   2.104  12.511  1.00 17.24    -0.211 NA
HETATM   39  O37   D T   1      -2.808   3.623  14.074  1.00 19.27    -0.270 OA
BRANCH  38  40
HETATM   40  C38   D T   1      -3.654   1.164  13.407  1.00 18.52     0.085 A 
HETATM   41  C39   D T   1      -2.870   0.766  14.507  1.00 17.15     0.021 A 
HETATM   42  C40   D T   1      -3.299  -0.203  15.425  1.00 19.70     0.031 A 
HETATM   43  C41   D T   1      -4.593  -0.742  15.226  1.00 19.38     0.140 A 
HETATM   44  C42   D T   1      -5.383  -0.345  14.144  1.00 18.79     0.031 A 
HETATM   45  F44   D T   1      -5.088  -1.661  16.083  1.00 21.15    -0.204 F 
HETATM   46  C43   D T   1      -4.947   0.627  13.234  1.00 17.84     0.021 A 
ENDBRANCH  38  40
ENDBRANCH  34  37
ENDBRANCH  32  34
ENDBRANCH   4  31
TORSDOF 12
ENDMDL
MODEL 9
REMARK VINA RESULT:    -7.036      2.731      4.097
REMARK INTER + INTRA:         -13.941
REMARK INTER:                 -12.593
REMARK INTRA:                  -1.349
REMARK UNBOUND:                -1.969
REMARK  12 active torsions:
REMARK  status: ('A' for Active; 'I' for Inactive)
REMARK    1  A    between atoms: C1_1  and  O11_11 
REMARK    2  A    between atoms: C2_2  and  O13_13 
REMARK    3  A    between atoms: C10_10  and  O14_14 
REMARK    4  A    between atoms: O13_13  and  C23_23 
REMARK    5  A    between atoms: O14_14  and  C15_15 
REMARK    6  A    between atoms: C18_18  and  N22_22 
REMARK       I    between atoms: N22_22  and  C32_32 
REMARK    7  A    between atoms: C23_23  and  C24_24 
REMARK    8  A    between atoms: C24_24  and  C25_25 
REMARK    9  A    between atoms: C25_25  and  N26_26 
REMARK   10  A    between atoms: C32_32  and  C33_33 
REMARK   11  A    between atoms: C33_33  and  C34_34 
REMARK       I    between atoms: C34_34  and  N35_35 
REMARK   12  A    between atoms: N35_35  and  C38_38 
ROOT
HETATM    1  C15   D T   1       4.188   2.942  11.139  1.00 20.42     0.127 A 
HETATM    2  C16   D T   1       3.499   2.595  12.284  1.00 16.92     0.029 A 
HETATM    3  C17   D T   1       2.127   2.704  12.300  1.00 18.89     0.021 A 
HETATM    4  C18   D T   1       1.403   3.173  11.193  1.00 19.71     0.087 A 
HETATM    5  C19   D T   1       2.056   3.508  10.012  1.00 20.34     0.051 A 
HETATM    6  C20   D T   1       3.448   3.417   9.965  1.00 23.00     0.164 A 
HETATM    7  F21   D T   1       4.196   3.747   8.898  1.00 24.23    -0.202 F 
ENDROOT
BRANCH   1   8
HETATM    8  O14   D T   1       5.547   2.878  11.013  1.00 19.07    -0.305 OA
BRANCH   8   9
HETATM    9  C10   D T   1       6.171   1.672  11.273  1.00 16.92     0.103 A 
HETATM   10  C5    D T   1       7.022   1.626  12.446  1.00 16.19     0.043 A 
HETATM   11  C4    D T   1       7.730   0.344  12.712  1.00 14.79     0.085 A 
HETATM   12  C6    D T   1       7.144   2.735  13.261  1.00 16.37     0.030 A 
HETATM   13  C3    D T   1       8.539   0.256  13.838  1.00 15.80     0.045 A 
HETATM   14  N7    D T   1       7.570  -0.698  11.873  1.00 17.15    -0.244 NA
HETATM   15  C2    D T   1       8.679   1.380  14.662  1.00 18.47     0.118 A 
HETATM   16  C1    D T   1       7.978   2.646  14.385  1.00 19.14     0.116 A 
HETATM   17  C8    D T   1       6.809  -0.649  10.758  1.00 16.83     0.101 A 
HETATM   18  C9    D T   1       6.063   0.521  10.463  1.00 17.41     0.045 A 
BRANCH  15  19
HETATM   19  O13   D T   1       9.449   1.426  15.779  1.00 18.42    -0.329 OA
BRANCH  19  20
HETATM   20  C23   D T   1       9.248   0.590  16.925  1.00 21.03     0.151 C 
BRANCH  20  21
HETATM   21  C24   D T   1       7.926   1.038  17.548  1.00 22.44     0.056 C 
BRANCH  21  22
HETATM   22  C25   D T   1       7.172  -0.241  17.826  1.00 28.63     0.100 C 
BRANCH  22  23
HETATM   23  N26   D T   1       6.006  -0.436  16.989  1.00 33.59    -0.364 N 
HETATM   24  C27   D T   1       5.107  -1.502  17.451  1.00 36.37     0.130 C 
HETATM   25  C28   D T   1       4.326  -2.043  16.252  1.00 38.52     0.166 C 
HETATM   26  O29   D T   1       3.751  -0.905  15.626  1.00 39.12    -0.350 OA
HETATM   27  C30   D T   1       4.819  -0.161  15.020  1.00 39.82     0.166 C 
HETATM   28  C31   D T   1       5.484   0.640  16.152  1.00 38.13     0.130 C 
ENDBRANCH  22  23
ENDBRANCH  21  22
ENDBRANCH  20  21
ENDBRANCH  19  20
ENDBRANCH  15  19
BRANCH  16  29
HETATM   29  O11   D T   1       8.229   3.681  15.277  1.00 20.67    -0.326 OA
HETATM   30  C12   D T   1       9.201   4.709  15.073  1.00 21.17     0.181 C 
ENDBRANCH  16  29
ENDBRANCH   8   9
ENDBRANCH   1   8
BRANCH   4  31
HETATM   31  N22   D T   1       0.059   3.258  11.314  1.00 20.22    -0.211 NA
HETATM   32  C32   D T   1      -0.690   4.194  11.934  1.00 20.90     0.263 C 
HETATM   33  O36   D T   1      -0.239   5.108  12.582  1.00 20.49    -0.270 OA
BRANCH  32  34
HETATM   34  C33   D T   1      -2.198   4.117  11.786  1.00 20.84     0.146 A 
HETATM   35  C45   D T   1      -2.587   4.503  10.345  1.00 21.22     0.019 A 
HETATM   36  C46   D T   1      -2.953   5.433  11.499  1.00 20.56     0.019 A 
BRANCH  34  37
HETATM   37  C34   D T   1      -2.939   2.939  12.459  1.00 20.23     0.263 C 
HETATM   38  N35   D T   1      -2.361   2.268  13.475  1.00 17.24    -0.211 NA
HETATM   39  O37   D T   1      -3.839   2.374  11.827  1.00 19.27    -0.270 OA
BRANCH  38  40
HETATM   40  C38   D T   1      -3.012   1.245  14.118  1.00 18.52     0.085 A 
HETATM   41  C39   D T   1      -4.372   0.972  13.877  1.00 17.15     0.021 A 
HETATM   42  C40   D T   1      -5.061  -0.057  14.534  1.00 19.70     0.031 A 
HETATM   43  C41   D T   1      -4.312  -0.856  15.431  1.00 19.38     0.140 A 
HETATM   44  C42   D T   1      -2.958  -0.601  15.668  1.00 18.79     0.031 A 
HETATM   45  F44   D T   1      -4.898  -1.884  16.082  1.00 21.15    -0.204 F 
HETATM   46  C43   D T   1      -2.278   0.427  15.003  1.00 17.84     0.021 A 
ENDBRANCH  38  40
ENDBRANCH  34  37
ENDBRANCH  32  34
ENDBRANCH   4  31
TORSDOF 12
ENDMDL
