MODEL 1
REMARK VINA RESULT:    -8.557      0.000      0.000
REMARK INTER + INTRA:          -9.960
REMARK INTER:                  -9.557
REMARK INTRA:                  -0.402
REMARK UNBOUND:                -0.402
REMARK  2 active torsions:
REMARK  status: ('A' for Active; 'I' for Inactive)
REMARK    1  A    between atoms: CAX_24  and  NBD_30 
REMARK    2  A    between atoms: CAY_25  and  CAZ_26 
ROOT
HETATM    1  CAE   D T   1      -8.336   2.278  -6.612  1.00 15.33     0.002 A 
HETATM    2  CAF   D T   1      -9.942   0.776  -5.704  1.00 33.04     0.002 A 
HETATM    3  CAG   D T   1      -9.262   3.320  -6.563  1.00 21.87     0.017 A 
HETATM    4  CAH   D T   1     -10.869   1.827  -5.672  1.00 18.39     0.017 A 
HETATM    5  CAK   D T   1      -7.808  -1.269  -5.535  1.00 18.99     0.102 A 
HETATM    6  CAL   D T   1      -4.077  -2.312  -7.747  1.00 11.90     0.124 A 
HETATM    7  CAM   D T   1      -6.624   0.025  -7.126  1.00 18.90     0.104 A 
HETATM    8  NAS   D T   1      -6.910  -2.238  -5.644  1.00 18.39    -0.225 NA
HETATM    9  NAT   D T   1      -4.666  -1.124  -7.982  1.00 12.09    -0.162 NA
HETATM   10  CAV   D T   1      -8.645   0.990  -6.168  1.00 21.96     0.003 A 
HETATM   11  CAW   D T   1      -7.693  -0.078  -6.252  1.00 19.91     0.038 A 
HETATM   12  CAX   D T   1     -10.543   3.093  -6.092  1.00 28.57     0.056 A 
HETATM   13  CAZ   D T   1      -4.786  -3.000  -6.835  1.00 11.86     0.057 A 
HETATM   14  CBC   D T   1      -5.859  -2.154  -6.489  1.00 11.35     0.165 A 
HETATM   15  NBE   D T   1      -5.679  -0.999  -7.251  1.00 13.25    -0.211 N 
ENDROOT
BRANCH  13  16
HETATM   16  CAY   D T   1      -4.497  -4.308  -6.359  1.00 15.42     0.007 A 
HETATM   17  CAD   D T   1      -3.275  -4.537  -5.738  1.00 12.05     0.021 A 
HETATM   18  CAC   D T   1      -2.895  -5.808  -5.312  1.00 20.05     0.099 A 
HETATM   19  NAR   D T   1      -3.663  -6.852  -5.488  1.00 15.05    -0.244 NA
HETATM   20  CBA   D T   1      -4.865  -6.697  -6.120  1.00 17.37     0.081 A 
HETATM   21  CAI   D T   1      -5.659  -7.809  -6.324  1.00 17.61     0.019 A 
HETATM   22  CBB   D T   1      -5.301  -5.449  -6.563  1.00 11.87     0.018 A 
HETATM   23  CAA   D T   1      -6.895  -7.716  -6.984  1.00 16.02     0.002 A 
HETATM   24  CAB   D T   1      -7.334  -6.479  -7.406  1.00 12.08     0.000 A 
HETATM   25  CAJ   D T   1      -6.538  -5.367  -7.222  1.00 13.82     0.002 A 
ENDBRANCH  13  16
BRANCH  12  26
HETATM   26  NBD   D T   1     -11.535   4.077  -6.099  1.00 22.08    -0.344 N 
HETATM   27  CAP   D T   1     -12.589   4.059  -5.005  1.00 30.90     0.127 C 
HETATM   28  CAN   D T   1     -13.741   5.101  -5.138  1.00 24.56     0.144 C 
HETATM   29  NAU   D T   1     -13.560   6.028  -6.269  1.00 23.51    -0.291 NA
HETATM   30  CAO   D T   1     -12.160   6.403  -6.553  1.00 28.25     0.144 C 
HETATM   31  CAQ   D T   1     -11.334   5.216  -7.007  1.00 25.74     0.127 C 
ENDBRANCH  12  26
TORSDOF 2
ENDMDL
MODEL 2
REMARK VINA RESULT:    -8.355      3.775     11.887
REMARK INTER + INTRA:          -9.734
REMARK INTER:                  -9.307
REMARK INTRA:                  -0.427
REMARK UNBOUND:                -0.402
REMARK  2 active torsions:
REMARK  status: ('A' for Active; 'I' for Inactive)
REMARK    1  A    between atoms: CAX_24  and  NBD_30 
REMARK    2  A    between atoms: CAY_25  and  CAZ_26 
ROOT
HETATM    1  CAE   D T   1      -4.465  -9.553  -7.264  1.00 15.33     0.002 A 
HETATM    2  CAF   D T   1      -6.774  -9.867  -6.787  1.00 33.04     0.002 A 
HETATM    3  CAG   D T   1      -4.318 -10.915  -7.520  1.00 21.87     0.017 A 
HETATM    4  CAH   D T   1      -6.612 -11.237  -7.033  1.00 18.39     0.017 A 
HETATM    5  CAK   D T   1      -7.049  -6.925  -6.600  1.00 18.99     0.102 A 
HETATM    6  CAL   D T   1      -4.496  -3.456  -5.440  1.00 11.90     0.124 A 
HETATM    7  CAM   D T   1      -4.703  -6.857  -6.286  1.00 18.90     0.104 A 
HETATM    8  NAS   D T   1      -7.131  -5.631  -6.322  1.00 18.39    -0.225 NA
HETATM    9  NAT   D T   1      -3.918  -4.656  -5.637  1.00 12.09    -0.162 NA
HETATM   10  CAV   D T   1      -5.696  -8.993  -6.911  1.00 21.96     0.003 A 
HETATM   11  CAW   D T   1      -5.826  -7.595  -6.622  1.00 19.91     0.038 A 
HETATM   12  CAX   D T   1      -5.401 -11.769  -7.399  1.00 28.57     0.056 A 
HETATM   13  CAZ   D T   1      -5.823  -3.551  -5.636  1.00 11.86     0.057 A 
HETATM   14  CBC   D T   1      -6.046  -4.895  -5.995  1.00 11.35     0.165 A 
HETATM   15  NBE   D T   1      -4.786  -5.494  -5.983  1.00 13.25    -0.211 N 
ENDROOT
BRANCH  13  16
HETATM   16  CAY   D T   1      -6.771  -2.503  -5.485  1.00 15.42     0.007 A 
HETATM   17  CAD   D T   1      -7.623  -2.525  -4.388  1.00 12.05     0.021 A 
HETATM   18  CAC   D T   1      -8.623  -1.571  -4.214  1.00 20.05     0.099 A 
HETATM   19  NAR   D T   1      -8.820  -0.613  -5.084  1.00 15.05    -0.244 NA
HETATM   20  CBA   D T   1      -8.034  -0.554  -6.201  1.00 17.37     0.081 A 
HETATM   21  CAI   D T   1      -8.265   0.446  -7.125  1.00 17.61     0.019 A 
HETATM   22  CBB   D T   1      -7.014  -1.478  -6.425  1.00 11.87     0.018 A 
HETATM   23  CAA   D T   1      -7.504   0.546  -8.302  1.00 16.02     0.002 A 
HETATM   24  CAB   D T   1      -6.484  -0.357  -8.514  1.00 12.08     0.000 A 
HETATM   25  CAJ   D T   1      -6.260  -1.369  -7.603  1.00 13.82     0.002 A 
ENDBRANCH  13  16
BRANCH  12  26
HETATM   26  NBD   D T   1      -5.292 -13.152  -7.561  1.00 22.08    -0.344 N 
HETATM   27  CAP   D T   1      -5.314 -14.036  -6.325  1.00 30.90     0.127 C 
HETATM   28  CAN   D T   1      -5.060 -15.557  -6.558  1.00 24.56     0.144 C 
HETATM   29  NAU   D T   1      -4.945 -15.916  -7.982  1.00 23.51    -0.291 NA
HETATM   30  CAO   D T   1      -5.809 -15.141  -8.896  1.00 28.25     0.144 C 
HETATM   31  CAQ   D T   1      -5.433 -13.674  -8.928  1.00 25.74     0.127 C 
ENDBRANCH  12  26
TORSDOF 2
ENDMDL
MODEL 3
REMARK VINA RESULT:    -8.320      5.089     12.516
REMARK INTER + INTRA:          -9.695
REMARK INTER:                  -9.212
REMARK INTRA:                  -0.483
REMARK UNBOUND:                -0.402
REMARK  2 active torsions:
REMARK  status: ('A' for Active; 'I' for Inactive)
REMARK    1  A    between atoms: CAX_24  and  NBD_30 
REMARK    2  A    between atoms: CAY_25  and  CAZ_26 
ROOT
HETATM    1  CAE   D T   1      -7.526 -11.024  -8.740  1.00 15.33     0.002 A 
HETATM    2  CAF   D T   1      -5.301 -10.822  -7.925  1.00 33.04     0.002 A 
HETATM    3  CAG   D T   1      -7.256 -12.313  -9.200  1.00 21.87     0.017 A 
HETATM    4  CAH   D T   1      -5.036 -12.112  -8.403  1.00 18.39     0.017 A 
HETATM    5  CAK   D T   1      -6.077  -8.243  -6.695  1.00 18.99     0.102 A 
HETATM    6  CAL   D T   1      -8.963  -4.945  -7.527  1.00 11.90     0.124 A 
HETATM    7  CAM   D T   1      -7.903  -8.224  -8.202  1.00 18.90     0.104 A 
HETATM    8  NAS   D T   1      -6.366  -7.005  -6.317  1.00 18.39    -0.225 NA
HETATM    9  NAT   D T   1      -9.083  -6.104  -8.201  1.00 12.09    -0.162 NA
HETATM   10  CAV   D T   1      -6.566 -10.257  -8.077  1.00 21.96     0.003 A 
HETATM   11  CAW   D T   1      -6.849  -8.922  -7.638  1.00 19.91     0.038 A 
HETATM   12  CAX   D T   1      -5.997 -12.863  -9.034  1.00 28.57     0.056 A 
HETATM   13  CAZ   D T   1      -7.917  -5.014  -6.684  1.00 11.86     0.057 A 
HETATM   14  CBC   D T   1      -7.393  -6.310  -6.854  1.00 11.35     0.165 A 
HETATM   15  NBE   D T   1      -8.207  -6.915  -7.812  1.00 13.25    -0.211 N 
ENDROOT
BRANCH  13  16
HETATM   16  CAY   D T   1      -7.456  -3.974  -5.832  1.00 15.42     0.007 A 
HETATM   17  CAD   D T   1      -8.244  -3.597  -4.751  1.00 12.05     0.021 A 
HETATM   18  CAC   D T   1      -7.890  -2.539  -3.917  1.00 20.05     0.099 A 
HETATM   19  NAR   D T   1      -6.804  -1.836  -4.118  1.00 15.05    -0.244 NA
HETATM   20  CBA   D T   1      -6.003  -2.138  -5.184  1.00 17.37     0.081 A 
HETATM   21  CAI   D T   1      -4.872  -1.375  -5.403  1.00 17.61     0.019 A 
HETATM   22  CBB   D T   1      -6.303  -3.189  -6.049  1.00 11.87     0.018 A 
HETATM   23  CAA   D T   1      -4.020  -1.624  -6.492  1.00 16.02     0.002 A 
HETATM   24  CAB   D T   1      -4.308  -2.675  -7.336  1.00 12.08     0.000 A 
HETATM   25  CAJ   D T   1      -5.445  -3.429  -7.133  1.00 13.82     0.002 A 
ENDBRANCH  13  16
BRANCH  12  26
HETATM   26  NBD   D T   1      -5.647 -14.114  -9.547  1.00 22.08    -0.344 N 
HETATM   27  CAP   D T   1      -5.380 -15.252  -8.577  1.00 30.90     0.127 C 
HETATM   28  CAN   D T   1      -4.869 -16.587  -9.202  1.00 24.56     0.144 C 
HETATM   29  NAU   D T   1      -4.829 -16.563 -10.674  1.00 23.51    -0.291 NA
HETATM   30  CAO   D T   1      -5.910 -15.788 -11.318  1.00 28.25     0.144 C 
HETATM   31  CAQ   D T   1      -5.821 -14.311 -10.994  1.00 25.74     0.127 C 
ENDBRANCH  12  26
TORSDOF 2
ENDMDL
MODEL 4
REMARK VINA RESULT:    -8.051      5.038      9.578
REMARK INTER + INTRA:          -9.395
REMARK INTER:                  -8.889
REMARK INTRA:                  -0.506
REMARK UNBOUND:                -0.402
REMARK  2 active torsions:
REMARK  status: ('A' for Active; 'I' for Inactive)
REMARK    1  A    between atoms: CAX_24  and  NBD_30 
REMARK    2  A    between atoms: CAY_25  and  CAZ_26 
ROOT
HETATM    1  CAE   D T   1      -6.848  -6.336  -6.255  1.00 15.33     0.002 A 
HETATM    2  CAF   D T   1      -4.504  -6.645  -6.509  1.00 33.04     0.002 A 
HETATM    3  CAG   D T   1      -6.664  -4.964  -6.093  1.00 21.87     0.017 A 
HETATM    4  CAH   D T   1      -4.328  -5.266  -6.331  1.00 18.39     0.017 A 
HETATM    5  CAK   D T   1      -5.036  -9.480  -7.177  1.00 18.99     0.102 A 
HETATM    6  CAL   D T   1      -8.077 -12.579  -6.153  1.00 11.90     0.124 A 
HETATM    7  CAM   D T   1      -7.140  -9.195  -6.129  1.00 18.90     0.104 A 
HETATM    8  NAS   D T   1      -5.255 -10.784  -7.279  1.00 18.39    -0.225 NA
HETATM    9  NAT   D T   1      -8.322 -11.294  -5.836  1.00 12.09    -0.162 NA
HETATM   10  CAV   D T   1      -5.779  -7.206  -6.485  1.00 21.96     0.003 A 
HETATM   11  CAW   D T   1      -5.981  -8.618  -6.620  1.00 19.91     0.038 A 
HETATM   12  CAX   D T   1      -5.391  -4.422  -6.127  1.00 28.57     0.056 A 
HETATM   13  CAZ   D T   1      -6.875 -12.681  -6.749  1.00 11.86     0.057 A 
HETATM   14  CBC   D T   1      -6.381 -11.363  -6.808  1.00 11.35     0.165 A 
HETATM   15  NBE   D T   1      -7.372 -10.572  -6.227  1.00 13.25    -0.211 N 
ENDROOT
BRANCH  13  16
HETATM   16  CAY   D T   1      -6.258 -13.883  -7.192  1.00 15.42     0.007 A 
HETATM   17  CAD   D T   1      -5.709 -14.741  -6.247  1.00 12.05     0.021 A 
HETATM   18  CAC   D T   1      -5.027 -15.898  -6.613  1.00 20.05     0.099 A 
HETATM   19  NAR   D T   1      -4.856 -16.229  -7.868  1.00 15.05    -0.244 NA
HETATM   20  CBA   D T   1      -5.346 -15.411  -8.847  1.00 17.37     0.081 A 
HETATM   21  CAI   D T   1      -5.140 -15.755 -10.169  1.00 17.61     0.019 A 
HETATM   22  CBB   D T   1      -6.043 -14.242  -8.540  1.00 11.87     0.018 A 
HETATM   23  CAA   D T   1      -5.603 -14.945 -11.218  1.00 16.02     0.002 A 
HETATM   24  CAB   D T   1      -6.307 -13.799 -10.914  1.00 12.08     0.000 A 
HETATM   25  CAJ   D T   1      -6.501 -13.439  -9.596  1.00 13.82     0.002 A 
ENDBRANCH  13  16
BRANCH  12  26
HETATM   26  NBD   D T   1      -5.140  -3.068  -5.887  1.00 22.08    -0.344 N 
HETATM   27  CAP   D T   1      -3.836  -2.468  -6.384  1.00 30.90     0.127 C 
HETATM   28  CAN   D T   1      -3.556  -0.989  -5.975  1.00 24.56     0.144 C 
HETATM   29  NAU   D T   1      -4.675  -0.364  -5.249  1.00 23.51    -0.291 NA
HETATM   30  CAO   D T   1      -6.020  -0.790  -5.685  1.00 28.25     0.144 C 
HETATM   31  CAQ   D T   1      -6.270  -2.258  -5.408  1.00 25.74     0.127 C 
ENDBRANCH  12  26
TORSDOF 2
ENDMDL
MODEL 5
REMARK VINA RESULT:    -7.877      2.280     10.563
REMARK INTER + INTRA:          -9.201
REMARK INTER:                  -8.818
REMARK INTRA:                  -0.383
REMARK UNBOUND:                -0.402
REMARK  2 active torsions:
REMARK  status: ('A' for Active; 'I' for Inactive)
REMARK    1  A    between atoms: CAX_24  and  NBD_30 
REMARK    2  A    between atoms: CAY_25  and  CAZ_26 
ROOT
HETATM    1  CAE   D T   1      -8.159  -4.588  -6.781  1.00 15.33     0.002 A 
HETATM    2  CAF   D T   1      -5.912  -3.817  -6.663  1.00 33.04     0.002 A 
HETATM    3  CAG   D T   1      -7.717  -5.909  -6.841  1.00 21.87     0.017 A 
HETATM    4  CAH   D T   1      -5.478  -5.147  -6.738  1.00 18.39     0.017 A 
HETATM    5  CAK   D T   1      -6.962  -1.088  -6.200  1.00 18.99     0.102 A 
HETATM    6  CAL   D T   1     -10.576   1.274  -7.324  1.00 11.90     0.124 A 
HETATM    7  CAM   D T   1      -9.003  -1.859  -7.122  1.00 18.90     0.104 A 
HETATM    8  NAS   D T   1      -7.427   0.154  -6.193  1.00 18.39    -0.225 NA
HETATM    9  NAT   D T   1     -10.577  -0.057  -7.525  1.00 12.09    -0.162 NA
HETATM   10  CAV   D T   1      -7.272  -3.514  -6.672  1.00 21.96     0.003 A 
HETATM   11  CAW   D T   1      -7.739  -2.159  -6.641  1.00 19.91     0.038 A 
HETATM   12  CAX   D T   1      -6.363  -6.193  -6.824  1.00 28.57     0.056 A 
HETATM   13  CAZ   D T   1      -9.400   1.655  -6.796  1.00 11.86     0.057 A 
HETATM   14  CBC   D T   1      -8.658   0.465  -6.654  1.00 11.35     0.165 A 
HETATM   15  NBE   D T   1      -9.494  -0.549  -7.123  1.00 13.25    -0.211 N 
ENDROOT
BRANCH  13  16
HETATM   16  CAY   D T   1      -9.014   2.986  -6.479  1.00 15.42     0.007 A 
HETATM   17  CAD   D T   1      -7.971   3.566  -7.191  1.00 12.05     0.021 A 
HETATM   18  CAC   D T   1      -7.493   4.839  -6.888  1.00 20.05     0.099 A 
HETATM   19  NAR   D T   1      -7.992   5.546  -5.906  1.00 15.05    -0.244 NA
HETATM   20  CBA   D T   1      -9.000   5.018  -5.148  1.00 17.37     0.081 A 
HETATM   21  CAI   D T   1      -9.504   5.762  -4.100  1.00 17.61     0.019 A 
HETATM   22  CBB   D T   1      -9.523   3.752  -5.409  1.00 11.87     0.018 A 
HETATM   23  CAA   D T   1     -10.526   5.266  -3.273  1.00 16.02     0.002 A 
HETATM   24  CAB   D T   1     -11.055   4.021  -3.543  1.00 12.08     0.000 A 
HETATM   25  CAJ   D T   1     -10.543   3.266  -4.578  1.00 13.82     0.002 A 
ENDBRANCH  13  16
BRANCH  12  26
HETATM   26  NBD   D T   1      -5.863  -7.490  -6.966  1.00 22.08    -0.344 N 
HETATM   27  CAP   D T   1      -4.419  -7.762  -6.578  1.00 30.90     0.127 C 
HETATM   28  CAN   D T   1      -3.881  -9.195  -6.879  1.00 24.56     0.144 C 
HETATM   29  NAU   D T   1      -4.913 -10.106  -7.403  1.00 23.51    -0.291 NA
HETATM   30  CAO   D T   1      -6.267  -9.905  -6.848  1.00 28.25     0.144 C 
HETATM   31  CAQ   D T   1      -6.842  -8.555  -7.227  1.00 25.74     0.127 C 
ENDBRANCH  12  26
TORSDOF 2
ENDMDL
MODEL 6
REMARK VINA RESULT:    -7.691      4.057     11.943
REMARK INTER + INTRA:          -8.992
REMARK INTER:                  -8.597
REMARK INTRA:                  -0.395
REMARK UNBOUND:                -0.402
REMARK  2 active torsions:
REMARK  status: ('A' for Active; 'I' for Inactive)
REMARK    1  A    between atoms: CAX_24  and  NBD_30 
REMARK    2  A    between atoms: CAY_25  and  CAZ_26 
ROOT
HETATM    1  CAE   D T   1      -4.843 -10.351  -7.225  1.00 15.33     0.002 A 
HETATM    2  CAF   D T   1      -7.216 -10.198  -7.179  1.00 33.04     0.002 A 
HETATM    3  CAG   D T   1      -4.920 -11.738  -7.344  1.00 21.87     0.017 A 
HETATM    4  CAH   D T   1      -7.282 -11.594  -7.285  1.00 18.39     0.017 A 
HETATM    5  CAK   D T   1      -6.944  -7.252  -7.270  1.00 18.99     0.102 A 
HETATM    6  CAL   D T   1      -4.011  -4.181  -5.903  1.00 11.90     0.124 A 
HETATM    7  CAM   D T   1      -4.721  -7.565  -6.516  1.00 18.90     0.104 A 
HETATM    8  NAS   D T   1      -6.821  -5.941  -7.110  1.00 18.39    -0.225 NA
HETATM    9  NAT   D T   1      -3.650  -5.478  -5.895  1.00 12.09    -0.162 NA
HETATM   10  CAV   D T   1      -5.984  -9.547  -7.158  1.00 21.96     0.003 A 
HETATM   11  CAW   D T   1      -5.889  -8.126  -7.005  1.00 19.91     0.038 A 
HETATM   12  CAX   D T   1      -6.151 -12.368  -7.371  1.00 28.57     0.056 A 
HETATM   13  CAZ   D T   1      -5.276  -4.062  -6.344  1.00 11.86     0.057 A 
HETATM   14  CBC   D T   1      -5.688  -5.377  -6.637  1.00 11.35     0.165 A 
HETATM   15  NBE   D T   1      -4.590  -6.183  -6.338  1.00 13.25    -0.211 N 
ENDROOT
BRANCH  13  16
HETATM   16  CAY   D T   1      -6.014  -2.853  -6.457  1.00 15.42     0.007 A 
HETATM   17  CAD   D T   1      -5.532  -1.851  -7.292  1.00 12.05     0.021 A 
HETATM   18  CAC   D T   1      -6.164  -0.615  -7.397  1.00 20.05     0.099 A 
HETATM   19  NAR   D T   1      -7.236  -0.328  -6.703  1.00 15.05    -0.244 NA
HETATM   20  CBA   D T   1      -7.742  -1.260  -5.841  1.00 17.37     0.081 A 
HETATM   21  CAI   D T   1      -8.860  -0.940  -5.095  1.00 17.61     0.019 A 
HETATM   22  CBB   D T   1      -7.156  -2.517  -5.698  1.00 11.87     0.018 A 
HETATM   23  CAA   D T   1      -9.414  -1.849  -4.178  1.00 16.02     0.002 A 
HETATM   24  CAB   D T   1      -8.844  -3.098  -4.051  1.00 12.08     0.000 A 
HETATM   25  CAJ   D T   1      -7.717  -3.417  -4.780  1.00 13.82     0.002 A 
ENDBRANCH  13  16
BRANCH  12  26
HETATM   26  NBD   D T   1      -6.287 -13.758  -7.404  1.00 22.08    -0.344 N 
HETATM   27  CAP   D T   1      -6.017 -14.549  -6.135  1.00 30.90     0.127 C 
HETATM   28  CAN   D T   1      -6.058 -16.102  -6.266  1.00 24.56     0.144 C 
HETATM   29  NAU   D T   1      -6.467 -16.562  -7.605  1.00 23.51    -0.291 NA
HETATM   30  CAO   D T   1      -7.473 -15.717  -8.278  1.00 28.25     0.144 C 
HETATM   31  CAQ   D T   1      -6.938 -14.334  -8.590  1.00 25.74     0.127 C 
ENDBRANCH  12  26
TORSDOF 2
ENDMDL
MODEL 7
REMARK VINA RESULT:    -7.639      2.798     10.925
REMARK INTER + INTRA:          -8.935
REMARK INTER:                  -8.428
REMARK INTRA:                  -0.507
REMARK UNBOUND:                -0.402
REMARK  2 active torsions:
REMARK  status: ('A' for Active; 'I' for Inactive)
REMARK    1  A    between atoms: CAX_24  and  NBD_30 
REMARK    2  A    between atoms: CAY_25  and  CAZ_26 
ROOT
HETATM    1  CAE   D T   1      -5.419  -7.516  -6.703  1.00 15.33     0.002 A 
HETATM    2  CAF   D T   1      -7.709  -7.699  -7.318  1.00 33.04     0.002 A 
HETATM    3  CAG   D T   1      -5.250  -8.890  -6.869  1.00 21.87     0.017 A 
HETATM    4  CAH   D T   1      -7.532  -9.081  -7.469  1.00 18.39     0.017 A 
HETATM    5  CAK   D T   1      -7.871  -4.743  -7.267  1.00 18.99     0.102 A 
HETATM    6  CAL   D T   1      -5.921  -1.386  -5.070  1.00 11.90     0.124 A 
HETATM    7  CAM   D T   1      -5.918  -4.790  -5.929  1.00 18.90     0.104 A 
HETATM    8  NAS   D T   1      -7.996  -3.441  -7.051  1.00 18.39    -0.225 NA
HETATM    9  NAT   D T   1      -5.385  -2.618  -4.989  1.00 12.09    -0.162 NA
HETATM   10  CAV   D T   1      -6.642  -6.885  -6.941  1.00 21.96     0.003 A 
HETATM   11  CAW   D T   1      -6.809  -5.476  -6.737  1.00 19.91     0.038 A 
HETATM   12  CAX   D T   1      -6.317  -9.683  -7.252  1.00 28.57     0.056 A 
HETATM   13  CAZ   D T   1      -7.021  -1.417  -5.844  1.00 11.86     0.057 A 
HETATM   14  CBC   D T   1      -7.134  -2.755  -6.269  1.00 11.35     0.165 A 
HETATM   15  NBE   D T   1      -6.051  -3.418  -5.692  1.00 13.25    -0.211 N 
ENDROOT
BRANCH  13  16
HETATM   16  CAY   D T   1      -7.874  -0.317  -6.133  1.00 15.42     0.007 A 
HETATM   17  CAD   D T   1      -7.407   0.690  -6.970  1.00 12.05     0.021 A 
HETATM   18  CAC   D T   1      -8.160   1.830  -7.239  1.00 20.05     0.099 A 
HETATM   19  NAR   D T   1      -9.341   2.018  -6.705  1.00 15.05    -0.244 NA
HETATM   20  CBA   D T   1      -9.843   1.078  -5.849  1.00 17.37     0.081 A 
HETATM   21  CAI   D T   1     -11.079   1.296  -5.272  1.00 17.61     0.019 A 
HETATM   22  CBB   D T   1      -9.137  -0.086  -5.547  1.00 11.87     0.018 A 
HETATM   23  CAA   D T   1     -11.639   0.377  -4.370  1.00 16.02     0.002 A 
HETATM   24  CAB   D T   1     -10.949  -0.782  -4.085  1.00 12.08     0.000 A 
HETATM   25  CAJ   D T   1      -9.706  -0.998  -4.644  1.00 13.82     0.002 A 
ENDBRANCH  13  16
BRANCH  12  26
HETATM   26  NBD   D T   1      -6.226 -11.074  -7.352  1.00 22.08    -0.344 N 
HETATM   27  CAP   D T   1      -7.504 -11.894  -7.301  1.00 30.90     0.127 C 
HETATM   28  CAN   D T   1      -7.330 -13.444  -7.288  1.00 24.56     0.144 C 
HETATM   29  NAU   D T   1      -5.929 -13.873  -7.438  1.00 23.51    -0.291 NA
HETATM   30  CAO   D T   1      -5.105 -13.025  -8.322  1.00 28.25     0.144 C 
HETATM   31  CAQ   D T   1      -4.928 -11.626  -7.766  1.00 25.74     0.127 C 
ENDBRANCH  12  26
TORSDOF 2
ENDMDL
MODEL 8
REMARK VINA RESULT:    -7.598      5.398      9.970
REMARK INTER + INTRA:          -8.888
REMARK INTER:                  -8.604
REMARK INTRA:                  -0.284
REMARK UNBOUND:                -0.402
REMARK  2 active torsions:
REMARK  status: ('A' for Active; 'I' for Inactive)
REMARK    1  A    between atoms: CAX_24  and  NBD_30 
REMARK    2  A    between atoms: CAY_25  and  CAZ_26 
ROOT
HETATM    1  CAE   D T   1      -6.653  -6.524  -6.680  1.00 15.33     0.002 A 
HETATM    2  CAF   D T   1      -4.316  -6.894  -6.431  1.00 33.04     0.002 A 
HETATM    3  CAG   D T   1      -6.473  -5.158  -6.466  1.00 21.87     0.017 A 
HETATM    4  CAH   D T   1      -4.149  -5.521  -6.203  1.00 18.39     0.017 A 
HETATM    5  CAK   D T   1      -4.764  -9.710  -7.229  1.00 18.99     0.102 A 
HETATM    6  CAL   D T   1      -8.030 -12.732  -6.915  1.00 11.90     0.124 A 
HETATM    7  CAM   D T   1      -7.036  -9.375  -6.652  1.00 18.90     0.104 A 
HETATM    8  NAS   D T   1      -4.989 -11.007  -7.391  1.00 18.39    -0.225 NA
HETATM    9  NAT   D T   1      -8.305 -11.443  -6.643  1.00 12.09    -0.162 NA
HETATM   10  CAV   D T   1      -5.581  -7.420  -6.686  1.00 21.96     0.003 A 
HETATM   11  CAW   D T   1      -5.785  -8.826  -6.878  1.00 19.91     0.038 A 
HETATM   12  CAX   D T   1      -5.209  -4.650  -6.221  1.00 28.57     0.056 A 
HETATM   13  CAZ   D T   1      -6.732 -12.863  -7.241  1.00 11.86     0.057 A 
HETATM   14  CBC   D T   1      -6.204 -11.558  -7.178  1.00 11.35     0.165 A 
HETATM   15  NBE   D T   1      -7.276 -10.744  -6.813  1.00 13.25    -0.211 N 
ENDROOT
BRANCH  13  16
HETATM   16  CAY   D T   1      -6.064 -14.078  -7.556  1.00 15.42     0.007 A 
HETATM   17  CAD   D T   1      -5.590 -14.264  -8.849  1.00 12.05     0.021 A 
HETATM   18  CAC   D T   1      -4.990 -15.456  -9.248  1.00 20.05     0.099 A 
HETATM   19  NAR   D T   1      -4.857 -16.468  -8.428  1.00 15.05    -0.244 NA
HETATM   20  CBA   D T   1      -5.331 -16.359  -7.151  1.00 17.37     0.081 A 
HETATM   21  CAI   D T   1      -5.208 -17.440  -6.300  1.00 17.61     0.019 A 
HETATM   22  CBB   D T   1      -5.935 -15.188  -6.694  1.00 11.87     0.018 A 
HETATM   23  CAA   D T   1      -5.693 -17.395  -4.983  1.00 16.02     0.002 A 
HETATM   24  CAB   D T   1      -6.274 -16.231  -4.526  1.00 12.08     0.000 A 
HETATM   25  CAJ   D T   1      -6.416 -15.154  -5.376  1.00 13.82     0.002 A 
ENDBRANCH  13  16
BRANCH  12  26
HETATM   26  NBD   D T   1      -4.982  -3.305  -5.918  1.00 22.08    -0.344 N 
HETATM   27  CAP   D T   1      -3.839  -2.583  -6.612  1.00 30.90     0.127 C 
HETATM   28  CAN   D T   1      -3.555  -1.125  -6.139  1.00 24.56     0.144 C 
HETATM   29  NAU   D T   1      -4.530  -0.633  -5.150  1.00 23.51    -0.291 NA
HETATM   30  CAO   D T   1      -5.914  -1.112  -5.343  1.00 28.25     0.144 C 
HETATM   31  CAQ   D T   1      -6.028  -2.611  -5.152  1.00 25.74     0.127 C 
ENDBRANCH  12  26
TORSDOF 2
ENDMDL
MODEL 9
REMARK VINA RESULT:    -7.571      2.653     10.445
REMARK INTER + INTRA:          -8.858
REMARK INTER:                  -8.341
REMARK INTRA:                  -0.517
REMARK UNBOUND:                -0.402
REMARK  2 active torsions:
REMARK  status: ('A' for Active; 'I' for Inactive)
REMARK    1  A    between atoms: CAX_24  and  NBD_30 
REMARK    2  A    between atoms: CAY_25  and  CAZ_26 
ROOT
HETATM    1  CAE   D T   1      -9.365  -3.862  -7.021  1.00 15.33     0.002 A 
HETATM    2  CAF   D T   1      -7.088  -3.380  -6.533  1.00 33.04     0.002 A 
HETATM    3  CAG   D T   1      -9.053  -5.207  -7.218  1.00 21.87     0.017 A 
HETATM    4  CAH   D T   1      -6.782  -4.731  -6.747  1.00 18.39     0.017 A 
HETATM    5  CAK   D T   1      -7.914  -0.630  -5.811  1.00 18.99     0.102 A 
HETATM    6  CAL   D T   1     -11.096   2.261  -7.000  1.00 11.90     0.124 A 
HETATM    7  CAM   D T   1      -9.882  -1.033  -7.065  1.00 18.90     0.104 A 
HETATM    8  NAS   D T   1      -8.250   0.646  -5.681  1.00 18.39    -0.225 NA
HETATM    9  NAT   D T   1     -11.203   0.977  -7.388  1.00 12.09    -0.162 NA
HETATM   10  CAV   D T   1      -8.399  -2.922  -6.657  1.00 21.96     0.003 A 
HETATM   11  CAW   D T   1      -8.729  -1.538  -6.488  1.00 19.91     0.038 A 
HETATM   12  CAX   D T   1      -7.748  -5.647  -7.083  1.00 28.57     0.056 A 
HETATM   13  CAZ   D T   1      -9.967   2.431  -6.290  1.00 11.86     0.057 A 
HETATM   14  CBC   D T   1      -9.373   1.155  -6.234  1.00 11.35     0.165 A 
HETATM   15  NBE   D T   1     -10.236   0.315  -6.937  1.00 13.25    -0.211 N 
ENDROOT
BRANCH  13  16
HETATM   16  CAY   D T   1      -9.496   3.656  -5.743  1.00 15.42     0.007 A 
HETATM   17  CAD   D T   1      -9.911   4.023  -4.469  1.00 12.05     0.021 A 
HETATM   18  CAC   D T   1      -9.547   5.241  -3.900  1.00 20.05     0.099 A 
HETATM   19  NAR   D T   1      -8.808   6.109  -4.543  1.00 15.05    -0.244 NA
HETATM   20  CBA   D T   1      -8.393   5.820  -5.813  1.00 17.37     0.081 A 
HETATM   21  CAI   D T   1      -7.633   6.751  -6.493  1.00 17.61     0.019 A 
HETATM   22  CBB   D T   1      -8.721   4.614  -6.432  1.00 11.87     0.018 A 
HETATM   23  CAA   D T   1      -7.194   6.520  -7.807  1.00 16.02     0.002 A 
HETATM   24  CAB   D T   1      -7.504   5.320  -8.412  1.00 12.08     0.000 A 
HETATM   25  CAJ   D T   1      -8.277   4.393  -7.745  1.00 13.82     0.002 A 
ENDBRANCH  13  16
BRANCH  12  26
HETATM   26  NBD   D T   1      -7.364  -6.964  -7.350  1.00 22.08    -0.344 N 
HETATM   27  CAP   D T   1      -6.189  -7.551  -6.586  1.00 30.90     0.127 C 
HETATM   28  CAN   D T   1      -5.728  -8.977  -7.017  1.00 24.56     0.144 C 
HETATM   29  NAU   D T   1      -6.592  -9.582  -8.045  1.00 23.51    -0.291 NA
HETATM   30  CAO   D T   1      -8.027  -9.250  -7.932  1.00 28.25     0.144 C 
HETATM   31  CAQ   D T   1      -8.289  -7.775  -8.155  1.00 25.74     0.127 C 
ENDBRANCH  12  26
TORSDOF 2
ENDMDL
