MODEL 1
REMARK VINA RESULT:    -9.865      0.000      0.000
REMARK INTER + INTRA:         -10.750
REMARK INTER:                 -11.018
REMARK INTRA:                   0.268
REMARK UNBOUND:                 0.268
REMARK  2 active torsions:
REMARK  status: ('A' for Active; 'I' for Inactive)
REMARK    1  A    between atoms: CAX_24  and  NBD_30 
REMARK    2  A    between atoms: CAY_25  and  CAZ_26 
ROOT
HETATM    1  CAE   D T   1      -2.166  -2.782  17.195  1.00 15.33     0.002 A 
HETATM    2  CAF   D T   1      -0.049  -2.904  16.120  1.00 33.04     0.002 A 
HETATM    3  CAG   D T   1      -1.930  -4.000  17.829  1.00 21.87     0.017 A 
HETATM    4  CAH   D T   1       0.172  -4.136  16.750  1.00 18.39     0.017 A 
HETATM    5  CAK   D T   1      -0.503  -0.162  15.098  1.00 18.99     0.102 A 
HETATM    6  CAL   D T   1      -3.985   2.371  13.933  1.00 11.90     0.124 A 
HETATM    7  CAM   D T   1      -2.804  -0.526  15.526  1.00 18.90     0.104 A 
HETATM    8  NAS   D T   1      -0.791   0.975  14.482  1.00 18.39    -0.225 NA
HETATM    9  NAT   D T   1      -4.207   1.227  14.607  1.00 12.09    -0.162 NA
HETATM   10  CAV   D T   1      -1.228  -2.195  16.343  1.00 21.96     0.003 A 
HETATM   11  CAW   D T   1      -1.496  -0.957  15.674  1.00 19.91     0.038 A 
HETATM   12  CAX   D T   1      -0.752  -4.689  17.603  1.00 28.57     0.056 A 
HETATM   13  CAZ   D T   1      -2.667   2.528  13.723  1.00 11.86     0.057 A 
HETATM   14  CBC   D T   1      -2.062   1.412  14.331  1.00 11.35     0.165 A 
HETATM   15  NBE   D T   1      -3.112   0.670  14.870  1.00 13.25    -0.211 N 
ENDROOT
BRANCH  13  16
HETATM   16  CAY   D T   1      -2.053   3.599  13.017  1.00 15.42     0.007 A 
HETATM   17  CAD   D T   1      -0.814   4.061  13.445  1.00 12.05     0.021 A 
HETATM   18  CAC   D T   1      -0.189   5.152  12.846  1.00 20.05     0.099 A 
HETATM   19  NAR   D T   1      -0.743   5.806  11.858  1.00 15.05    -0.244 NA
HETATM   20  CBA   D T   1      -1.975   5.420  11.409  1.00 17.37     0.081 A 
HETATM   21  CAI   D T   1      -2.563   6.131  10.381  1.00 17.61     0.019 A 
HETATM   22  CBB   D T   1      -2.647   4.333  11.967  1.00 11.87     0.018 A 
HETATM   23  CAA   D T   1      -3.836   5.795   9.893  1.00 16.02     0.002 A 
HETATM   24  CAB   D T   1      -4.491   4.708  10.431  1.00 12.08     0.000 A 
HETATM   25  CAJ   D T   1      -3.918   4.004  11.469  1.00 13.82     0.002 A 
ENDBRANCH  13  16
BRANCH  12  26
HETATM   26  NBD   D T   1      -0.499  -5.951  18.144  1.00 22.08    -0.344 N 
HETATM   27  CAP   D T   1      -1.576  -6.612  18.988  1.00 30.90     0.127 C 
HETATM   28  CAN   D T   1      -1.188  -7.960  19.670  1.00 24.56     0.144 C 
HETATM   29  NAU   D T   1       0.152  -8.441  19.291  1.00 23.51    -0.291 NA
HETATM   30  CAO   D T   1       0.549  -8.154  17.898  1.00 28.25     0.144 C 
HETATM   31  CAQ   D T   1       0.682  -6.667  17.639  1.00 25.74     0.127 C 
ENDBRANCH  12  26
TORSDOF 2
ENDMDL
MODEL 2
REMARK VINA RESULT:    -9.817      6.004     11.739
REMARK INTER + INTRA:         -10.697
REMARK INTER:                 -10.208
REMARK INTRA:                  -0.489
REMARK UNBOUND:                 0.268
REMARK  2 active torsions:
REMARK  status: ('A' for Active; 'I' for Inactive)
REMARK    1  A    between atoms: CAX_24  and  NBD_30 
REMARK    2  A    between atoms: CAY_25  and  CAZ_26 
ROOT
HETATM    1  CAE   D T   1       3.897   6.239   8.146  1.00 15.33     0.002 A 
HETATM    2  CAF   D T   1       4.479   3.984   8.627  1.00 33.04     0.002 A 
HETATM    3  CAG   D T   1       5.072   6.400   7.412  1.00 21.87     0.017 A 
HETATM    4  CAH   D T   1       5.664   4.160   7.900  1.00 18.39     0.017 A 
HETATM    5  CAK   D T   1       1.811   3.649   9.867  1.00 18.99     0.102 A 
HETATM    6  CAL   D T   1      -1.150   6.196  12.021  1.00 11.90     0.124 A 
HETATM    7  CAM   D T   1       1.738   6.010  10.033  1.00 18.90     0.104 A 
HETATM    8  NAS   D T   1       0.706   3.556  10.593  1.00 18.39    -0.225 NA
HETATM    9  NAT   D T   1      -0.130   6.788  11.371  1.00 12.09    -0.162 NA
HETATM   10  CAV   D T   1       3.563   5.026   8.753  1.00 21.96     0.003 A 
HETATM   11  CAW   D T   1       2.368   4.884   9.529  1.00 19.91     0.038 A 
HETATM   12  CAX   D T   1       5.968   5.353   7.290  1.00 28.57     0.056 A 
HETATM   13  CAZ   D T   1      -1.061   4.861  11.890  1.00 11.86     0.057 A 
HETATM   14  CBC   D T   1       0.078   4.646  11.090  1.00 11.35     0.165 A 
HETATM   15  NBE   D T   1       0.576   5.917  10.806  1.00 13.25    -0.211 N 
ENDROOT
BRANCH  13  16
HETATM   16  CAY   D T   1      -1.939   3.903  12.465  1.00 15.42     0.007 A 
HETATM   17  CAD   D T   1      -3.262   3.863  12.038  1.00 12.05     0.021 A 
HETATM   18  CAC   D T   1      -4.193   3.000  12.609  1.00 20.05     0.099 A 
HETATM   19  NAR   D T   1      -3.873   2.191  13.586  1.00 15.05    -0.244 NA
HETATM   20  CBA   D T   1      -2.596   2.202  14.072  1.00 17.37     0.081 A 
HETATM   21  CAI   D T   1      -2.274   1.361  15.120  1.00 17.61     0.019 A 
HETATM   22  CBB   D T   1      -1.620   3.041  13.538  1.00 11.87     0.018 A 
HETATM   23  CAA   D T   1      -0.984   1.343  15.674  1.00 16.02     0.002 A 
HETATM   24  CAB   D T   1      -0.014   2.159  15.133  1.00 12.08     0.000 A 
HETATM   25  CAJ   D T   1      -0.333   3.014  14.099  1.00 13.82     0.002 A 
ENDBRANCH  13  16
BRANCH  12  26
HETATM   26  NBD   D T   1       7.197   5.483   6.639  1.00 22.08    -0.344 N 
HETATM   27  CAP   D T   1       7.856   6.851   6.593  1.00 30.90     0.127 C 
HETATM   28  CAN   D T   1       9.161   6.961   5.744  1.00 24.56     0.144 C 
HETATM   29  NAU   D T   1       9.612   5.668   5.200  1.00 23.51    -0.291 NA
HETATM   30  CAO   D T   1       9.372   4.502   6.075  1.00 28.25     0.144 C 
HETATM   31  CAQ   D T   1       7.894   4.239   6.278  1.00 25.74     0.127 C 
ENDBRANCH  12  26
TORSDOF 2
ENDMDL
MODEL 3
REMARK VINA RESULT:    -9.807      5.706     11.329
REMARK INTER + INTRA:         -10.685
REMARK INTER:                 -10.414
REMARK INTRA:                  -0.271
REMARK UNBOUND:                 0.268
REMARK  2 active torsions:
REMARK  status: ('A' for Active; 'I' for Inactive)
REMARK    1  A    between atoms: CAX_24  and  NBD_30 
REMARK    2  A    between atoms: CAY_25  and  CAZ_26 
ROOT
HETATM    1  CAE   D T   1       3.449   5.825   8.455  1.00 15.33     0.002 A 
HETATM    2  CAF   D T   1       4.554   3.897   9.302  1.00 33.04     0.002 A 
HETATM    3  CAG   D T   1       4.532   6.094   7.619  1.00 21.87     0.017 A 
HETATM    4  CAH   D T   1       5.643   4.185   8.470  1.00 18.39     0.017 A 
HETATM    5  CAK   D T   1       2.075   3.230  10.778  1.00 18.99     0.102 A 
HETATM    6  CAL   D T   1      -1.333   5.429  12.634  1.00 11.90     0.124 A 
HETATM    7  CAM   D T   1       1.459   5.500  10.507  1.00 18.90     0.104 A 
HETATM    8  NAS   D T   1       1.043   3.039  11.588  1.00 18.39    -0.225 NA
HETATM    9  NAT   D T   1      -0.498   6.093  11.812  1.00 12.09    -0.162 NA
HETATM   10  CAV   D T   1       3.424   4.713   9.300  1.00 21.96     0.003 A 
HETATM   11  CAW   D T   1       2.318   4.465  10.176  1.00 19.91     0.038 A 
HETATM   12  CAX   D T   1       5.643   5.270   7.627  1.00 28.57     0.056 A 
HETATM   13  CAZ   D T   1      -0.940   4.149  12.747  1.00 11.86     0.057 A 
HETATM   14  CBC   D T   1       0.194   4.038  11.919  1.00 11.35     0.165 A 
HETATM   15  NBE   D T   1       0.374   5.306  11.368  1.00 13.25    -0.211 N 
ENDROOT
BRANCH  13  16
HETATM   16  CAY   D T   1      -1.554   3.152  13.554  1.00 15.42     0.007 A 
HETATM   17  CAD   D T   1      -0.796   2.525  14.537  1.00 12.05     0.021 A 
HETATM   18  CAC   D T   1      -1.312   1.491  15.313  1.00 20.05     0.099 A 
HETATM   19  NAR   D T   1      -2.531   1.047  15.148  1.00 15.05    -0.244 NA
HETATM   20  CBA   D T   1      -3.318   1.602  14.178  1.00 17.37     0.081 A 
HETATM   21  CAI   D T   1      -4.596   1.111  13.995  1.00 17.61     0.019 A 
HETATM   22  CBB   D T   1      -2.859   2.642  13.373  1.00 11.87     0.018 A 
HETATM   23  CAA   D T   1      -5.443   1.626  13.000  1.00 16.02     0.002 A 
HETATM   24  CAB   D T   1      -4.995   2.668  12.217  1.00 12.08     0.000 A 
HETATM   25  CAJ   D T   1      -3.714   3.151  12.383  1.00 13.82     0.002 A 
ENDBRANCH  13  16
BRANCH  12  26
HETATM   26  NBD   D T   1       6.788   5.539   6.874  1.00 22.08    -0.344 N 
HETATM   27  CAP   D T   1       7.378   6.939   6.918  1.00 30.90     0.127 C 
HETATM   28  CAN   D T   1       8.578   7.213   5.959  1.00 24.56     0.144 C 
HETATM   29  NAU   D T   1       9.025   6.014   5.228  1.00 23.51    -0.291 NA
HETATM   30  CAO   D T   1       8.931   4.749   5.984  1.00 28.25     0.144 C 
HETATM   31  CAQ   D T   1       7.496   4.383   6.305  1.00 25.74     0.127 C 
ENDBRANCH  12  26
TORSDOF 2
ENDMDL
MODEL 4
REMARK VINA RESULT:    -9.514      6.735      9.047
REMARK INTER + INTRA:         -10.358
REMARK INTER:                  -9.883
REMARK INTRA:                  -0.475
REMARK UNBOUND:                 0.268
REMARK  2 active torsions:
REMARK  status: ('A' for Active; 'I' for Inactive)
REMARK    1  A    between atoms: CAX_24  and  NBD_30 
REMARK    2  A    between atoms: CAY_25  and  CAZ_26 
ROOT
HETATM    1  CAE   D T   1       6.068   1.093  11.500  1.00 15.33     0.002 A 
HETATM    2  CAF   D T   1       4.790  -0.454  10.224  1.00 33.04     0.002 A 
HETATM    3  CAG   D T   1       7.247   0.598  10.946  1.00 21.87     0.017 A 
HETATM    4  CAH   D T   1       5.982  -0.955   9.684  1.00 18.39     0.017 A 
HETATM    5  CAK   D T   1       2.341   0.893  11.200  1.00 18.99     0.102 A 
HETATM    6  CAL   D T   1       1.045   3.110  14.847  1.00 11.90     0.124 A 
HETATM    7  CAM   D T   1       3.675   1.763  12.952  1.00 18.90     0.104 A 
HETATM    8  NAS   D T   1       1.250   1.364  11.788  1.00 18.39    -0.225 NA
HETATM    9  NAT   D T   1       2.356   2.857  14.668  1.00 12.09    -0.162 NA
HETATM   10  CAV   D T   1       4.813   0.596  11.141  1.00 21.96     0.003 A 
HETATM   11  CAW   D T   1       3.612   1.093  11.741  1.00 19.91     0.038 A 
HETATM   12  CAX   D T   1       7.207  -0.439  10.031  1.00 28.57     0.056 A 
HETATM   13  CAZ   D T   1       0.338   2.600  13.825  1.00 11.86     0.057 A 
HETATM   14  CBC   D T   1       1.296   2.023  12.968  1.00 11.35     0.165 A 
HETATM   15  NBE   D T   1       2.527   2.254  13.580  1.00 13.25    -0.211 N 
ENDROOT
BRANCH  13  16
HETATM   16  CAY   D T   1      -1.076   2.639  13.681  1.00 15.42     0.007 A 
HETATM   17  CAD   D T   1      -1.652   3.713  13.012  1.00 12.05     0.021 A 
HETATM   18  CAC   D T   1      -3.033   3.852  12.898  1.00 20.05     0.099 A 
HETATM   19  NAR   D T   1      -3.858   2.987  13.427  1.00 15.05    -0.244 NA
HETATM   20  CBA   D T   1      -3.356   1.924  14.124  1.00 17.37     0.081 A 
HETATM   21  CAI   D T   1      -4.236   1.028  14.701  1.00 17.61     0.019 A 
HETATM   22  CBB   D T   1      -1.983   1.730  14.268  1.00 11.87     0.018 A 
HETATM   23  CAA   D T   1      -3.779  -0.071  15.446  1.00 16.02     0.002 A 
HETATM   24  CAB   D T   1      -2.421  -0.273  15.572  1.00 12.08     0.000 A 
HETATM   25  CAJ   D T   1      -1.537   0.627  15.014  1.00 13.82     0.002 A 
ENDBRANCH  13  16
BRANCH  12  26
HETATM   26  NBD   D T   1       8.359  -1.030   9.508  1.00 22.08    -0.344 N 
HETATM   27  CAP   D T   1       8.872  -0.558   8.158  1.00 30.90     0.127 C 
HETATM   28  CAN   D T   1      10.086  -1.342   7.568  1.00 24.56     0.144 C 
HETATM   29  NAU   D T   1      10.619  -2.366   8.483  1.00 23.51    -0.291 NA
HETATM   30  CAO   D T   1      10.569  -2.010   9.916  1.00 28.25     0.144 C 
HETATM   31  CAQ   D T   1       9.146  -1.874  10.419  1.00 25.74     0.127 C 
ENDBRANCH  12  26
TORSDOF 2
ENDMDL
MODEL 5
REMARK VINA RESULT:    -9.259      6.367      9.204
REMARK INTER + INTRA:         -10.073
REMARK INTER:                  -9.584
REMARK INTRA:                  -0.490
REMARK UNBOUND:                 0.268
REMARK  2 active torsions:
REMARK  status: ('A' for Active; 'I' for Inactive)
REMARK    1  A    between atoms: CAX_24  and  NBD_30 
REMARK    2  A    between atoms: CAY_25  and  CAZ_26 
ROOT
HETATM    1  CAE   D T   1       5.243   2.147  11.158  1.00 15.33     0.002 A 
HETATM    2  CAF   D T   1       4.705  -0.128  10.720  1.00 33.04     0.002 A 
HETATM    3  CAG   D T   1       6.433   2.018  10.443  1.00 21.87     0.017 A 
HETATM    4  CAH   D T   1       5.911  -0.252  10.016  1.00 18.39     0.017 A 
HETATM    5  CAK   D T   1       2.059   0.346  11.961  1.00 18.99     0.102 A 
HETATM    6  CAL   D T   1       0.347   2.966  15.139  1.00 11.90     0.124 A 
HETATM    7  CAM   D T   1       3.031   2.241  12.996  1.00 18.90     0.104 A 
HETATM    8  NAS   D T   1       0.962   0.503  12.688  1.00 18.39    -0.225 NA
HETATM    9  NAT   D T   1       1.583   3.226  14.675  1.00 12.09    -0.162 NA
HETATM   10  CAV   D T   1       4.343   1.088  11.298  1.00 21.96     0.003 A 
HETATM   11  CAW   D T   1       3.139   1.225  12.061  1.00 19.91     0.038 A 
HETATM   12  CAX   D T   1       6.774   0.806   9.869  1.00 28.57     0.056 A 
HETATM   13  CAZ   D T   1      -0.157   1.887  14.516  1.00 11.86     0.057 A 
HETATM   14  CBC   D T   1       0.840   1.492  13.603  1.00 11.35     0.165 A 
HETATM   15  NBE   D T   1       1.879   2.406  13.771  1.00 13.25    -0.211 N 
ENDROOT
BRANCH  13  16
HETATM   16  CAY   D T   1      -1.424   1.291  14.764  1.00 15.42     0.007 A 
HETATM   17  CAD   D T   1      -1.487   0.163  15.575  1.00 12.05     0.021 A 
HETATM   18  CAC   D T   1      -2.683  -0.513  15.801  1.00 20.05     0.099 A 
HETATM   19  NAR   D T   1      -3.806  -0.129  15.250  1.00 15.05    -0.244 NA
HETATM   20  CBA   D T   1      -3.806   0.954  14.418  1.00 17.37     0.081 A 
HETATM   21  CAI   D T   1      -4.991   1.337  13.821  1.00 17.61     0.019 A 
HETATM   22  CBB   D T   1      -2.640   1.674  14.157  1.00 11.87     0.018 A 
HETATM   23  CAA   D T   1      -5.049   2.430  12.940  1.00 16.02     0.002 A 
HETATM   24  CAB   D T   1      -3.900   3.152  12.698  1.00 12.08     0.000 A 
HETATM   25  CAJ   D T   1      -2.710   2.765  13.277  1.00 13.82     0.002 A 
ENDBRANCH  13  16
BRANCH  12  26
HETATM   26  NBD   D T   1       7.991   0.597   9.215  1.00 22.08    -0.344 N 
HETATM   27  CAP   D T   1       9.240   0.373  10.052  1.00 30.90     0.127 C 
HETATM   28  CAN   D T   1      10.586   0.274   9.270  1.00 24.56     0.144 C 
HETATM   29  NAU   D T   1      10.414   0.306   7.807  1.00 23.51    -0.291 NA
HETATM   30  CAO   D T   1       9.194  -0.359   7.306  1.00 28.25     0.144 C 
HETATM   31  CAQ   D T   1       7.933   0.341   7.768  1.00 25.74     0.127 C 
ENDBRANCH  12  26
TORSDOF 2
ENDMDL
MODEL 6
REMARK VINA RESULT:    -9.039      5.394     11.785
REMARK INTER + INTRA:          -9.828
REMARK INTER:                 -10.001
REMARK INTRA:                   0.173
REMARK UNBOUND:                 0.268
REMARK  2 active torsions:
REMARK  status: ('A' for Active; 'I' for Inactive)
REMARK    1  A    between atoms: CAX_24  and  NBD_30 
REMARK    2  A    between atoms: CAY_25  and  CAZ_26 
ROOT
HETATM    1  CAE   D T   1       4.499   5.758  10.348  1.00 15.33     0.002 A 
HETATM    2  CAF   D T   1       3.011   5.305   8.550  1.00 33.04     0.002 A 
HETATM    3  CAG   D T   1       5.433   6.289   9.460  1.00 21.87     0.017 A 
HETATM    4  CAH   D T   1       3.962   5.826   7.663  1.00 18.39     0.017 A 
HETATM    5  CAK   D T   1       0.971   4.518  10.548  1.00 18.99     0.102 A 
HETATM    6  CAL   D T   1       0.898   2.733  14.635  1.00 11.90     0.124 A 
HETATM    7  CAM   D T   1       2.761   4.248  12.074  1.00 18.90     0.104 A 
HETATM    8  NAS   D T   1       0.134   3.981  11.423  1.00 18.39    -0.225 NA
HETATM    9  NAT   D T   1       2.066   3.184  14.140  1.00 12.09    -0.162 NA
HETATM   10  CAV   D T   1       3.261   5.273   9.921  1.00 21.96     0.003 A 
HETATM   11  CAW   D T   1       2.324   4.702  10.841  1.00 19.91     0.038 A 
HETATM   12  CAX   D T   1       5.166   6.321   8.103  1.00 28.57     0.056 A 
HETATM   13  CAZ   D T   1      -0.081   2.915  13.731  1.00 11.86     0.057 A 
HETATM   14  CBC   D T   1       0.545   3.536  12.633  1.00 11.35     0.165 A 
HETATM   15  NBE   D T   1       1.883   3.673  12.998  1.00 13.25    -0.211 N 
ENDROOT
BRANCH  13  16
HETATM   16  CAY   D T   1      -1.442   2.534  13.882  1.00 15.42     0.007 A 
HETATM   17  CAD   D T   1      -2.434   3.404  13.444  1.00 12.05     0.021 A 
HETATM   18  CAC   D T   1      -3.786   3.128  13.626  1.00 20.05     0.099 A 
HETATM   19  NAR   D T   1      -4.192   2.041  14.231  1.00 15.05    -0.244 NA
HETATM   20  CBA   D T   1      -3.266   1.159  14.711  1.00 17.37     0.081 A 
HETATM   21  CAI   D T   1      -3.703   0.026  15.370  1.00 17.61     0.019 A 
HETATM   22  CBB   D T   1      -1.898   1.379  14.555  1.00 11.87     0.018 A 
HETATM   23  CAA   D T   1      -2.798  -0.906  15.904  1.00 16.02     0.002 A 
HETATM   24  CAB   D T   1      -1.446  -0.697  15.732  1.00 12.08     0.000 A 
HETATM   25  CAJ   D T   1      -1.003   0.441  15.091  1.00 13.82     0.002 A 
ENDBRANCH  13  16
BRANCH  12  26
HETATM   26  NBD   D T   1       6.097   6.762   7.160  1.00 22.08    -0.344 N 
HETATM   27  CAP   D T   1       7.300   5.884   6.856  1.00 30.90     0.127 C 
HETATM   28  CAN   D T   1       8.369   6.487   5.893  1.00 24.56     0.144 C 
HETATM   29  NAU   D T   1       7.981   7.795   5.337  1.00 23.51    -0.291 NA
HETATM   30  CAO   D T   1       6.538   7.956   5.065  1.00 28.25     0.144 C 
HETATM   31  CAQ   D T   1       5.712   7.916   6.335  1.00 25.74     0.127 C 
ENDBRANCH  12  26
TORSDOF 2
ENDMDL
MODEL 7
REMARK VINA RESULT:    -8.789      6.604      8.516
REMARK INTER + INTRA:          -9.549
REMARK INTER:                  -9.055
REMARK INTRA:                  -0.494
REMARK UNBOUND:                 0.268
REMARK  2 active torsions:
REMARK  status: ('A' for Active; 'I' for Inactive)
REMARK    1  A    between atoms: CAX_24  and  NBD_30 
REMARK    2  A    between atoms: CAY_25  and  CAZ_26 
ROOT
HETATM    1  CAE   D T   1       6.051   1.002  11.795  1.00 15.33     0.002 A 
HETATM    2  CAF   D T   1       4.773  -0.341  10.306  1.00 33.04     0.002 A 
HETATM    3  CAG   D T   1       7.230   0.428  11.322  1.00 21.87     0.017 A 
HETATM    4  CAH   D T   1       5.963  -0.923   9.849  1.00 18.39     0.017 A 
HETATM    5  CAK   D T   1       2.369   1.178  11.133  1.00 18.99     0.102 A 
HETATM    6  CAL   D T   1       0.923   3.300  14.780  1.00 11.90     0.124 A 
HETATM    7  CAM   D T   1       3.596   1.816  13.056  1.00 18.90     0.104 A 
HETATM    8  NAS   D T   1       1.273   1.717  11.646  1.00 18.39    -0.225 NA
HETATM    9  NAT   D T   1       2.216   2.933  14.709  1.00 12.09    -0.162 NA
HETATM   10  CAV   D T   1       4.799   0.648  11.288  1.00 21.96     0.003 A 
HETATM   11  CAW   D T   1       3.593   1.224  11.804  1.00 19.91     0.038 A 
HETATM   12  CAX   D T   1       7.188  -0.547  10.342  1.00 28.57     0.056 A 
HETATM   13  CAZ   D T   1       0.277   2.919  13.664  1.00 11.86     0.057 A 
HETATM   14  CBC   D T   1       1.260   2.301  12.866  1.00 11.35     0.165 A 
HETATM   15  NBE   D T   1       2.439   2.379  13.604  1.00 13.25    -0.211 N 
ENDROOT
BRANCH  13  16
HETATM   16  CAY   D T   1      -1.106   3.102  13.392  1.00 15.42     0.007 A 
HETATM   17  CAD   D T   1      -2.024   2.235  13.974  1.00 12.05     0.021 A 
HETATM   18  CAC   D T   1      -3.386   2.312  13.693  1.00 20.05     0.099 A 
HETATM   19  NAR   D T   1      -3.868   3.194  12.857  1.00 15.05    -0.244 NA
HETATM   20  CBA   D T   1      -3.014   4.056  12.229  1.00 17.37     0.081 A 
HETATM   21  CAI   D T   1      -3.530   4.969  11.329  1.00 17.61     0.019 A 
HETATM   22  CBB   D T   1      -1.642   4.030  12.472  1.00 11.87     0.018 A 
HETATM   23  CAA   D T   1      -2.699   5.865  10.638  1.00 16.02     0.002 A 
HETATM   24  CAB   D T   1      -1.345   5.852  10.893  1.00 12.08     0.000 A 
HETATM   25  CAJ   D T   1      -0.821   4.932  11.777  1.00 13.82     0.002 A 
ENDBRANCH  13  16
BRANCH  12  26
HETATM   26  NBD   D T   1       8.329  -1.216   9.892  1.00 22.08    -0.344 N 
HETATM   27  CAP   D T   1       9.022  -0.712   8.637  1.00 30.90     0.127 C 
HETATM   28  CAN   D T   1      10.212  -1.573   8.112  1.00 24.56     0.144 C 
HETATM   29  NAU   D T   1      10.549  -2.702   8.997  1.00 23.51    -0.291 NA
HETATM   30  CAO   D T   1      10.382  -2.437  10.441  1.00 28.25     0.144 C 
HETATM   31  CAQ   D T   1       8.934  -2.192  10.810  1.00 25.74     0.127 C 
ENDBRANCH  12  26
TORSDOF 2
ENDMDL
MODEL 8
REMARK VINA RESULT:    -8.387      6.332      7.822
REMARK INTER + INTRA:          -9.099
REMARK INTER:                  -8.722
REMARK INTRA:                  -0.377
REMARK UNBOUND:                 0.268
REMARK  2 active torsions:
REMARK  status: ('A' for Active; 'I' for Inactive)
REMARK    1  A    between atoms: CAX_24  and  NBD_30 
REMARK    2  A    between atoms: CAY_25  and  CAZ_26 
ROOT
HETATM    1  CAE   D T   1       6.281  -0.074  12.922  1.00 15.33     0.002 A 
HETATM    2  CAF   D T   1       5.140  -1.215  11.176  1.00 33.04     0.002 A 
HETATM    3  CAG   D T   1       7.398  -0.889  12.744  1.00 21.87     0.017 A 
HETATM    4  CAH   D T   1       6.262  -2.039  11.014  1.00 18.39     0.017 A 
HETATM    5  CAK   D T   1       2.965   0.782  11.406  1.00 18.99     0.102 A 
HETATM    6  CAL   D T   1       1.168   3.322  14.602  1.00 11.90     0.124 A 
HETATM    7  CAM   D T   1       3.815   1.263  13.564  1.00 18.90     0.104 A 
HETATM    8  NAS   D T   1       1.911   1.548  11.643  1.00 18.39    -0.225 NA
HETATM    9  NAT   D T   1       2.343   2.708  14.839  1.00 12.09    -0.162 NA
HETATM   10  CAV   D T   1       5.136  -0.202  12.133  1.00 21.96     0.003 A 
HETATM   11  CAW   D T   1       3.984   0.622  12.348  1.00 19.91     0.038 A 
HETATM   12  CAX   D T   1       7.389  -1.885  11.784  1.00 28.57     0.056 A 
HETATM   13  CAZ   D T   1       0.736   3.019  13.366  1.00 11.86     0.057 A 
HETATM   14  CBC   D T   1       1.733   2.184  12.824  1.00 11.35     0.165 A 
HETATM   15  NBE   D T   1       2.700   2.067  13.820  1.00 13.25    -0.211 N 
ENDROOT
BRANCH  13  16
HETATM   16  CAY   D T   1      -0.480   3.454  12.772  1.00 15.42     0.007 A 
HETATM   17  CAD   D T   1      -0.438   4.466  11.821  1.00 12.05     0.021 A 
HETATM   18  CAC   D T   1      -1.596   4.990  11.254  1.00 20.05     0.099 A 
HETATM   19  NAR   D T   1      -2.785   4.565  11.597  1.00 15.05    -0.244 NA
HETATM   20  CBA   D T   1      -2.896   3.591  12.549  1.00 17.37     0.081 A 
HETATM   21  CAI   D T   1      -4.156   3.165  12.923  1.00 17.61     0.019 A 
HETATM   22  CBB   D T   1      -1.772   3.025  13.150  1.00 11.87     0.018 A 
HETATM   23  CAA   D T   1      -4.334   2.182  13.911  1.00 16.02     0.002 A 
HETATM   24  CAB   D T   1      -3.222   1.610  14.490  1.00 12.08     0.000 A 
HETATM   25  CAJ   D T   1      -1.962   2.043  14.134  1.00 13.82     0.002 A 
ENDBRANCH  13  16
BRANCH  12  26
HETATM   26  NBD   D T   1       8.446  -2.783  11.619  1.00 22.08    -0.344 N 
HETATM   27  CAP   D T   1       9.836  -2.233  11.345  1.00 30.90     0.127 C 
HETATM   28  CAN   D T   1      10.948  -3.285  11.042  1.00 24.56     0.144 C 
HETATM   29  NAU   D T   1      10.486  -4.677  11.179  1.00 23.51    -0.291 NA
HETATM   30  CAO   D T   1       9.497  -4.905  12.253  1.00 28.25     0.144 C 
HETATM   31  CAQ   D T   1       8.191  -4.184  11.986  1.00 25.74     0.127 C 
ENDBRANCH  12  26
TORSDOF 2
ENDMDL
MODEL 9
REMARK VINA RESULT:    -8.243      8.492     12.274
REMARK INTER + INTRA:          -8.938
REMARK INTER:                  -8.434
REMARK INTRA:                  -0.504
REMARK UNBOUND:                 0.268
REMARK  2 active torsions:
REMARK  status: ('A' for Active; 'I' for Inactive)
REMARK    1  A    between atoms: CAX_24  and  NBD_30 
REMARK    2  A    between atoms: CAY_25  and  CAZ_26 
ROOT
HETATM    1  CAE   D T   1       2.121   5.204  10.156  1.00 15.33     0.002 A 
HETATM    2  CAF   D T   1       2.519   2.898  10.575  1.00 33.04     0.002 A 
HETATM    3  CAG   D T   1       0.943   5.151  10.900  1.00 21.87     0.017 A 
HETATM    4  CAH   D T   1       1.325   2.850  11.309  1.00 18.39     0.017 A 
HETATM    5  CAK   D T   1       5.159   3.203   9.270  1.00 18.99     0.102 A 
HETATM    6  CAL   D T   1       6.960   5.717   6.056  1.00 11.90     0.124 A 
HETATM    7  CAM   D T   1       4.288   5.162   8.264  1.00 18.90     0.104 A 
HETATM    8  NAS   D T   1       6.245   3.290   8.516  1.00 18.39    -0.225 NA
HETATM    9  NAT   D T   1       5.755   6.056   6.552  1.00 12.09    -0.162 NA
HETATM   10  CAV   D T   1       2.946   4.089   9.991  1.00 21.96     0.003 A 
HETATM   11  CAW   D T   1       4.137   4.151   9.199  1.00 19.91     0.038 A 
HETATM   12  CAX   D T   1       0.537   3.962  11.480  1.00 28.57     0.056 A 
HETATM   13  CAZ   D T   1       7.407   4.605   6.664  1.00 11.86     0.057 A 
HETATM   14  CBC   D T   1       6.409   4.272   7.600  1.00 11.35     0.165 A 
HETATM   15  NBE   D T   1       5.429   5.253   7.461  1.00 13.25    -0.211 N 
ENDROOT
BRANCH  13  16
HETATM   16  CAY   D T   1       8.626   3.928   6.383  1.00 15.42     0.007 A 
HETATM   17  CAD   D T   1       9.826   4.534   6.736  1.00 12.05     0.021 A 
HETATM   18  CAC   D T   1      11.057   3.962   6.425  1.00 20.05     0.099 A 
HETATM   19  NAR   D T   1      11.146   2.831   5.774  1.00 15.05    -0.244 NA
HETATM   20  CBA   D T   1      10.003   2.199   5.373  1.00 17.37     0.081 A 
HETATM   21  CAI   D T   1      10.107   1.018   4.664  1.00 17.61     0.019 A 
HETATM   22  CBB   D T   1       8.742   2.721   5.658  1.00 11.87     0.018 A 
HETATM   23  CAA   D T   1       8.969   0.335   4.207  1.00 16.02     0.002 A 
HETATM   24  CAB   D T   1       7.722   0.842   4.506  1.00 12.08     0.000 A 
HETATM   25  CAJ   D T   1       7.611   2.029   5.198  1.00 13.82     0.002 A 
ENDBRANCH  13  16
BRANCH  12  26
HETATM   26  NBD   D T   1      -0.674   3.830  12.164  1.00 22.08    -0.344 N 
HETATM   27  CAP   D T   1      -0.719   2.954  13.405  1.00 30.90     0.127 C 
HETATM   28  CAN   D T   1      -2.124   2.743  14.050  1.00 24.56     0.144 C 
HETATM   29  NAU   D T   1      -3.187   3.530  13.402  1.00 23.51    -0.291 NA
HETATM   30  CAO   D T   1      -2.770   4.859  12.910  1.00 28.25     0.144 C 
HETATM   31  CAQ   D T   1      -1.752   4.758  11.792  1.00 25.74     0.127 C 
ENDBRANCH  12  26
TORSDOF 2
ENDMDL
