MODEL 1
REMARK VINA RESULT:   -10.434      0.000      0.000
REMARK INTER + INTRA:         -11.823
REMARK INTER:                 -11.654
REMARK INTRA:                  -0.168
REMARK UNBOUND:                -0.168
REMARK  2 active torsions:
REMARK  status: ('A' for Active; 'I' for Inactive)
REMARK    1  A    between atoms: CAX_24  and  NBD_30 
REMARK    2  A    between atoms: CAY_25  and  CAZ_26 
ROOT
HETATM    1  CAE   D T   1       8.812   9.881   5.174  1.00 15.33     0.002 A 
HETATM    2  CAF   D T   1       9.621  11.420   3.550  1.00 33.04     0.002 A 
HETATM    3  CAG   D T   1      10.118   9.578   5.557  1.00 21.87     0.017 A 
HETATM    4  CAH   D T   1      10.930  11.097   3.932  1.00 18.39     0.017 A 
HETATM    5  CAK   D T   1       6.819  12.236   3.051  1.00 18.99     0.102 A 
HETATM    6  CAL   D T   1       2.774  10.365   3.224  1.00 11.90     0.124 A 
HETATM    7  CAM   D T   1       6.182  10.185   4.047  1.00 18.90     0.104 A 
HETATM    8  NAS   D T   1       5.563  12.458   2.688  1.00 18.39    -0.225 NA
HETATM    9  NAT   D T   1       3.816   9.719   3.781  1.00 12.09    -0.162 NA
HETATM   10  CAV   D T   1       8.530  10.820   4.177  1.00 21.96     0.003 A 
HETATM   11  CAW   D T   1       7.186  11.100   3.773  1.00 19.91     0.038 A 
HETATM   12  CAX   D T   1      11.189  10.188   4.930  1.00 28.57     0.056 A 
HETATM   13  CAZ   D T   1       3.191  11.522   2.681  1.00 11.86     0.057 A 
HETATM   14  CBC   D T   1       4.572  11.577   2.952  1.00 11.35     0.165 A 
HETATM   15  NBE   D T   1       4.858  10.410   3.659  1.00 13.25    -0.211 N 
ENDROOT
BRANCH  13  16
HETATM   16  CAY   D T   1       2.383  12.455   1.974  1.00 15.42     0.007 A 
HETATM   17  CAD   D T   1       1.189  12.876   2.548  1.00 12.05     0.021 A 
HETATM   18  CAC   D T   1       0.317  13.732   1.882  1.00 20.05     0.099 A 
HETATM   19  NAR   D T   1       0.569  14.173   0.676  1.00 15.05    -0.244 NA
HETATM   20  CBA   D T   1       1.713  13.771   0.045  1.00 17.37     0.081 A 
HETATM   21  CAI   D T   1       1.959  14.221  -1.237  1.00 17.61     0.019 A 
HETATM   22  CBB   D T   1       2.627  12.919   0.663  1.00 11.87     0.018 A 
HETATM   23  CAA   D T   1       3.107  13.826  -1.944  1.00 16.02     0.002 A 
HETATM   24  CAB   D T   1       4.020  12.998  -1.326  1.00 12.08     0.000 A 
HETATM   25  CAJ   D T   1       3.771  12.531  -0.052  1.00 13.82     0.002 A 
ENDBRANCH  13  16
BRANCH  12  26
HETATM   26  NBD   D T   1      12.517   9.862   5.214  1.00 22.08    -0.344 N 
HETATM   27  CAP   D T   1      12.799   8.832   6.297  1.00 30.90     0.127 C 
HETATM   28  CAN   D T   1      14.299   8.605   6.659  1.00 24.56     0.144 C 
HETATM   29  NAU   D T   1      15.227   9.361   5.801  1.00 23.51    -0.291 NA
HETATM   30  CAO   D T   1      14.799   9.507   4.394  1.00 28.25     0.144 C 
HETATM   31  CAQ   D T   1      13.536  10.334   4.266  1.00 25.74     0.127 C 
ENDBRANCH  12  26
TORSDOF 2
ENDMDL
MODEL 2
REMARK VINA RESULT:   -10.374      2.003     10.694
REMARK INTER + INTRA:         -11.755
REMARK INTER:                 -11.345
REMARK INTRA:                  -0.409
REMARK UNBOUND:                -0.168
REMARK  2 active torsions:
REMARK  status: ('A' for Active; 'I' for Inactive)
REMARK    1  A    between atoms: CAX_24  and  NBD_30 
REMARK    2  A    between atoms: CAY_25  and  CAZ_26 
ROOT
HETATM    1  CAE   D T   1       3.602  13.191   0.644  1.00 15.33     0.002 A 
HETATM    2  CAF   D T   1       2.702  11.906   2.432  1.00 33.04     0.002 A 
HETATM    3  CAG   D T   1       2.317  13.485   0.191  1.00 21.87     0.017 A 
HETATM    4  CAH   D T   1       1.415  12.195   1.959  1.00 18.39     0.017 A 
HETATM    5  CAK   D T   1       5.449  11.625   3.501  1.00 18.99     0.102 A 
HETATM    6  CAL   D T   1       9.602  11.469   1.881  1.00 11.90     0.124 A 
HETATM    7  CAM   D T   1       6.210  12.189   1.330  1.00 18.90     0.104 A 
HETATM    8  NAS   D T   1       6.689  11.333   3.867  1.00 18.39    -0.225 NA
HETATM    9  NAT   D T   1       8.601  11.867   1.073  1.00 12.09    -0.162 NA
HETATM   10  CAV   D T   1       3.827  12.412   1.782  1.00 21.96     0.003 A 
HETATM   11  CAW   D T   1       5.152  12.093   2.220  1.00 19.91     0.038 A 
HETATM   12  CAX   D T   1       1.211  12.981   0.851  1.00 28.57     0.056 A 
HETATM   13  CAZ   D T   1       9.115  11.168   3.097  1.00 11.86     0.057 A 
HETATM   14  CBC   D T   1       7.732  11.425   3.013  1.00 11.35     0.165 A 
HETATM   15  NBE   D T   1       7.518  11.873   1.710  1.00 13.25    -0.211 N 
ENDROOT
BRANCH  13  16
HETATM   16  CAY   D T   1       9.864  10.680   4.203  1.00 15.42     0.007 A 
HETATM   17  CAD   D T   1       9.671   9.367   4.616  1.00 12.05     0.021 A 
HETATM   18  CAC   D T   1      10.318   8.845   5.732  1.00 20.05     0.099 A 
HETATM   19  NAR   D T   1      11.130   9.570   6.459  1.00 15.05    -0.244 NA
HETATM   20  CBA   D T   1      11.339  10.877   6.123  1.00 17.37     0.081 A 
HETATM   21  CAI   D T   1      12.179  11.641   6.911  1.00 17.61     0.019 A 
HETATM   22  CBB   D T   1      10.723  11.454   5.013  1.00 11.87     0.018 A 
HETATM   23  CAA   D T   1      12.416  12.996   6.627  1.00 16.02     0.002 A 
HETATM   24  CAB   D T   1      11.822  13.561   5.518  1.00 12.08     0.000 A 
HETATM   25  CAJ   D T   1      10.968  12.809   4.739  1.00 13.82     0.002 A 
ENDBRANCH  13  16
BRANCH  12  26
HETATM   26  NBD   D T   1      -0.095  13.173   0.393  1.00 22.08    -0.344 N 
HETATM   27  CAP   D T   1      -1.119  13.775   1.342  1.00 30.90     0.127 C 
HETATM   28  CAN   D T   1      -2.586  13.845   0.819  1.00 24.56     0.144 C 
HETATM   29  NAU   D T   1      -2.729  13.408  -0.581  1.00 23.51    -0.291 NA
HETATM   30  CAO   D T   1      -1.591  13.749  -1.460  1.00 28.25     0.144 C 
HETATM   31  CAQ   D T   1      -0.321  13.032  -1.053  1.00 25.74     0.127 C 
ENDBRANCH  12  26
TORSDOF 2
ENDMDL
MODEL 3
REMARK VINA RESULT:   -10.008      1.927      3.349
REMARK INTER + INTRA:         -11.347
REMARK INTER:                 -11.545
REMARK INTRA:                   0.198
REMARK UNBOUND:                -0.168
REMARK  2 active torsions:
REMARK  status: ('A' for Active; 'I' for Inactive)
REMARK    1  A    between atoms: CAX_24  and  NBD_30 
REMARK    2  A    between atoms: CAY_25  and  CAZ_26 
ROOT
HETATM    1  CAE   D T   1       7.968  10.883   1.864  1.00 15.33     0.002 A 
HETATM    2  CAF   D T   1       7.283  10.950   4.141  1.00 33.04     0.002 A 
HETATM    3  CAG   D T   1       9.213  10.380   2.239  1.00 21.87     0.017 A 
HETATM    4  CAH   D T   1       8.543  10.459   4.509  1.00 18.39     0.017 A 
HETATM    5  CAK   D T   1       4.570  11.688   3.215  1.00 18.99     0.102 A 
HETATM    6  CAL   D T   1       2.755  13.878  -0.221  1.00 11.90     0.124 A 
HETATM    7  CAM   D T   1       5.584  12.341   1.178  1.00 18.90     0.104 A 
HETATM    8  NAS   D T   1       3.417  12.208   2.816  1.00 18.39    -0.225 NA
HETATM    9  NAT   D T   1       4.053  13.527  -0.283  1.00 12.09    -0.162 NA
HETATM   10  CAV   D T   1       6.968  11.162   2.800  1.00 21.96     0.003 A 
HETATM   11  CAW   D T   1       5.704  11.706   2.403  1.00 19.91     0.038 A 
HETATM   12  CAX   D T   1       9.508  10.169   3.574  1.00 28.57     0.056 A 
HETATM   13  CAZ   D T   1       2.230  13.479   0.951  1.00 11.86     0.057 A 
HETATM   14  CBC   D T   1       3.283  12.827   1.622  1.00 11.35     0.165 A 
HETATM   15  NBE   D T   1       4.374  12.898   0.756  1.00 13.25    -0.211 N 
ENDROOT
BRANCH  13  16
HETATM   16  CAY   D T   1       0.896  13.702   1.391  1.00 15.42     0.007 A 
HETATM   17  CAD   D T   1       0.663  13.911   2.745  1.00 12.05     0.021 A 
HETATM   18  CAC   D T   1      -0.623  14.065   3.253  1.00 20.05     0.099 A 
HETATM   19  NAR   D T   1      -1.681  14.007   2.484  1.00 15.05    -0.244 NA
HETATM   20  CBA   D T   1      -1.520  13.774   1.147  1.00 17.37     0.081 A 
HETATM   21  CAI   D T   1      -2.643  13.689   0.347  1.00 17.61     0.019 A 
HETATM   22  CBB   D T   1      -0.257  13.616   0.579  1.00 11.87     0.018 A 
HETATM   23  CAA   D T   1      -2.543  13.432  -1.030  1.00 16.02     0.002 A 
HETATM   24  CAB   D T   1      -1.292  13.295  -1.595  1.00 12.08     0.000 A 
HETATM   25  CAJ   D T   1      -0.168  13.360  -0.798  1.00 13.82     0.002 A 
ENDBRANCH  13  16
BRANCH  12  26
HETATM   26  NBD   D T   1      10.765   9.748   4.013  1.00 22.08    -0.344 N 
HETATM   27  CAP   D T   1      12.001  10.278   3.303  1.00 30.90     0.127 C 
HETATM   28  CAN   D T   1      13.366   9.674   3.751  1.00 24.56     0.144 C 
HETATM   29  NAU   D T   1      13.249   8.746   4.889  1.00 23.51    -0.291 NA
HETATM   30  CAO   D T   1      12.213   9.103   5.881  1.00 28.25     0.144 C 
HETATM   31  CAQ   D T   1      10.818   9.035   5.297  1.00 25.74     0.127 C 
ENDBRANCH  12  26
TORSDOF 2
ENDMDL
MODEL 4
REMARK VINA RESULT:    -9.872      5.023      9.654
REMARK INTER + INTRA:         -11.194
REMARK INTER:                 -10.993
REMARK INTRA:                  -0.202
REMARK UNBOUND:                -0.168
REMARK  2 active torsions:
REMARK  status: ('A' for Active; 'I' for Inactive)
REMARK    1  A    between atoms: CAX_24  and  NBD_30 
REMARK    2  A    between atoms: CAY_25  and  CAZ_26 
ROOT
HETATM    1  CAE   D T   1       5.096  15.390  -4.551  1.00 15.33     0.002 A 
HETATM    2  CAF   D T   1       7.103  14.242  -3.992  1.00 33.04     0.002 A 
HETATM    3  CAG   D T   1       5.720  15.971  -5.654  1.00 21.87     0.017 A 
HETATM    4  CAH   D T   1       7.725  14.843  -5.095  1.00 18.39     0.017 A 
HETATM    5  CAK   D T   1       5.596  12.807  -1.886  1.00 18.99     0.102 A 
HETATM    6  CAL   D T   1       2.106  13.603   0.774  1.00 11.90     0.124 A 
HETATM    7  CAM   D T   1       3.995  14.545  -2.030  1.00 18.90     0.104 A 
HETATM    8  NAS   D T   1       4.976  12.315  -0.822  1.00 18.39    -0.225 NA
HETATM    9  NAT   D T   1       2.344  14.435  -0.257  1.00 12.09    -0.162 NA
HETATM   10  CAV   D T   1       5.764  14.499  -3.705  1.00 21.96     0.003 A 
HETATM   11  CAW   D T   1       5.120  13.933  -2.559  1.00 19.91     0.038 A 
HETATM   12  CAX   D T   1       7.048  15.699  -5.929  1.00 28.57     0.056 A 
HETATM   13  CAZ   D T   1       3.039  12.635   0.804  1.00 11.86     0.057 A 
HETATM   14  CBC   D T   1       3.876  12.898  -0.297  1.00 11.35     0.165 A 
HETATM   15  NBE   D T   1       3.343  14.036  -0.904  1.00 13.25    -0.211 N 
ENDROOT
BRANCH  13  16
HETATM   16  CAY   D T   1       3.136  11.595   1.770  1.00 15.42     0.007 A 
HETATM   17  CAD   D T   1       2.010  10.830   2.046  1.00 12.05     0.021 A 
HETATM   18  CAC   D T   1       2.015   9.844   3.028  1.00 20.05     0.099 A 
HETATM   19  NAR   D T   1       3.077   9.597   3.753  1.00 15.05    -0.244 NA
HETATM   20  CBA   D T   1       4.208  10.336   3.550  1.00 17.37     0.081 A 
HETATM   21  CAI   D T   1       5.316  10.086   4.336  1.00 17.61     0.019 A 
HETATM   22  CBB   D T   1       4.265  11.334   2.577  1.00 11.87     0.018 A 
HETATM   23  CAA   D T   1       6.501  10.827   4.188  1.00 16.02     0.002 A 
HETATM   24  CAB   D T   1       6.562  11.800   3.213  1.00 12.08     0.000 A 
HETATM   25  CAJ   D T   1       5.453  12.067   2.439  1.00 13.82     0.002 A 
ENDBRANCH  13  16
BRANCH  12  26
HETATM   26  NBD   D T   1       7.746  16.317  -6.970  1.00 22.08    -0.344 N 
HETATM   27  CAP   D T   1       7.391  17.750  -7.336  1.00 30.90     0.127 C 
HETATM   28  CAN   D T   1       8.112  18.340  -8.586  1.00 24.56     0.144 C 
HETATM   29  NAU   D T   1       9.122  17.435  -9.160  1.00 23.51    -0.291 NA
HETATM   30  CAO   D T   1       9.859  16.616  -8.174  1.00 28.25     0.144 C 
HETATM   31  CAQ   D T   1       8.954  15.636  -7.458  1.00 25.74     0.127 C 
ENDBRANCH  12  26
TORSDOF 2
ENDMDL
MODEL 5
REMARK VINA RESULT:    -9.761      2.928      4.365
REMARK INTER + INTRA:         -11.070
REMARK INTER:                 -10.589
REMARK INTRA:                  -0.481
REMARK UNBOUND:                -0.168
REMARK  2 active torsions:
REMARK  status: ('A' for Active; 'I' for Inactive)
REMARK    1  A    between atoms: CAX_24  and  NBD_30 
REMARK    2  A    between atoms: CAY_25  and  CAZ_26 
ROOT
HETATM    1  CAE   D T   1       7.075  11.442   3.153  1.00 15.33     0.002 A 
HETATM    2  CAF   D T   1       8.917  12.695   2.319  1.00 33.04     0.002 A 
HETATM    3  CAG   D T   1       7.922  10.744   4.013  1.00 21.87     0.017 A 
HETATM    4  CAH   D T   1       9.762  11.977   3.176  1.00 18.39     0.017 A 
HETATM    5  CAK   D T   1       6.993  14.344   0.788  1.00 18.99     0.102 A 
HETATM    6  CAL   D T   1       3.001  13.802  -1.127  1.00 11.90     0.124 A 
HETATM    7  CAM   D T   1       5.454  12.565   1.059  1.00 18.90     0.104 A 
HETATM    8  NAS   D T   1       6.157  14.948  -0.046  1.00 18.39    -0.225 NA
HETATM    9  NAT   D T   1       3.454  12.855  -0.284  1.00 12.09    -0.162 NA
HETATM   10  CAV   D T   1       7.546  12.444   2.301  1.00 21.96     0.003 A 
HETATM   11  CAW   D T   1       6.670  13.133   1.402  1.00 19.91     0.038 A 
HETATM   12  CAX   D T   1       9.280  11.010   4.024  1.00 28.57     0.056 A 
HETATM   13  CAZ   D T   1       3.909  14.787  -1.238  1.00 11.86     0.057 A 
HETATM   14  CBC   D T   1       4.966  14.409  -0.387  1.00 11.35     0.165 A 
HETATM   15  NBE   D T   1       4.573  13.194   0.174  1.00 13.25    -0.211 N 
ENDROOT
BRANCH  13  16
HETATM   16  CAY   D T   1       3.798  15.939  -2.064  1.00 15.42     0.007 A 
HETATM   17  CAD   D T   1       2.817  16.880  -1.774  1.00 12.05     0.021 A 
HETATM   18  CAC   D T   1       2.606  17.994  -2.581  1.00 20.05     0.099 A 
HETATM   19  NAR   D T   1       3.312  18.206  -3.663  1.00 15.05    -0.244 NA
HETATM   20  CBA   D T   1       4.272  17.302  -4.019  1.00 17.37     0.081 A 
HETATM   21  CAI   D T   1       4.996  17.520  -5.176  1.00 17.61     0.019 A 
HETATM   22  CBB   D T   1       4.533  16.169  -3.248  1.00 11.87     0.018 A 
HETATM   23  CAA   D T   1       5.982  16.616  -5.605  1.00 16.02     0.002 A 
HETATM   24  CAB   D T   1       6.252  15.506  -4.832  1.00 12.08     0.000 A 
HETATM   25  CAJ   D T   1       5.521  15.273  -3.686  1.00 13.82     0.002 A 
ENDBRANCH  13  16
BRANCH  12  26
HETATM   26  NBD   D T   1      10.186  10.284   4.802  1.00 22.08    -0.344 N 
HETATM   27  CAP   D T   1       9.671   9.561   6.037  1.00 30.90     0.127 C 
HETATM   28  CAN   D T   1      10.747   8.879   6.935  1.00 24.56     0.144 C 
HETATM   29  NAU   D T   1      12.108   8.952   6.374  1.00 23.51    -0.291 NA
HETATM   30  CAO   D T   1      12.181   8.866   4.900  1.00 28.25     0.144 C 
HETATM   31  CAQ   D T   1      11.518  10.049   4.227  1.00 25.74     0.127 C 
ENDBRANCH  12  26
TORSDOF 2
ENDMDL
MODEL 6
REMARK VINA RESULT:    -9.611      1.292      2.256
REMARK INTER + INTRA:         -10.903
REMARK INTER:                 -11.522
REMARK INTRA:                   0.619
REMARK UNBOUND:                -0.168
REMARK  2 active torsions:
REMARK  status: ('A' for Active; 'I' for Inactive)
REMARK    1  A    between atoms: CAX_24  and  NBD_30 
REMARK    2  A    between atoms: CAY_25  and  CAZ_26 
ROOT
HETATM    1  CAE   D T   1       9.631  10.067   5.603  1.00 15.33     0.002 A 
HETATM    2  CAF   D T   1      10.781  10.470   3.560  1.00 33.04     0.002 A 
HETATM    3  CAG   D T   1      10.805   9.592   6.186  1.00 21.87     0.017 A 
HETATM    4  CAH   D T   1      11.952   9.976   4.150  1.00 18.39     0.017 A 
HETATM    5  CAK   D T   1       8.328  11.770   2.533  1.00 18.99     0.102 A 
HETATM    6  CAL   D T   1       3.922  11.405   3.131  1.00 11.90     0.124 A 
HETATM    7  CAM   D T   1       7.159  10.613   4.236  1.00 18.90     0.104 A 
HETATM    8  NAS   D T   1       7.178  12.170   2.007  1.00 18.39    -0.225 NA
HETATM    9  NAT   D T   1       4.751  10.784   3.991  1.00 12.09    -0.162 NA
HETATM   10  CAV   D T   1       9.593  10.534   4.286  1.00 21.96     0.003 A 
HETATM   11  CAW   D T   1       8.374  10.993   3.691  1.00 19.91     0.038 A 
HETATM   12  CAX   D T   1      11.977   9.541   5.454  1.00 28.57     0.056 A 
HETATM   13  CAZ   D T   1       4.638  12.049   2.191  1.00 11.86     0.057 A 
HETATM   14  CBC   D T   1       5.984  11.812   2.529  1.00 11.35     0.165 A 
HETATM   15  NBE   D T   1       5.944  11.025   3.680  1.00 13.25    -0.211 N 
ENDROOT
BRANCH  13  16
HETATM   16  CAY   D T   1       4.110  12.786   1.096  1.00 15.42     0.007 A 
HETATM   17  CAD   D T   1       4.991  13.321   0.163  1.00 12.05     0.021 A 
HETATM   18  CAC   D T   1       4.549  14.112  -0.894  1.00 20.05     0.099 A 
HETATM   19  NAR   D T   1       3.283  14.404  -1.055  1.00 15.05    -0.244 NA
HETATM   20  CBA   D T   1       2.371  13.932  -0.154  1.00 17.37     0.081 A 
HETATM   21  CAI   D T   1       1.040  14.266  -0.318  1.00 17.61     0.019 A 
HETATM   22  CBB   D T   1       2.752  13.131   0.922  1.00 11.87     0.018 A 
HETATM   23  CAA   D T   1       0.059  13.828   0.587  1.00 16.02     0.002 A 
HETATM   24  CAB   D T   1       0.434  13.020   1.640  1.00 12.08     0.000 A 
HETATM   25  CAJ   D T   1       1.763  12.699   1.819  1.00 13.82     0.002 A 
ENDBRANCH  13  16
BRANCH  12  26
HETATM   26  NBD   D T   1      13.161   8.997   5.959  1.00 22.08    -0.344 N 
HETATM   27  CAP   D T   1      13.446   9.126   7.447  1.00 30.90     0.127 C 
HETATM   28  CAN   D T   1      14.838   8.615   7.928  1.00 24.56     0.144 C 
HETATM   29  NAU   D T   1      15.628   7.977   6.861  1.00 23.51    -0.291 NA
HETATM   30  CAO   D T   1      14.838   7.213   5.872  1.00 28.25     0.144 C 
HETATM   31  CAQ   D T   1      13.917   8.105   5.067  1.00 25.74     0.127 C 
ENDBRANCH  12  26
TORSDOF 2
ENDMDL
MODEL 7
REMARK VINA RESULT:    -9.553      1.785     10.805
REMARK INTER + INTRA:         -10.838
REMARK INTER:                 -10.445
REMARK INTRA:                  -0.394
REMARK UNBOUND:                -0.168
REMARK  2 active torsions:
REMARK  status: ('A' for Active; 'I' for Inactive)
REMARK    1  A    between atoms: CAX_24  and  NBD_30 
REMARK    2  A    between atoms: CAY_25  and  CAZ_26 
ROOT
HETATM    1  CAE   D T   1       5.777  11.096   3.465  1.00 15.33     0.002 A 
HETATM    2  CAF   D T   1       6.805  12.245   1.653  1.00 33.04     0.002 A 
HETATM    3  CAG   D T   1       4.519  11.518   3.036  1.00 21.87     0.017 A 
HETATM    4  CAH   D T   1       5.538  12.676   1.239  1.00 18.39     0.017 A 
HETATM    5  CAK   D T   1       9.381  11.021   2.450  1.00 18.99     0.102 A 
HETATM    6  CAL   D T   1      11.323   9.613   6.211  1.00 11.90     0.124 A 
HETATM    7  CAM   D T   1       8.395  10.640   4.569  1.00 18.90     0.104 A 
HETATM    8  NAS   D T   1      10.559  10.636   2.921  1.00 18.39    -0.225 NA
HETATM    9  NAT   D T   1      10.006   9.890   6.221  1.00 12.09    -0.162 NA
HETATM   10  CAV   D T   1       6.946  11.432   2.777  1.00 21.96     0.003 A 
HETATM   11  CAW   D T   1       8.234  11.017   3.245  1.00 19.91     0.038 A 
HETATM   12  CAX   D T   1       4.396  12.318   1.915  1.00 28.57     0.056 A 
HETATM   13  CAZ   D T   1      11.828   9.841   4.985  1.00 11.86     0.057 A 
HETATM   14  CBC   D T   1      10.731  10.262   4.209  1.00 11.35     0.165 A 
HETATM   15  NBE   D T   1       9.637  10.242   5.073  1.00 13.25    -0.211 N 
ENDROOT
BRANCH  13  16
HETATM   16  CAY   D T   1      13.189   9.694   4.600  1.00 15.42     0.007 A 
HETATM   17  CAD   D T   1      13.913  10.828   4.251  1.00 12.05     0.021 A 
HETATM   18  CAC   D T   1      15.226  10.750   3.797  1.00 20.05     0.099 A 
HETATM   19  NAR   D T   1      15.842   9.603   3.660  1.00 15.05    -0.244 NA
HETATM   20  CBA   D T   1      15.174   8.449   3.958  1.00 17.37     0.081 A 
HETATM   21  CAI   D T   1      15.823   7.241   3.788  1.00 17.61     0.019 A 
HETATM   22  CBB   D T   1      13.859   8.463   4.422  1.00 11.87     0.018 A 
HETATM   23  CAA   D T   1      15.183   6.021   4.058  1.00 16.02     0.002 A 
HETATM   24  CAB   D T   1      13.888   6.037   4.535  1.00 12.08     0.000 A 
HETATM   25  CAJ   D T   1      13.229   7.238   4.689  1.00 13.82     0.002 A 
ENDBRANCH  13  16
BRANCH  12  26
HETATM   26  NBD   D T   1       3.171  12.838   1.489  1.00 22.08    -0.344 N 
HETATM   27  CAP   D T   1       3.071  13.409   0.083  1.00 30.90     0.127 C 
HETATM   28  CAN   D T   1       1.719  14.091  -0.289  1.00 24.56     0.144 C 
HETATM   29  NAU   D T   1       0.696  13.975   0.765  1.00 23.51    -0.291 NA
HETATM   30  CAO   D T   1       0.724  12.708   1.526  1.00 28.25     0.144 C 
HETATM   31  CAQ   D T   1       1.999  12.554   2.329  1.00 25.74     0.127 C 
ENDBRANCH  12  26
TORSDOF 2
ENDMDL
MODEL 8
REMARK VINA RESULT:    -9.498      3.089      4.770
REMARK INTER + INTRA:         -10.776
REMARK INTER:                 -10.370
REMARK INTRA:                  -0.406
REMARK UNBOUND:                -0.168
REMARK  2 active torsions:
REMARK  status: ('A' for Active; 'I' for Inactive)
REMARK    1  A    between atoms: CAX_24  and  NBD_30 
REMARK    2  A    between atoms: CAY_25  and  CAZ_26 
ROOT
HETATM    1  CAE   D T   1       7.269  11.589   2.950  1.00 15.33     0.002 A 
HETATM    2  CAF   D T   1       9.213  12.416   1.856  1.00 33.04     0.002 A 
HETATM    3  CAG   D T   1       8.061  10.936   3.893  1.00 21.87     0.017 A 
HETATM    4  CAH   D T   1      10.000  11.743   2.799  1.00 18.39     0.017 A 
HETATM    5  CAK   D T   1       7.443  14.032   0.118  1.00 18.99     0.102 A 
HETATM    6  CAL   D T   1       3.319  13.733  -1.555  1.00 11.90     0.124 A 
HETATM    7  CAM   D T   1       5.700  12.555   0.740  1.00 18.90     0.104 A 
HETATM    8  NAS   D T   1       6.651  14.597  -0.783  1.00 18.39    -0.225 NA
HETATM    9  NAT   D T   1       3.688  12.888  -0.574  1.00 12.09    -0.162 NA
HETATM   10  CAV   D T   1       7.822  12.358   1.922  1.00 21.96     0.003 A 
HETATM   11  CAW   D T   1       6.997  12.999   0.943  1.00 19.91     0.038 A 
HETATM   12  CAX   D T   1       9.441  11.009   3.818  1.00 28.57     0.056 A 
HETATM   13  CAZ   D T   1       4.342  14.549  -1.863  1.00 11.86     0.057 A 
HETATM   14  CBC   D T   1       5.383  14.178  -0.990  1.00 11.35     0.165 A 
HETATM   15  NBE   D T   1       4.865  13.142  -0.215  1.00 13.25    -0.211 N 
ENDROOT
BRANCH  13  16
HETATM   16  CAY   D T   1       4.340  15.550  -2.874  1.00 15.42     0.007 A 
HETATM   17  CAD   D T   1       5.147  15.374  -3.992  1.00 12.05     0.021 A 
HETATM   18  CAC   D T   1       5.248  16.345  -4.984  1.00 20.05     0.099 A 
HETATM   19  NAR   D T   1       4.598  17.479  -4.908  1.00 15.05    -0.244 NA
HETATM   20  CBA   D T   1       3.811  17.724  -3.819  1.00 17.37     0.081 A 
HETATM   21  CAI   D T   1       3.148  18.934  -3.736  1.00 17.61     0.019 A 
HETATM   22  CBB   D T   1       3.666  16.789  -2.796  1.00 11.87     0.018 A 
HETATM   23  CAA   D T   1       2.341  19.252  -2.632  1.00 16.02     0.002 A 
HETATM   24  CAB   D T   1       2.184  18.318  -1.628  1.00 12.08     0.000 A 
HETATM   25  CAJ   D T   1       2.857  17.117  -1.697  1.00 13.82     0.002 A 
ENDBRANCH  13  16
BRANCH  12  26
HETATM   26  NBD   D T   1      10.283  10.307   4.683  1.00 22.08    -0.344 N 
HETATM   27  CAP   D T   1       9.666   9.561   5.856  1.00 30.90     0.127 C 
HETATM   28  CAN   D T   1      10.665   8.907   6.858  1.00 24.56     0.144 C 
HETATM   29  NAU   D T   1      12.073   9.025   6.442  1.00 23.51    -0.291 NA
HETATM   30  CAO   D T   1      12.301   8.950   4.984  1.00 28.25     0.144 C 
HETATM   31  CAQ   D T   1      11.674  10.117   4.248  1.00 25.74     0.127 C 
ENDBRANCH  12  26
TORSDOF 2
ENDMDL
MODEL 9
REMARK VINA RESULT:    -9.453      7.150     11.381
REMARK INTER + INTRA:         -10.727
REMARK INTER:                 -10.196
REMARK INTRA:                  -0.531
REMARK UNBOUND:                -0.168
REMARK  2 active torsions:
REMARK  status: ('A' for Active; 'I' for Inactive)
REMARK    1  A    between atoms: CAX_24  and  NBD_30 
REMARK    2  A    between atoms: CAY_25  and  CAZ_26 
ROOT
HETATM    1  CAE   D T   1       3.718  14.957  -2.222  1.00 15.33     0.002 A 
HETATM    2  CAF   D T   1       5.768  14.566  -1.081  1.00 33.04     0.002 A 
HETATM    3  CAG   D T   1       3.021  14.258  -1.237  1.00 21.87     0.017 A 
HETATM    4  CAH   D T   1       5.061  13.853  -0.104  1.00 18.39     0.017 A 
HETATM    5  CAK   D T   1       7.098  16.348  -3.036  1.00 18.99     0.102 A 
HETATM    6  CAL   D T   1       6.559  17.520  -7.307  1.00 11.90     0.124 A 
HETATM    7  CAM   D T   1       5.232  15.977  -4.446  1.00 18.90     0.104 A 
HETATM    8  NAS   D T   1       7.724  16.980  -4.020  1.00 18.39    -0.225 NA
HETATM    9  NAT   D T   1       5.571  16.850  -6.684  1.00 12.09    -0.162 NA
HETATM   10  CAV   D T   1       5.101  15.144  -2.160  1.00 21.96     0.003 A 
HETATM   11  CAW   D T   1       5.809  15.838  -3.194  1.00 19.91     0.038 A 
HETATM   12  CAX   D T   1       3.697  13.697  -0.168  1.00 28.57     0.056 A 
HETATM   13  CAZ   D T   1       7.587  17.707  -6.461  1.00 11.86     0.057 A 
HETATM   14  CBC   D T   1       7.173  17.127  -5.245  1.00 11.35     0.165 A 
HETATM   15  NBE   D T   1       5.891  16.635  -5.489  1.00 13.25    -0.211 N 
ENDROOT
BRANCH  13  16
HETATM   16  CAY   D T   1       8.821  18.343  -6.769  1.00 15.42     0.007 A 
HETATM   17  CAD   D T   1       8.860  19.730  -6.841  1.00 12.05     0.021 A 
HETATM   18  CAC   D T   1      10.015  20.414  -7.207  1.00 20.05     0.099 A 
HETATM   19  NAR   D T   1      11.120  19.785  -7.517  1.00 15.05    -0.244 NA
HETATM   20  CBA   D T   1      11.138  18.420  -7.496  1.00 17.37     0.081 A 
HETATM   21  CAI   D T   1      12.301  17.764  -7.849  1.00 17.61     0.019 A 
HETATM   22  CBB   D T   1      10.014  17.679  -7.132  1.00 11.87     0.018 A 
HETATM   23  CAA   D T   1      12.375  16.361  -7.865  1.00 16.02     0.002 A 
HETATM   24  CAB   D T   1      11.268  15.630  -7.488  1.00 12.08     0.000 A 
HETATM   25  CAJ   D T   1      10.099  16.279  -7.152  1.00 13.82     0.002 A 
ENDBRANCH  13  16
BRANCH  12  26
HETATM   26  NBD   D T   1       3.062  12.916   0.801  1.00 22.08    -0.344 N 
HETATM   27  CAP   D T   1       3.918  12.193   1.829  1.00 30.90     0.127 C 
HETATM   28  CAN   D T   1       3.164  11.236   2.802  1.00 24.56     0.144 C 
HETATM   29  NAU   D T   1       1.700  11.270   2.638  1.00 23.51    -0.291 NA
HETATM   30  CAO   D T   1       1.142  12.592   2.288  1.00 28.25     0.144 C 
HETATM   31  CAQ   D T   1       1.605  13.064   0.925  1.00 25.74     0.127 C 
ENDBRANCH  12  26
TORSDOF 2
ENDMDL
