MODEL 1
REMARK VINA RESULT:    -9.669      0.000      0.000
REMARK INTER + INTRA:         -11.069
REMARK INTER:                 -10.800
REMARK INTRA:                  -0.270
REMARK UNBOUND:                -0.270
REMARK  2 active torsions:
REMARK  status: ('A' for Active; 'I' for Inactive)
REMARK    1  A    between atoms: CAX_24  and  NBD_30 
REMARK    2  A    between atoms: CAY_25  and  CAZ_26 
ROOT
HETATM    1  CAE   D T   1       0.751   3.788 -11.455  1.00 15.33     0.002 A 
HETATM    2  CAF   D T   1       0.848   2.626  -9.383  1.00 33.04     0.002 A 
HETATM    3  CAG   D T   1       1.757   4.655 -11.033  1.00 21.87     0.017 A 
HETATM    4  CAH   D T   1       1.850   3.512  -8.961  1.00 18.39     0.017 A 
HETATM    5  CAK   D T   1      -1.042   0.642 -10.503  1.00 18.99     0.102 A 
HETATM    6  CAL   D T   1      -4.366   0.590 -13.478  1.00 11.90     0.124 A 
HETATM    7  CAM   D T   1      -1.618   2.290 -12.103  1.00 18.90     0.104 A 
HETATM    8  NAS   D T   1      -2.033  -0.129 -10.929  1.00 18.39    -0.225 NA
HETATM    9  NAT   D T   1      -3.556   1.664 -13.422  1.00 12.09    -0.162 NA
HETATM   10  CAV   D T   1       0.286   2.744 -10.652  1.00 21.96     0.003 A 
HETATM   11  CAW   D T   1      -0.770   1.880 -11.088  1.00 19.91     0.038 A 
HETATM   12  CAX   D T   1       2.311   4.520  -9.772  1.00 28.57     0.056 A 
HETATM   13  CAZ   D T   1      -3.990  -0.312 -12.554  1.00 11.86     0.057 A 
HETATM   14  CBC   D T   1      -2.868   0.256 -11.921  1.00 11.35     0.165 A 
HETATM   15  NBE   D T   1      -2.670   1.484 -12.550  1.00 13.25    -0.211 N 
ENDROOT
BRANCH  13  16
HETATM   16  CAY   D T   1      -4.627  -1.556 -12.291  1.00 15.42     0.007 A 
HETATM   17  CAD   D T   1      -5.947  -1.554 -11.855  1.00 12.05     0.021 A 
HETATM   18  CAC   D T   1      -6.609  -2.730 -11.511  1.00 20.05     0.099 A 
HETATM   19  NAR   D T   1      -6.016  -3.896 -11.568  1.00 15.05    -0.244 NA
HETATM   20  CBA   D T   1      -4.709  -3.962 -11.961  1.00 17.37     0.081 A 
HETATM   21  CAI   D T   1      -4.086  -5.194 -11.996  1.00 17.61     0.019 A 
HETATM   22  CBB   D T   1      -3.997  -2.819 -12.323  1.00 11.87     0.018 A 
HETATM   23  CAA   D T   1      -2.739  -5.323 -12.372  1.00 16.02     0.002 A 
HETATM   24  CAB   D T   1      -2.040  -4.194 -12.747  1.00 12.08     0.000 A 
HETATM   25  CAJ   D T   1      -2.651  -2.960 -12.697  1.00 13.82     0.002 A 
ENDBRANCH  13  16
BRANCH  12  26
HETATM   26  NBD   D T   1       3.261   5.410  -9.265  1.00 22.08    -0.344 N 
HETATM   27  CAP   D T   1       3.006   6.056  -7.913  1.00 30.90     0.127 C 
HETATM   28  CAN   D T   1       4.036   7.136  -7.458  1.00 24.56     0.144 C 
HETATM   29  NAU   D T   1       5.173   7.283  -8.383  1.00 23.51    -0.291 NA
HETATM   30  CAO   D T   1       5.620   6.031  -9.029  1.00 28.25     0.144 C 
HETATM   31  CAQ   D T   1       4.562   5.456  -9.947  1.00 25.74     0.127 C 
ENDBRANCH  12  26
TORSDOF 2
ENDMDL
MODEL 2
REMARK VINA RESULT:    -9.531      1.724      3.061
REMARK INTER + INTRA:         -10.915
REMARK INTER:                 -10.395
REMARK INTRA:                  -0.519
REMARK UNBOUND:                -0.270
REMARK  2 active torsions:
REMARK  status: ('A' for Active; 'I' for Inactive)
REMARK    1  A    between atoms: CAX_24  and  NBD_30 
REMARK    2  A    between atoms: CAY_25  and  CAZ_26 
ROOT
HETATM    1  CAE   D T   1       2.221   4.775  -9.184  1.00 15.33     0.002 A 
HETATM    2  CAF   D T   1       2.974   4.054 -11.320  1.00 33.04     0.002 A 
HETATM    3  CAG   D T   1       3.399   5.497  -8.996  1.00 21.87     0.017 A 
HETATM    4  CAH   D T   1       4.162   4.770 -11.116  1.00 18.39     0.017 A 
HETATM    5  CAK   D T   1       0.309   2.842 -11.758  1.00 18.99     0.102 A 
HETATM    6  CAL   D T   1      -2.918   1.022  -9.273  1.00 11.90     0.124 A 
HETATM    7  CAM   D T   1       0.033   2.921  -9.408  1.00 18.90     0.104 A 
HETATM    8  NAS   D T   1      -0.806   2.134 -11.873  1.00 18.39    -0.225 NA
HETATM    9  NAT   D T   1      -1.932   1.708  -8.664  1.00 12.09    -0.162 NA
HETATM   10  CAV   D T   1       1.971   4.054 -10.354  1.00 21.96     0.003 A 
HETATM   11  CAW   D T   1       0.769   3.293 -10.520  1.00 19.91     0.038 A 
HETATM   12  CAX   D T   1       4.382   5.493  -9.969  1.00 28.57     0.056 A 
HETATM   13  CAZ   D T   1      -2.713   1.015 -10.602  1.00 11.86     0.057 A 
HETATM   14  CBC   D T   1      -1.537   1.765 -10.797  1.00 11.35     0.165 A 
HETATM   15  NBE   D T   1      -1.138   2.166  -9.523  1.00 13.25    -0.211 N 
ENDROOT
BRANCH  13  16
HETATM   16  CAY   D T   1      -3.525   0.363 -11.571  1.00 15.42     0.007 A 
HETATM   17  CAD   D T   1      -4.621   1.040 -12.092  1.00 12.05     0.021 A 
HETATM   18  CAC   D T   1      -5.499   0.437 -12.989  1.00 20.05     0.099 A 
HETATM   19  NAR   D T   1      -5.344  -0.804 -13.375  1.00 15.05    -0.244 NA
HETATM   20  CBA   D T   1      -4.302  -1.533 -12.877  1.00 17.37     0.081 A 
HETATM   21  CAI   D T   1      -4.160  -2.849 -13.273  1.00 17.61     0.019 A 
HETATM   22  CBB   D T   1      -3.388  -0.982 -11.979  1.00 11.87     0.018 A 
HETATM   23  CAA   D T   1      -3.122  -3.654 -12.778  1.00 16.02     0.002 A 
HETATM   24  CAB   D T   1      -2.207  -3.103 -11.904  1.00 12.08     0.000 A 
HETATM   25  CAJ   D T   1      -2.354  -1.796 -11.492  1.00 13.82     0.002 A 
ENDBRANCH  13  16
BRANCH  12  26
HETATM   26  NBD   D T   1       5.616   6.127  -9.799  1.00 22.08    -0.344 N 
HETATM   27  CAP   D T   1       6.769   5.731 -10.705  1.00 30.90     0.127 C 
HETATM   28  CAN   D T   1       8.152   6.378 -10.385  1.00 24.56     0.144 C 
HETATM   29  NAU   D T   1       8.093   7.372  -9.300  1.00 23.51    -0.291 NA
HETATM   30  CAO   D T   1       6.851   8.171  -9.251  1.00 28.25     0.144 C 
HETATM   31  CAQ   D T   1       5.638   7.318  -8.939  1.00 25.74     0.127 C 
ENDBRANCH  12  26
TORSDOF 2
ENDMDL
MODEL 3
REMARK VINA RESULT:    -9.454      2.493      2.926
REMARK INTER + INTRA:         -10.829
REMARK INTER:                 -10.513
REMARK INTRA:                  -0.316
REMARK UNBOUND:                -0.270
REMARK  2 active torsions:
REMARK  status: ('A' for Active; 'I' for Inactive)
REMARK    1  A    between atoms: CAX_24  and  NBD_30 
REMARK    2  A    between atoms: CAY_25  and  CAZ_26 
ROOT
HETATM    1  CAE   D T   1      -1.344   4.611 -10.054  1.00 15.33     0.002 A 
HETATM    2  CAF   D T   1      -0.989   3.316  -8.092  1.00 33.04     0.002 A 
HETATM    3  CAG   D T   1      -0.914   5.759  -9.392  1.00 21.87     0.017 A 
HETATM    4  CAH   D T   1      -0.572   4.480  -7.429  1.00 18.39     0.017 A 
HETATM    5  CAK   D T   1      -1.591   0.893  -9.681  1.00 18.99     0.102 A 
HETATM    6  CAL   D T   1      -4.104  -0.178 -13.209  1.00 11.90     0.124 A 
HETATM    7  CAM   D T   1      -2.651   2.335 -11.233  1.00 18.90     0.104 A 
HETATM    8  NAS   D T   1      -2.052  -0.163 -10.337  1.00 18.39    -0.225 NA
HETATM    9  NAT   D T   1      -3.895   1.122 -12.926  1.00 12.09    -0.162 NA
HETATM   10  CAV   D T   1      -1.374   3.362  -9.429  1.00 21.96     0.003 A 
HETATM   11  CAW   D T   1      -1.847   2.196 -10.113  1.00 19.91     0.038 A 
HETATM   12  CAX   D T   1      -0.527   5.697  -8.065  1.00 28.57     0.056 A 
HETATM   13  CAZ   D T   1      -3.477  -0.948 -12.301  1.00 11.86     0.057 A 
HETATM   14  CBC   D T   1      -2.834  -0.044 -11.434  1.00 11.35     0.165 A 
HETATM   15  NBE   D T   1      -3.146   1.224 -11.922  1.00 13.25    -0.211 N 
ENDROOT
BRANCH  13  16
HETATM   16  CAY   D T   1      -3.497  -2.369 -12.252  1.00 15.42     0.007 A 
HETATM   17  CAD   D T   1      -4.708  -3.015 -12.031  1.00 12.05     0.021 A 
HETATM   18  CAC   D T   1      -4.790  -4.399 -11.900  1.00 20.05     0.099 A 
HETATM   19  NAR   D T   1      -3.726  -5.160 -11.964  1.00 15.05    -0.244 NA
HETATM   20  CBA   D T   1      -2.502  -4.583 -12.151  1.00 17.37     0.081 A 
HETATM   21  CAI   D T   1      -1.384  -5.394 -12.194  1.00 17.61     0.019 A 
HETATM   22  CBB   D T   1      -2.359  -3.204 -12.294  1.00 11.87     0.018 A 
HETATM   23  CAA   D T   1      -0.097  -4.857 -12.362  1.00 16.02     0.002 A 
HETATM   24  CAB   D T   1       0.042  -3.493 -12.521  1.00 12.08     0.000 A 
HETATM   25  CAJ   D T   1      -1.068  -2.679 -12.462  1.00 13.82     0.002 A 
ENDBRANCH  13  16
BRANCH  12  26
HETATM   26  NBD   D T   1      -0.168   6.828  -7.328  1.00 22.08    -0.344 N 
HETATM   27  CAP   D T   1      -1.204   7.919  -7.117  1.00 30.90     0.127 C 
HETATM   28  CAN   D T   1      -0.709   9.213  -6.399  1.00 24.56     0.144 C 
HETATM   29  NAU   D T   1       0.687   9.123  -5.937  1.00 23.51    -0.291 NA
HETATM   30  CAO   D T   1       1.107   7.787  -5.468  1.00 28.25     0.144 C 
HETATM   31  CAQ   D T   1       1.098   6.764  -6.586  1.00 25.74     0.127 C 
ENDBRANCH  12  26
TORSDOF 2
ENDMDL
MODEL 4
REMARK VINA RESULT:    -9.213      2.143     10.415
REMARK INTER + INTRA:         -10.559
REMARK INTER:                 -10.053
REMARK INTRA:                  -0.506
REMARK UNBOUND:                -0.270
REMARK  2 active torsions:
REMARK  status: ('A' for Active; 'I' for Inactive)
REMARK    1  A    between atoms: CAX_24  and  NBD_30 
REMARK    2  A    between atoms: CAY_25  and  CAZ_26 
ROOT
HETATM    1  CAE   D T   1      -2.586   0.272 -11.433  1.00 15.33     0.002 A 
HETATM    2  CAF   D T   1      -0.592  -0.899 -10.881  1.00 33.04     0.002 A 
HETATM    3  CAG   D T   1      -3.130  -0.886 -11.985  1.00 21.87     0.017 A 
HETATM    4  CAH   D T   1      -1.142  -2.055 -11.451  1.00 18.39     0.017 A 
HETATM    5  CAK   D T   1       0.328   1.517  -9.439  1.00 18.99     0.102 A 
HETATM    6  CAL   D T   1      -0.214   5.934  -9.753  1.00 11.90     0.124 A 
HETATM    7  CAM   D T   1      -1.261   2.723 -10.714  1.00 18.90     0.104 A 
HETATM    8  NAS   D T   1       0.823   2.653  -8.967  1.00 18.39    -0.225 NA
HETATM    9  NAT   D T   1      -1.020   5.124 -10.465  1.00 12.09    -0.162 NA
HETATM   10  CAV   D T   1      -1.315   0.291 -10.852  1.00 21.96     0.003 A 
HETATM   11  CAW   D T   1      -0.757   1.495 -10.316  1.00 19.91     0.038 A 
HETATM   12  CAX   D T   1      -2.402  -2.062 -11.999  1.00 28.57     0.056 A 
HETATM   13  CAZ   D T   1       0.662   5.197  -9.047  1.00 11.86     0.057 A 
HETATM   14  CBC   D T   1       0.340   3.859  -9.343  1.00 11.35     0.165 A 
HETATM   15  NBE   D T   1      -0.737   3.924 -10.227  1.00 13.25    -0.211 N 
ENDROOT
BRANCH  13  16
HETATM   16  CAY   D T   1       1.692   5.700  -8.205  1.00 15.42     0.007 A 
HETATM   17  CAD   D T   1       1.337   6.336  -7.020  1.00 12.05     0.021 A 
HETATM   18  CAC   D T   1       2.288   6.915  -6.184  1.00 20.05     0.099 A 
HETATM   19  NAR   D T   1       3.564   6.902  -6.479  1.00 15.05    -0.244 NA
HETATM   20  CBA   D T   1       3.973   6.318  -7.644  1.00 17.37     0.081 A 
HETATM   21  CAI   D T   1       5.319   6.331  -7.958  1.00 17.61     0.019 A 
HETATM   22  CBB   D T   1       3.068   5.718  -8.519  1.00 11.87     0.018 A 
HETATM   23  CAA   D T   1       5.798   5.765  -9.151  1.00 16.02     0.002 A 
HETATM   24  CAB   D T   1       4.903   5.156 -10.007  1.00 12.08     0.000 A 
HETATM   25  CAJ   D T   1       3.558   5.156  -9.707  1.00 13.82     0.002 A 
ENDBRANCH  13  16
BRANCH  12  26
HETATM   26  NBD   D T   1      -2.862  -3.230 -12.613  1.00 22.08    -0.344 N 
HETATM   27  CAP   D T   1      -2.341  -4.568 -12.117  1.00 30.90     0.127 C 
HETATM   28  CAN   D T   1      -2.790  -5.826 -12.923  1.00 24.56     0.144 C 
HETATM   29  NAU   D T   1      -3.754  -5.517 -13.994  1.00 23.51    -0.291 NA
HETATM   30  CAO   D T   1      -4.709  -4.434 -13.683  1.00 28.25     0.144 C 
HETATM   31  CAQ   D T   1      -4.016  -3.097 -13.513  1.00 25.74     0.127 C 
ENDBRANCH  12  26
TORSDOF 2
ENDMDL
MODEL 5
REMARK VINA RESULT:    -8.662      5.037     10.334
REMARK INTER + INTRA:          -9.944
REMARK INTER:                  -9.447
REMARK INTRA:                  -0.497
REMARK UNBOUND:                -0.270
REMARK  2 active torsions:
REMARK  status: ('A' for Active; 'I' for Inactive)
REMARK    1  A    between atoms: CAX_24  and  NBD_30 
REMARK    2  A    between atoms: CAY_25  and  CAZ_26 
ROOT
HETATM    1  CAE   D T   1      -9.365  -0.789 -12.796  1.00 15.33     0.002 A 
HETATM    2  CAF   D T   1      -8.182   1.248 -12.475  1.00 33.04     0.002 A 
HETATM    3  CAG   D T   1     -10.570  -0.093 -12.883  1.00 21.87     0.017 A 
HETATM    4  CAH   D T   1      -9.400   1.938 -12.549  1.00 18.39     0.017 A 
HETATM    5  CAK   D T   1      -5.658  -0.289 -12.646  1.00 18.99     0.102 A 
HETATM    6  CAL   D T   1      -4.253  -4.412 -11.683  1.00 11.90     0.124 A 
HETATM    7  CAM   D T   1      -6.949  -2.212 -12.153  1.00 18.90     0.104 A 
HETATM    8  NAS   D T   1      -4.543  -0.997 -12.523  1.00 18.39    -0.225 NA
HETATM    9  NAT   D T   1      -5.575  -4.159 -11.697  1.00 12.09    -0.162 NA
HETATM   10  CAV   D T   1      -8.143  -0.138 -12.609  1.00 21.96     0.003 A 
HETATM   11  CAW   D T   1      -6.918  -0.869 -12.492  1.00 19.91     0.038 A 
HETATM   12  CAX   D T   1     -10.590   1.284 -12.755  1.00 28.57     0.056 A 
HETATM   13  CAZ   D T   1      -3.571  -3.290 -11.974  1.00 11.86     0.057 A 
HETATM   14  CBC   D T   1      -4.557  -2.309 -12.196  1.00 11.35     0.165 A 
HETATM   15  NBE   D T   1      -5.776  -2.960 -12.014  1.00 13.25    -0.211 N 
ENDROOT
BRANCH  13  16
HETATM   16  CAY   D T   1      -2.156  -3.158 -12.020  1.00 15.42     0.007 A 
HETATM   17  CAD   D T   1      -1.454  -3.818 -13.022  1.00 12.05     0.021 A 
HETATM   18  CAC   D T   1      -0.064  -3.791 -13.084  1.00 20.05     0.099 A 
HETATM   19  NAR   D T   1       0.654  -3.154 -12.194  1.00 15.05    -0.244 NA
HETATM   20  CBA   D T   1       0.025  -2.509 -11.167  1.00 17.37     0.081 A 
HETATM   21  CAI   D T   1       0.791  -1.859 -10.219  1.00 17.61     0.019 A 
HETATM   22  CBB   D T   1      -1.366  -2.497 -11.055  1.00 11.87     0.018 A 
HETATM   23  CAA   D T   1       0.202  -1.197  -9.130  1.00 16.02     0.002 A 
HETATM   24  CAB   D T   1      -1.174  -1.169  -9.030  1.00 12.08     0.000 A 
HETATM   25  CAJ   D T   1      -1.943  -1.831  -9.963  1.00 13.82     0.002 A 
ENDBRANCH  13  16
BRANCH  12  26
HETATM   26  NBD   D T   1     -11.775   2.025 -12.749  1.00 22.08    -0.344 N 
HETATM   27  CAP   D T   1     -11.690   3.533 -12.582  1.00 30.90     0.127 C 
HETATM   28  CAN   D T   1     -13.048   4.291 -12.453  1.00 24.56     0.144 C 
HETATM   29  NAU   D T   1     -14.221   3.417 -12.626  1.00 23.51    -0.291 NA
HETATM   30  CAO   D T   1     -14.050   2.327 -13.608  1.00 28.25     0.144 C 
HETATM   31  CAQ   D T   1     -12.998   1.328 -13.171  1.00 25.74     0.127 C 
ENDBRANCH  12  26
TORSDOF 2
ENDMDL
MODEL 6
REMARK VINA RESULT:    -8.630      2.229     10.563
REMARK INTER + INTRA:          -9.909
REMARK INTER:                  -9.438
REMARK INTRA:                  -0.470
REMARK UNBOUND:                -0.270
REMARK  2 active torsions:
REMARK  status: ('A' for Active; 'I' for Inactive)
REMARK    1  A    between atoms: CAX_24  and  NBD_30 
REMARK    2  A    between atoms: CAY_25  and  CAZ_26 
ROOT
HETATM    1  CAE   D T   1      -3.075   1.585 -12.057  1.00 15.33     0.002 A 
HETATM    2  CAF   D T   1      -2.665   0.266 -10.122  1.00 33.04     0.002 A 
HETATM    3  CAG   D T   1      -4.217   0.838 -12.342  1.00 21.87     0.017 A 
HETATM    4  CAH   D T   1      -3.808  -0.489 -10.425  1.00 18.39     0.017 A 
HETATM    5  CAK   D T   1      -0.465   2.120  -9.425  1.00 18.99     0.102 A 
HETATM    6  CAL   D T   1       2.442   4.723 -11.588  1.00 11.90     0.124 A 
HETATM    7  CAM   D T   1      -0.486   2.788 -11.697  1.00 18.90     0.104 A 
HETATM    8  NAS   D T   1       0.638   2.826  -9.220  1.00 18.39    -0.225 NA
HETATM    9  NAT   D T   1       1.400   4.204 -12.264  1.00 12.09    -0.162 NA
HETATM   10  CAV   D T   1      -2.284   1.331 -10.934  1.00 21.96     0.003 A 
HETATM   11  CAW   D T   1      -1.097   2.087 -10.670  1.00 19.91     0.038 A 
HETATM   12  CAX   D T   1      -4.587  -0.212 -11.521  1.00 28.57     0.056 A 
HETATM   13  CAZ   D T   1       2.401   4.315 -10.306  1.00 11.86     0.057 A 
HETATM   14  CBC   D T   1       1.243   3.518 -10.212  1.00 11.35     0.165 A 
HETATM   15  NBE   D T   1       0.682   3.527 -11.487  1.00 13.25    -0.211 N 
ENDROOT
BRANCH  13  16
HETATM   16  CAY   D T   1       3.352   4.629  -9.297  1.00 15.42     0.007 A 
HETATM   17  CAD   D T   1       4.610   4.043  -9.356  1.00 12.05     0.021 A 
HETATM   18  CAC   D T   1       5.565   4.250  -8.364  1.00 20.05     0.099 A 
HETATM   19  NAR   D T   1       5.319   4.996  -7.316  1.00 15.05    -0.244 NA
HETATM   20  CBA   D T   1       4.089   5.577  -7.185  1.00 17.37     0.081 A 
HETATM   21  CAI   D T   1       3.831   6.344  -6.065  1.00 17.61     0.019 A 
HETATM   22  CBB   D T   1       3.096   5.410  -8.149  1.00 11.87     0.018 A 
HETATM   23  CAA   D T   1       2.580   6.949  -5.864  1.00 16.02     0.002 A 
HETATM   24  CAB   D T   1       1.604   6.799  -6.827  1.00 12.08     0.000 A 
HETATM   25  CAJ   D T   1       1.849   6.020  -7.938  1.00 13.82     0.002 A 
ENDBRANCH  13  16
BRANCH  12  26
HETATM   26  NBD   D T   1      -5.672  -1.046 -11.804  1.00 22.08    -0.344 N 
HETATM   27  CAP   D T   1      -6.812  -0.499 -12.646  1.00 30.90     0.127 C 
HETATM   28  CAN   D T   1      -8.051  -1.430 -12.820  1.00 24.56     0.144 C 
HETATM   29  NAU   D T   1      -7.868  -2.761 -12.215  1.00 23.51    -0.291 NA
HETATM   30  CAO   D T   1      -6.496  -3.301 -12.294  1.00 28.25     0.144 C 
HETATM   31  CAQ   D T   1      -5.512  -2.473 -11.493  1.00 25.74     0.127 C 
ENDBRANCH  12  26
TORSDOF 2
ENDMDL
MODEL 7
REMARK VINA RESULT:    -8.446      1.177      2.682
REMARK INTER + INTRA:          -9.703
REMARK INTER:                  -9.474
REMARK INTRA:                  -0.230
REMARK UNBOUND:                -0.270
REMARK  2 active torsions:
REMARK  status: ('A' for Active; 'I' for Inactive)
REMARK    1  A    between atoms: CAX_24  and  NBD_30 
REMARK    2  A    between atoms: CAY_25  and  CAZ_26 
ROOT
HETATM    1  CAE   D T   1       0.690   3.702 -11.617  1.00 15.33     0.002 A 
HETATM    2  CAF   D T   1       0.396   2.765  -9.452  1.00 33.04     0.002 A 
HETATM    3  CAG   D T   1       1.747   4.482 -11.151  1.00 21.87     0.017 A 
HETATM    4  CAH   D T   1       1.451   3.564  -8.989  1.00 18.39     0.017 A 
HETATM    5  CAK   D T   1      -1.599   0.913 -10.615  1.00 18.99     0.102 A 
HETATM    6  CAL   D T   1      -4.539   0.942 -13.971  1.00 11.90     0.124 A 
HETATM    7  CAM   D T   1      -1.766   2.438 -12.420  1.00 18.90     0.104 A 
HETATM    8  NAS   D T   1      -2.628   0.226 -11.091  1.00 18.39    -0.225 NA
HETATM    9  NAT   D T   1      -3.606   1.911 -13.911  1.00 12.09    -0.162 NA
HETATM   10  CAV   D T   1       0.003   2.813 -10.787  1.00 21.96     0.003 A 
HETATM   11  CAW   D T   1      -1.101   2.040 -11.272  1.00 19.91     0.038 A 
HETATM   12  CAX   D T   1       2.131   4.417  -9.824  1.00 28.57     0.056 A 
HETATM   13  CAZ   D T   1      -4.393   0.105 -12.928  1.00 11.86     0.057 A 
HETATM   14  CBC   D T   1      -3.285   0.599 -12.212  1.00 11.35     0.165 A 
HETATM   15  NBE   D T   1      -2.857   1.721 -12.920  1.00 13.25    -0.211 N 
ENDROOT
BRANCH  13  16
HETATM   16  CAY   D T   1      -5.215  -1.018 -12.635  1.00 15.42     0.007 A 
HETATM   17  CAD   D T   1      -4.645  -2.286 -12.648  1.00 12.05     0.021 A 
HETATM   18  CAC   D T   1      -5.404  -3.435 -12.442  1.00 20.05     0.099 A 
HETATM   19  NAR   D T   1      -6.696  -3.379 -12.239  1.00 15.05    -0.244 NA
HETATM   20  CBA   D T   1      -7.321  -2.164 -12.243  1.00 17.37     0.081 A 
HETATM   21  CAI   D T   1      -8.688  -2.117 -12.051  1.00 17.61     0.019 A 
HETATM   22  CBB   D T   1      -6.612  -0.979 -12.440  1.00 11.87     0.018 A 
HETATM   23  CAA   D T   1      -9.388  -0.900 -12.066  1.00 16.02     0.002 A 
HETATM   24  CAB   D T   1      -8.684   0.273 -12.242  1.00 12.08     0.000 A 
HETATM   25  CAJ   D T   1      -7.323   0.231 -12.452  1.00 13.82     0.002 A 
ENDBRANCH  13  16
BRANCH  12  26
HETATM   26  NBD   D T   1       3.126   5.236  -9.283  1.00 22.08    -0.344 N 
HETATM   27  CAP   D T   1       2.864   5.919  -7.952  1.00 30.90     0.127 C 
HETATM   28  CAN   D T   1       3.955   6.921  -7.463  1.00 24.56     0.144 C 
HETATM   29  NAU   D T   1       5.140   6.963  -8.337  1.00 23.51    -0.291 NA
HETATM   30  CAO   D T   1       5.514   5.671  -8.947  1.00 28.25     0.144 C 
HETATM   31  CAQ   D T   1       4.455   5.168  -9.907  1.00 25.74     0.127 C 
ENDBRANCH  12  26
TORSDOF 2
ENDMDL
MODEL 8
REMARK VINA RESULT:    -8.427      1.755      2.466
REMARK INTER + INTRA:          -9.682
REMARK INTER:                  -9.136
REMARK INTRA:                  -0.545
REMARK UNBOUND:                -0.270
REMARK  2 active torsions:
REMARK  status: ('A' for Active; 'I' for Inactive)
REMARK    1  A    between atoms: CAX_24  and  NBD_30 
REMARK    2  A    between atoms: CAY_25  and  CAZ_26 
ROOT
HETATM    1  CAE   D T   1       2.203   3.968 -12.086  1.00 15.33     0.002 A 
HETATM    2  CAF   D T   1       1.433   3.968  -9.836  1.00 33.04     0.002 A 
HETATM    3  CAG   D T   1       3.424   4.507 -11.684  1.00 21.87     0.017 A 
HETATM    4  CAH   D T   1       2.659   4.524  -9.443  1.00 18.39     0.017 A 
HETATM    5  CAK   D T   1      -0.979   2.515 -10.749  1.00 18.99     0.102 A 
HETATM    6  CAL   D T   1      -3.453   2.262 -14.453  1.00 11.90     0.124 A 
HETATM    7  CAM   D T   1      -0.467   3.300 -12.924  1.00 18.90     0.104 A 
HETATM    8  NAS   D T   1      -2.141   2.046 -11.184  1.00 18.39    -0.225 NA
HETATM    9  NAT   D T   1      -2.251   2.867 -14.510  1.00 12.09    -0.162 NA
HETATM   10  CAV   D T   1       1.188   3.668 -11.174  1.00 21.96     0.003 A 
HETATM   11  CAW   D T   1      -0.072   3.142 -11.606  1.00 19.91     0.038 A 
HETATM   12  CAX   D T   1       3.655   4.792 -10.350  1.00 28.57     0.056 A 
HETATM   13  CAZ   D T   1      -3.688   1.834 -13.200  1.00 11.86     0.057 A 
HETATM   14  CBC   D T   1      -2.538   2.189 -12.469  1.00 11.35     0.165 A 
HETATM   15  NBE   D T   1      -1.695   2.815 -13.385  1.00 13.25    -0.211 N 
ENDROOT
BRANCH  13  16
HETATM   16  CAY   D T   1      -4.866   1.180 -12.746  1.00 15.42     0.007 A 
HETATM   17  CAD   D T   1      -5.932   1.953 -12.301  1.00 12.05     0.021 A 
HETATM   18  CAC   D T   1      -7.088   1.380 -11.777  1.00 20.05     0.099 A 
HETATM   19  NAR   D T   1      -7.222   0.082 -11.664  1.00 15.05    -0.244 NA
HETATM   20  CBA   D T   1      -6.198  -0.732 -12.057  1.00 17.37     0.081 A 
HETATM   21  CAI   D T   1      -6.340  -2.099 -11.912  1.00 17.61     0.019 A 
HETATM   22  CBB   D T   1      -5.019  -0.215 -12.594  1.00 11.87     0.018 A 
HETATM   23  CAA   D T   1      -5.314  -2.984 -12.278  1.00 16.02     0.002 A 
HETATM   24  CAB   D T   1      -4.155  -2.473 -12.826  1.00 12.08     0.000 A 
HETATM   25  CAJ   D T   1      -4.001  -1.110 -12.957  1.00 13.82     0.002 A 
ENDBRANCH  13  16
BRANCH  12  26
HETATM   26  NBD   D T   1       4.825   5.410  -9.901  1.00 22.08    -0.344 N 
HETATM   27  CAP   D T   1       4.987   5.669  -8.412  1.00 30.90     0.127 C 
HETATM   28  CAN   D T   1       6.252   6.476  -7.985  1.00 24.56     0.144 C 
HETATM   29  NAU   D T   1       7.161   6.771  -9.107  1.00 23.51    -0.291 NA
HETATM   30  CAO   D T   1       7.245   5.716 -10.138  1.00 28.25     0.144 C 
HETATM   31  CAQ   D T   1       5.929   5.524 -10.864  1.00 25.74     0.127 C 
ENDBRANCH  12  26
TORSDOF 2
ENDMDL
MODEL 9
REMARK VINA RESULT:    -8.365      2.335      3.378
REMARK INTER + INTRA:          -9.612
REMARK INTER:                  -9.122
REMARK INTRA:                  -0.490
REMARK UNBOUND:                -0.270
REMARK  2 active torsions:
REMARK  status: ('A' for Active; 'I' for Inactive)
REMARK    1  A    between atoms: CAX_24  and  NBD_30 
REMARK    2  A    between atoms: CAY_25  and  CAZ_26 
ROOT
HETATM    1  CAE   D T   1       1.249   5.030  -8.917  1.00 15.33     0.002 A 
HETATM    2  CAF   D T   1       1.832   3.884 -10.917  1.00 33.04     0.002 A 
HETATM    3  CAG   D T   1       2.544   5.536  -8.812  1.00 21.87     0.017 A 
HETATM    4  CAH   D T   1       3.136   4.386 -10.795  1.00 18.39     0.017 A 
HETATM    5  CAK   D T   1      -1.018   3.147 -11.226  1.00 18.99     0.102 A 
HETATM    6  CAL   D T   1      -4.507   2.339  -8.566  1.00 11.90     0.124 A 
HETATM    7  CAM   D T   1      -1.252   3.608  -8.915  1.00 18.90     0.104 A 
HETATM    8  NAS   D T   1      -2.248   2.652 -11.259  1.00 18.39    -0.225 NA
HETATM    9  NAT   D T   1      -3.403   2.905  -8.043  1.00 12.09    -0.162 NA
HETATM   10  CAV   D T   1       0.857   4.210  -9.978  1.00 21.96     0.003 A 
HETATM   11  CAW   D T   1      -0.469   3.674 -10.056  1.00 19.91     0.038 A 
HETATM   12  CAX   D T   1       3.499   5.209  -9.757  1.00 28.57     0.056 A 
HETATM   13  CAZ   D T   1      -4.320   2.104  -9.877  1.00 11.86     0.057 A 
HETATM   14  CBC   D T   1      -3.025   2.584 -10.155  1.00 11.35     0.165 A 
HETATM   15  NBE   D T   1      -2.546   3.079  -8.943  1.00 13.25    -0.211 N 
ENDROOT
BRANCH  13  16
HETATM   16  CAY   D T   1      -5.250   1.486 -10.758  1.00 15.42     0.007 A 
HETATM   17  CAD   D T   1      -6.431   2.153 -11.061  1.00 12.05     0.021 A 
HETATM   18  CAC   D T   1      -7.417   1.577 -11.858  1.00 20.05     0.099 A 
HETATM   19  NAR   D T   1      -7.286   0.371 -12.351  1.00 15.05    -0.244 NA
HETATM   20  CBA   D T   1      -6.160  -0.348 -12.066  1.00 17.37     0.081 A 
HETATM   21  CAI   D T   1      -6.041  -1.629 -12.571  1.00 17.61     0.019 A 
HETATM   22  CBB   D T   1      -5.137   0.178 -11.278  1.00 11.87     0.018 A 
HETATM   23  CAA   D T   1      -4.917  -2.423 -12.295  1.00 16.02     0.002 A 
HETATM   24  CAB   D T   1      -3.897  -1.895 -11.531  1.00 12.08     0.000 A 
HETATM   25  CAJ   D T   1      -4.018  -0.625 -11.009  1.00 13.82     0.002 A 
ENDBRANCH  13  16
BRANCH  12  26
HETATM   26  NBD   D T   1       4.832   5.617  -9.657  1.00 22.08    -0.344 N 
HETATM   27  CAP   D T   1       5.860   4.978 -10.575  1.00 30.90     0.127 C 
HETATM   28  CAN   D T   1       7.348   5.379 -10.330  1.00 24.56     0.144 C 
HETATM   29  NAU   D T   1       7.509   6.416  -9.297  1.00 23.51    -0.291 NA
HETATM   30  CAO   D T   1       6.433   7.427  -9.252  1.00 28.25     0.144 C 
HETATM   31  CAQ   D T   1       5.101   6.822  -8.861  1.00 25.74     0.127 C 
ENDBRANCH  12  26
TORSDOF 2
ENDMDL
