MODEL 1
REMARK VINA RESULT:    -9.457      0.000      0.000
REMARK INTER + INTRA:         -10.628
REMARK INTER:                 -10.563
REMARK INTRA:                  -0.065
REMARK UNBOUND:                -0.065
REMARK  2 active torsions:
REMARK  status: ('A' for Active; 'I' for Inactive)
REMARK    1  A    between atoms: CAX_24  and  NBD_30 
REMARK    2  A    between atoms: CAY_25  and  CAZ_26 
ROOT
HETATM    1  CAE   D T   1       5.586  10.119   1.641  1.00 15.33     0.002 A 
HETATM    2  CAF   D T   1       7.391   9.531   3.075  1.00 33.04     0.002 A 
HETATM    3  CAG   D T   1       6.481  10.635   0.705  1.00 21.87     0.017 A 
HETATM    4  CAH   D T   1       8.281  10.068   2.133  1.00 18.39     0.017 A 
HETATM    5  CAK   D T   1       5.439   8.164   4.831  1.00 18.99     0.102 A 
HETATM    6  CAL   D T   1       1.141   8.612   5.938  1.00 11.90     0.124 A 
HETATM    7  CAM   D T   1       3.771   9.475   3.779  1.00 18.90     0.104 A 
HETATM    8  NAS   D T   1       4.550   7.727   5.713  1.00 18.39    -0.225 NA
HETATM    9  NAT   D T   1       1.620   9.299   4.884  1.00 12.09    -0.162 NA
HETATM   10  CAV   D T   1       6.018   9.540   2.837  1.00 21.96     0.003 A 
HETATM   11  CAW   D T   1       5.087   9.040   3.804  1.00 19.91     0.038 A 
HETATM   12  CAX   D T   1       7.842  10.614   0.952  1.00 28.57     0.056 A 
HETATM   13  CAZ   D T   1       2.127   7.884   6.492  1.00 11.86     0.057 A 
HETATM   14  CBC   D T   1       3.263   8.139   5.700  1.00 11.35     0.165 A 
HETATM   15  NBE   D T   1       2.832   9.024   4.711  1.00 13.25    -0.211 N 
ENDROOT
BRANCH  13  16
HETATM   16  CAY   D T   1       2.012   7.058   7.644  1.00 15.42     0.007 A 
HETATM   17  CAD   D T   1       2.979   7.158   8.639  1.00 12.05     0.021 A 
HETATM   18  CAC   D T   1       2.969   6.332   9.758  1.00 20.05     0.099 A 
HETATM   19  NAR   D T   1       2.057   5.407   9.925  1.00 15.05    -0.244 NA
HETATM   20  CBA   D T   1       1.098   5.237   8.967  1.00 17.37     0.081 A 
HETATM   21  CAI   D T   1       0.155   4.243   9.139  1.00 17.61     0.019 A 
HETATM   22  CBB   D T   1       1.053   6.038   7.827  1.00 11.87     0.018 A 
HETATM   23  CAA   D T   1      -0.845   4.006   8.181  1.00 16.02     0.002 A 
HETATM   24  CAB   D T   1      -0.899   4.811   7.063  1.00 12.08     0.000 A 
HETATM   25  CAJ   D T   1       0.050   5.794   6.877  1.00 13.82     0.002 A 
ENDBRANCH  13  16
BRANCH  12  26
HETATM   26  NBD   D T   1       8.776  11.192   0.090  1.00 22.08    -0.344 N 
HETATM   27  CAP   D T   1      10.251  10.901   0.310  1.00 30.90     0.127 C 
HETATM   28  CAN   D T   1      11.251  11.677  -0.601  1.00 24.56     0.144 C 
HETATM   29  NAU   D T   1      10.587  12.503  -1.625  1.00 23.51    -0.291 NA
HETATM   30  CAO   D T   1       9.341  11.932  -2.178  1.00 28.25     0.144 C 
HETATM   31  CAQ   D T   1       8.252  11.824  -1.129  1.00 25.74     0.127 C 
ENDBRANCH  12  26
TORSDOF 2
ENDMDL
MODEL 2
REMARK VINA RESULT:    -9.362      6.391     10.244
REMARK INTER + INTRA:         -10.522
REMARK INTER:                 -10.868
REMARK INTRA:                   0.346
REMARK UNBOUND:                -0.065
REMARK  2 active torsions:
REMARK  status: ('A' for Active; 'I' for Inactive)
REMARK    1  A    between atoms: CAX_24  and  NBD_30 
REMARK    2  A    between atoms: CAY_25  and  CAZ_26 
ROOT
HETATM    1  CAE   D T   1       4.804   3.373  12.012  1.00 15.33     0.002 A 
HETATM    2  CAF   D T   1       6.362   4.115  10.375  1.00 33.04     0.002 A 
HETATM    3  CAG   D T   1       5.838   2.819  12.765  1.00 21.87     0.017 A 
HETATM    4  CAH   D T   1       7.393   3.540  11.133  1.00 18.39     0.017 A 
HETATM    5  CAK   D T   1       4.144   5.544   9.033  1.00 18.99     0.102 A 
HETATM    6  CAL   D T   1      -0.262   5.046   8.544  1.00 11.90     0.124 A 
HETATM    7  CAM   D T   1       2.677   4.112  10.220  1.00 18.90     0.104 A 
HETATM    8  NAS   D T   1       3.125   6.014   8.328  1.00 18.39    -0.225 NA
HETATM    9  NAT   D T   1       0.382   4.300   9.462  1.00 12.09    -0.162 NA
HETATM   10  CAV   D T   1       5.041   4.048  10.812  1.00 21.96     0.003 A 
HETATM   11  CAW   D T   1       3.966   4.587  10.033  1.00 19.91     0.038 A 
HETATM   12  CAX   D T   1       7.146   2.899  12.322  1.00 28.57     0.056 A 
HETATM   13  CAZ   D T   1       0.615   5.841   7.906  1.00 11.86     0.057 A 
HETATM   14  CBC   D T   1       1.862   5.564   8.500  1.00 11.35     0.165 A 
HETATM   15  NBE   D T   1       1.601   4.599   9.473  1.00 13.25    -0.211 N 
ENDROOT
BRANCH  13  16
HETATM   16  CAY   D T   1       0.314   6.742   6.848  1.00 15.42     0.007 A 
HETATM   17  CAD   D T   1       1.074   7.900   6.719  1.00 12.05     0.021 A 
HETATM   18  CAC   D T   1       0.790   8.860   5.752  1.00 20.05     0.099 A 
HETATM   19  NAR   D T   1      -0.216   8.729   4.924  1.00 15.05    -0.244 NA
HETATM   20  CBA   D T   1      -1.018   7.627   5.020  1.00 17.37     0.081 A 
HETATM   21  CAI   D T   1      -2.092   7.509   4.159  1.00 17.61     0.019 A 
HETATM   22  CBB   D T   1      -0.781   6.630   5.965  1.00 11.87     0.018 A 
HETATM   23  CAA   D T   1      -2.965   6.410   4.221  1.00 16.02     0.002 A 
HETATM   24  CAB   D T   1      -2.718   5.415   5.143  1.00 12.08     0.000 A 
HETATM   25  CAJ   D T   1      -1.658   5.536   6.018  1.00 13.82     0.002 A 
ENDBRANCH  13  16
BRANCH  12  26
HETATM   26  NBD   D T   1       8.210   2.289  12.992  1.00 22.08    -0.344 N 
HETATM   27  CAP   D T   1       8.003   1.835  14.427  1.00 30.90     0.127 C 
HETATM   28  CAN   D T   1       9.261   1.281  15.163  1.00 24.56     0.144 C 
HETATM   29  NAU   D T   1      10.448   1.184  14.296  1.00 23.51    -0.291 NA
HETATM   30  CAO   D T   1      10.169   0.821  12.891  1.00 28.25     0.144 C 
HETATM   31  CAQ   D T   1       9.366   1.890  12.177  1.00 25.74     0.127 C 
ENDBRANCH  12  26
TORSDOF 2
ENDMDL
MODEL 3
REMARK VINA RESULT:    -9.221      2.776      3.693
REMARK INTER + INTRA:         -10.364
REMARK INTER:                 -10.128
REMARK INTRA:                  -0.236
REMARK UNBOUND:                -0.065
REMARK  2 active torsions:
REMARK  status: ('A' for Active; 'I' for Inactive)
REMARK    1  A    between atoms: CAX_24  and  NBD_30 
REMARK    2  A    between atoms: CAY_25  and  CAZ_26 
ROOT
HETATM    1  CAE   D T   1       4.867  10.644   1.662  1.00 15.33     0.002 A 
HETATM    2  CAF   D T   1       2.527  11.034   1.836  1.00 33.04     0.002 A 
HETATM    3  CAG   D T   1       4.933  11.463   0.536  1.00 21.87     0.017 A 
HETATM    4  CAH   D T   1       2.602  11.843   0.693  1.00 18.39     0.017 A 
HETATM    5  CAK   D T   1       2.558   9.560   4.403  1.00 18.99     0.102 A 
HETATM    6  CAL   D T   1       4.891   6.240   6.255  1.00 11.90     0.124 A 
HETATM    7  CAM   D T   1       4.607   8.616   3.686  1.00 18.90     0.104 A 
HETATM    8  NAS   D T   1       2.534   8.737   5.442  1.00 18.39    -0.225 NA
HETATM    9  NAT   D T   1       5.352   6.813   5.127  1.00 12.09    -0.162 NA
HETATM   10  CAV   D T   1       3.670  10.425   2.348  1.00 21.96     0.003 A 
HETATM   11  CAW   D T   1       3.610   9.558   3.487  1.00 19.91     0.038 A 
HETATM   12  CAX   D T   1       3.790  12.067   0.042  1.00 28.57     0.056 A 
HETATM   13  CAZ   D T   1       3.732   6.817   6.618  1.00 11.86     0.057 A 
HETATM   14  CBC   D T   1       3.500   7.816   5.652  1.00 11.35     0.165 A 
HETATM   15  NBE   D T   1       4.582   7.740   4.775  1.00 13.25    -0.211 N 
ENDROOT
BRANCH  13  16
HETATM   16  CAY   D T   1       2.930   6.456   7.735  1.00 15.42     0.007 A 
HETATM   17  CAD   D T   1       3.523   6.385   8.991  1.00 12.05     0.021 A 
HETATM   18  CAC   D T   1       2.816   5.970  10.115  1.00 20.05     0.099 A 
HETATM   19  NAR   D T   1       1.558   5.611  10.045  1.00 15.05    -0.244 NA
HETATM   20  CBA   D T   1       0.927   5.630   8.834  1.00 17.37     0.081 A 
HETATM   21  CAI   D T   1      -0.393   5.227   8.765  1.00 17.61     0.019 A 
HETATM   22  CBB   D T   1       1.582   6.041   7.674  1.00 11.87     0.018 A 
HETATM   23  CAA   D T   1      -1.091   5.205   7.546  1.00 16.02     0.002 A 
HETATM   24  CAB   D T   1      -0.447   5.630   6.403  1.00 12.08     0.000 A 
HETATM   25  CAJ   D T   1       0.875   6.017   6.462  1.00 13.82     0.002 A 
ENDBRANCH  13  16
BRANCH  12  26
HETATM   26  NBD   D T   1       3.784  12.827  -1.130  1.00 22.08    -0.344 N 
HETATM   27  CAP   D T   1       5.080  13.474  -1.588  1.00 30.90     0.127 C 
HETATM   28  CAN   D T   1       4.983  14.414  -2.828  1.00 24.56     0.144 C 
HETATM   29  NAU   D T   1       3.641  14.440  -3.436  1.00 23.51    -0.291 NA
HETATM   30  CAO   D T   1       2.911  13.155  -3.397  1.00 28.25     0.144 C 
HETATM   31  CAQ   D T   1       2.588  12.728  -1.979  1.00 25.74     0.127 C 
ENDBRANCH  12  26
TORSDOF 2
ENDMDL
MODEL 4
REMARK VINA RESULT:    -9.207      5.724     11.257
REMARK INTER + INTRA:         -10.348
REMARK INTER:                 -10.323
REMARK INTRA:                  -0.025
REMARK UNBOUND:                -0.065
REMARK  2 active torsions:
REMARK  status: ('A' for Active; 'I' for Inactive)
REMARK    1  A    between atoms: CAX_24  and  NBD_30 
REMARK    2  A    between atoms: CAY_25  and  CAZ_26 
ROOT
HETATM    1  CAE   D T   1       7.225   3.018  11.512  1.00 15.33     0.002 A 
HETATM    2  CAF   D T   1       5.550   3.575  13.107  1.00 33.04     0.002 A 
HETATM    3  CAG   D T   1       8.020   2.471  12.518  1.00 21.87     0.017 A 
HETATM    4  CAH   D T   1       6.365   3.036  14.113  1.00 18.39     0.017 A 
HETATM    5  CAK   D T   1       3.804   4.396  10.862  1.00 18.99     0.102 A 
HETATM    6  CAL   D T   1       4.303   6.084   6.762  1.00 11.90     0.124 A 
HETATM    7  CAM   D T   1       5.776   4.556   9.559  1.00 18.90     0.104 A 
HETATM    8  NAS   D T   1       3.103   4.946   9.881  1.00 18.39    -0.225 NA
HETATM    9  NAT   D T   1       5.382   5.598   7.406  1.00 12.09    -0.162 NA
HETATM   10  CAV   D T   1       5.967   3.564  11.778  1.00 21.96     0.003 A 
HETATM   11  CAW   D T   1       5.172   4.150  10.739  1.00 19.91     0.038 A 
HETATM   12  CAX   D T   1       7.590   2.482  13.833  1.00 28.57     0.056 A 
HETATM   13  CAZ   D T   1       3.215   5.963   7.544  1.00 11.86     0.057 A 
HETATM   14  CBC   D T   1       3.675   5.344   8.723  1.00 11.35     0.165 A 
HETATM   15  NBE   D T   1       5.042   5.144   8.525  1.00 13.25    -0.211 N 
ENDROOT
BRANCH  13  16
HETATM   16  CAY   D T   1       1.900   6.396   7.222  1.00 15.42     0.007 A 
HETATM   17  CAD   D T   1       0.844   5.506   7.380  1.00 12.05     0.021 A 
HETATM   18  CAC   D T   1      -0.458   5.839   7.018  1.00 20.05     0.099 A 
HETATM   19  NAR   D T   1      -0.752   7.003   6.496  1.00 15.05    -0.244 NA
HETATM   20  CBA   D T   1       0.247   7.911   6.288  1.00 17.37     0.081 A 
HETATM   21  CAI   D T   1      -0.069   9.127   5.714  1.00 17.61     0.019 A 
HETATM   22  CBB   D T   1       1.568   7.637   6.635  1.00 11.87     0.018 A 
HETATM   23  CAA   D T   1       0.916  10.095   5.456  1.00 16.02     0.002 A 
HETATM   24  CAB   D T   1       2.220   9.829   5.817  1.00 12.08     0.000 A 
HETATM   25  CAJ   D T   1       2.545   8.610   6.374  1.00 13.82     0.002 A 
ENDBRANCH  13  16
BRANCH  12  26
HETATM   26  NBD   D T   1       8.381   2.026  14.890  1.00 22.08    -0.344 N 
HETATM   27  CAP   D T   1       7.760   1.922  16.274  1.00 30.90     0.127 C 
HETATM   28  CAN   D T   1       8.724   1.532  17.436  1.00 24.56     0.144 C 
HETATM   29  NAU   D T   1      10.089   1.215  16.979  1.00 23.51    -0.291 NA
HETATM   30  CAO   D T   1      10.169   0.540  15.666  1.00 28.25     0.144 C 
HETATM   31  CAQ   D T   1       9.676   1.427  14.541  1.00 25.74     0.127 C 
ENDBRANCH  12  26
TORSDOF 2
ENDMDL
MODEL 5
REMARK VINA RESULT:    -9.189      1.586      2.597
REMARK INTER + INTRA:         -10.329
REMARK INTER:                  -9.806
REMARK INTRA:                  -0.522
REMARK UNBOUND:                -0.065
REMARK  2 active torsions:
REMARK  status: ('A' for Active; 'I' for Inactive)
REMARK    1  A    between atoms: CAX_24  and  NBD_30 
REMARK    2  A    between atoms: CAY_25  and  CAZ_26 
ROOT
HETATM    1  CAE   D T   1       4.191  11.809   1.289  1.00 15.33     0.002 A 
HETATM    2  CAF   D T   1       5.720  10.012   1.598  1.00 33.04     0.002 A 
HETATM    3  CAG   D T   1       5.064  12.413   0.385  1.00 21.87     0.017 A 
HETATM    4  CAH   D T   1       6.596  10.636   0.699  1.00 18.39     0.017 A 
HETATM    5  CAK   D T   1       3.659   8.652   3.232  1.00 18.99     0.102 A 
HETATM    6  CAL   D T   1       0.290   9.827   5.909  1.00 11.90     0.124 A 
HETATM    7  CAM   D T   1       2.645  10.777   3.485  1.00 18.90     0.104 A 
HETATM    8  NAS   D T   1       2.820   8.138   4.120  1.00 18.39    -0.225 NA
HETATM    9  NAT   D T   1       0.860  10.763   5.127  1.00 12.09    -0.162 NA
HETATM   10  CAV   D T   1       4.488  10.589   1.902  1.00 21.96     0.003 A 
HETATM   11  CAW   D T   1       3.596   9.993   2.851  1.00 19.91     0.038 A 
HETATM   12  CAX   D T   1       6.281  11.825   0.087  1.00 28.57     0.056 A 
HETATM   13  CAZ   D T   1       0.900   8.644   5.721  1.00 11.86     0.057 A 
HETATM   14  CBC   D T   1       1.885   8.888   4.745  1.00 11.35     0.165 A 
HETATM   15  NBE   D T   1       1.764  10.241   4.429  1.00 13.25    -0.211 N 
ENDROOT
BRANCH  13  16
HETATM   16  CAY   D T   1       0.599   7.429   6.396  1.00 15.42     0.007 A 
HETATM   17  CAD   D T   1      -0.568   6.749   6.064  1.00 12.05     0.021 A 
HETATM   18  CAC   D T   1      -0.961   5.594   6.733  1.00 20.05     0.099 A 
HETATM   19  NAR   D T   1      -0.259   5.096   7.720  1.00 15.05    -0.244 NA
HETATM   20  CBA   D T   1       0.882   5.735   8.114  1.00 17.37     0.081 A 
HETATM   21  CAI   D T   1       1.603   5.216   9.172  1.00 17.61     0.019 A 
HETATM   22  CBB   D T   1       1.329   6.892   7.479  1.00 11.87     0.018 A 
HETATM   23  CAA   D T   1       2.774   5.838   9.637  1.00 16.02     0.002 A 
HETATM   24  CAB   D T   1       3.224   6.973   8.996  1.00 12.08     0.000 A 
HETATM   25  CAJ   D T   1       2.500   7.506   7.951  1.00 13.82     0.002 A 
ENDBRANCH  13  16
BRANCH  12  26
HETATM   26  NBD   D T   1       7.228  12.427  -0.744  1.00 22.08    -0.344 N 
HETATM   27  CAP   D T   1       8.618  11.819  -0.826  1.00 30.90     0.127 C 
HETATM   28  CAN   D T   1       9.668  12.608  -1.667  1.00 24.56     0.144 C 
HETATM   29  NAU   D T   1       9.102  13.784  -2.351  1.00 23.51    -0.291 NA
HETATM   30  CAO   D T   1       7.712  13.623  -2.828  1.00 28.25     0.144 C 
HETATM   31  CAQ   D T   1       6.736  13.445  -1.682  1.00 25.74     0.127 C 
ENDBRANCH  12  26
TORSDOF 2
ENDMDL
MODEL 6
REMARK VINA RESULT:    -9.124      2.021      2.908
REMARK INTER + INTRA:         -10.256
REMARK INTER:                 -10.143
REMARK INTRA:                  -0.113
REMARK UNBOUND:                -0.065
REMARK  2 active torsions:
REMARK  status: ('A' for Active; 'I' for Inactive)
REMARK    1  A    between atoms: CAX_24  and  NBD_30 
REMARK    2  A    between atoms: CAY_25  and  CAZ_26 
ROOT
HETATM    1  CAE   D T   1       4.410  11.417   3.114  1.00 15.33     0.002 A 
HETATM    2  CAF   D T   1       6.098  10.123   4.180  1.00 33.04     0.002 A 
HETATM    3  CAG   D T   1       5.383  12.204   2.499  1.00 21.87     0.017 A 
HETATM    4  CAH   D T   1       7.068  10.931   3.569  1.00 18.39     0.017 A 
HETATM    5  CAK   D T   1       3.971   8.311   5.158  1.00 18.99     0.102 A 
HETATM    6  CAL   D T   1      -0.331   8.612   6.299  1.00 11.90     0.124 A 
HETATM    7  CAM   D T   1       2.454  10.083   4.748  1.00 18.90     0.104 A 
HETATM    8  NAS   D T   1       3.012   7.619   5.757  1.00 18.39    -0.225 NA
HETATM    9  NAT   D T   1       0.246   9.639   5.646  1.00 12.09    -0.162 NA
HETATM   10  CAV   D T   1       4.742  10.350   3.951  1.00 21.96     0.003 A 
HETATM   11  CAW   D T   1       3.732   9.568   4.600  1.00 19.91     0.038 A 
HETATM   12  CAX   D T   1       6.726  11.963   2.730  1.00 28.57     0.056 A 
HETATM   13  CAZ   D T   1       0.572   7.636   6.499  1.00 11.86     0.057 A 
HETATM   14  CBC   D T   1       1.760   8.105   5.906  1.00 11.35     0.165 A 
HETATM   15  NBE   D T   1       1.442   9.360   5.386  1.00 13.25    -0.211 N 
ENDROOT
BRANCH  13  16
HETATM   16  CAY   D T   1       0.343   6.411   7.185  1.00 15.42     0.007 A 
HETATM   17  CAD   D T   1      -0.785   5.664   6.864  1.00 12.05     0.021 A 
HETATM   18  CAC   D T   1      -1.107   4.493   7.543  1.00 20.05     0.099 A 
HETATM   19  NAR   D T   1      -0.373   4.043   8.529  1.00 15.05    -0.244 NA
HETATM   20  CBA   D T   1       0.732   4.749   8.913  1.00 17.37     0.081 A 
HETATM   21  CAI   D T   1       1.487   4.279   9.970  1.00 17.61     0.019 A 
HETATM   22  CBB   D T   1       1.108   5.925   8.267  1.00 11.87     0.018 A 
HETATM   23  CAA   D T   1       2.623   4.970  10.424  1.00 16.02     0.002 A 
HETATM   24  CAB   D T   1       3.005   6.123   9.772  1.00 12.08     0.000 A 
HETATM   25  CAJ   D T   1       2.246   6.607   8.727  1.00 13.82     0.002 A 
ENDBRANCH  13  16
BRANCH  12  26
HETATM   26  NBD   D T   1       7.739  12.771   2.209  1.00 22.08    -0.344 N 
HETATM   27  CAP   D T   1       7.353  14.059   1.500  1.00 30.90     0.127 C 
HETATM   28  CAN   D T   1       8.515  14.852   0.827  1.00 24.56     0.144 C 
HETATM   29  NAU   D T   1       9.844  14.269   1.086  1.00 23.51    -0.291 NA
HETATM   30  CAO   D T   1      10.012  13.663   2.423  1.00 28.25     0.144 C 
HETATM   31  CAQ   D T   1       9.116  12.456   2.616  1.00 25.74     0.127 C 
ENDBRANCH  12  26
TORSDOF 2
ENDMDL
MODEL 7
REMARK VINA RESULT:    -9.089      1.723      2.598
REMARK INTER + INTRA:         -10.216
REMARK INTER:                  -9.833
REMARK INTRA:                  -0.383
REMARK UNBOUND:                -0.065
REMARK  2 active torsions:
REMARK  status: ('A' for Active; 'I' for Inactive)
REMARK    1  A    between atoms: CAX_24  and  NBD_30 
REMARK    2  A    between atoms: CAY_25  and  CAZ_26 
ROOT
HETATM    1  CAE   D T   1       6.840  10.350   2.990  1.00 15.33     0.002 A 
HETATM    2  CAF   D T   1       7.848   8.437   3.983  1.00 33.04     0.002 A 
HETATM    3  CAG   D T   1       8.065  10.727   2.441  1.00 21.87     0.017 A 
HETATM    4  CAH   D T   1       9.078   8.834   3.439  1.00 18.39     0.017 A 
HETATM    5  CAK   D T   1       5.148   7.550   4.812  1.00 18.99     0.102 A 
HETATM    6  CAL   D T   1       1.267   9.447   5.925  1.00 11.90     0.124 A 
HETATM    7  CAM   D T   1       4.460   9.796   4.508  1.00 18.90     0.104 A 
HETATM    8  NAS   D T   1       3.974   7.256   5.353  1.00 18.39    -0.225 NA
HETATM    9  NAT   D T   1       2.222  10.202   5.350  1.00 12.09    -0.162 NA
HETATM   10  CAV   D T   1       6.698   9.190   3.756  1.00 21.96     0.003 A 
HETATM   11  CAW   D T   1       5.440   8.830   4.339  1.00 19.91     0.038 A 
HETATM   12  CAX   D T   1       9.198   9.965   2.669  1.00 28.57     0.056 A 
HETATM   13  CAZ   D T   1       1.709   8.185   6.068  1.00 11.86     0.057 A 
HETATM   14  CBC   D T   1       3.007   8.185   5.521  1.00 11.35     0.165 A 
HETATM   15  NBE   D T   1       3.223   9.492   5.085  1.00 13.25    -0.211 N 
ENDROOT
BRANCH  13  16
HETATM   16  CAY   D T   1       0.996   7.110   6.666  1.00 15.42     0.007 A 
HETATM   17  CAD   D T   1      -0.227   6.732   6.122  1.00 12.05     0.021 A 
HETATM   18  CAC   D T   1      -1.011   5.737   6.697  1.00 20.05     0.099 A 
HETATM   19  NAR   D T   1      -0.645   5.116   7.790  1.00 15.05    -0.244 NA
HETATM   20  CBA   D T   1       0.533   5.462   8.390  1.00 17.37     0.081 A 
HETATM   21  CAI   D T   1       0.900   4.818   9.555  1.00 17.61     0.019 A 
HETATM   22  CBB   D T   1       1.363   6.447   7.857  1.00 11.87     0.018 A 
HETATM   23  CAA   D T   1       2.089   5.143  10.230  1.00 16.02     0.002 A 
HETATM   24  CAB   D T   1       2.918   6.104   9.692  1.00 12.08     0.000 A 
HETATM   25  CAJ   D T   1       2.548   6.763   8.538  1.00 13.82     0.002 A 
ENDBRANCH  13  16
BRANCH  12  26
HETATM   26  NBD   D T   1      10.464  10.340   2.215  1.00 22.08    -0.344 N 
HETATM   27  CAP   D T   1      11.626  10.319   3.195  1.00 30.90     0.127 C 
HETATM   28  CAN   D T   1      12.985  10.871   2.666  1.00 24.56     0.144 C 
HETATM   29  NAU   D T   1      12.952  11.232   1.238  1.00 23.51    -0.291 NA
HETATM   30  CAO   D T   1      12.104  10.365   0.393  1.00 28.25     0.144 C 
HETATM   31  CAQ   D T   1      10.637  10.472   0.762  1.00 25.74     0.127 C 
ENDBRANCH  12  26
TORSDOF 2
ENDMDL
MODEL 8
REMARK VINA RESULT:    -8.565      3.565     10.213
REMARK INTER + INTRA:          -9.631
REMARK INTER:                  -9.765
REMARK INTRA:                   0.133
REMARK UNBOUND:                -0.065
REMARK  2 active torsions:
REMARK  status: ('A' for Active; 'I' for Inactive)
REMARK    1  A    between atoms: CAX_24  and  NBD_30 
REMARK    2  A    between atoms: CAY_25  and  CAZ_26 
ROOT
HETATM    1  CAE   D T   1       4.788   7.494   4.858  1.00 15.33     0.002 A 
HETATM    2  CAF   D T   1       2.760   8.599   5.428  1.00 33.04     0.002 A 
HETATM    3  CAG   D T   1       4.680   6.684   5.987  1.00 21.87     0.017 A 
HETATM    4  CAH   D T   1       2.669   7.789   6.569  1.00 18.39     0.017 A 
HETATM    5  CAK   D T   1       2.907  10.024   2.838  1.00 18.99     0.102 A 
HETATM    6  CAL   D T   1       6.086  11.470   0.061  1.00 11.90     0.124 A 
HETATM    7  CAM   D T   1       5.211   9.477   2.816  1.00 18.90     0.104 A 
HETATM    8  NAS   D T   1       3.075  10.803   1.778  1.00 18.39    -0.225 NA
HETATM    9  NAT   D T   1       6.419  10.619   1.050  1.00 12.09    -0.162 NA
HETATM   10  CAV   D T   1       3.825   8.455   4.541  1.00 21.96     0.003 A 
HETATM   11  CAW   D T   1       3.964   9.301   3.393  1.00 19.91     0.038 A 
HETATM   12  CAX   D T   1       3.613   6.833   6.855  1.00 28.57     0.056 A 
HETATM   13  CAZ   D T   1       4.770  11.740   0.118  1.00 11.86     0.057 A 
HETATM   14  CBC   D T   1       4.284  10.982   1.202  1.00 11.35     0.165 A 
HETATM   15  NBE   D T   1       5.395  10.304   1.704  1.00 13.25    -0.211 N 
ENDROOT
BRANCH  13  16
HETATM   16  CAY   D T   1       4.059  12.624  -0.738  1.00 15.42     0.007 A 
HETATM   17  CAD   D T   1       4.570  13.899  -0.960  1.00 12.05     0.021 A 
HETATM   18  CAC   D T   1       3.891  14.839  -1.729  1.00 20.05     0.099 A 
HETATM   19  NAR   D T   1       2.728  14.577  -2.271  1.00 15.05    -0.244 NA
HETATM   20  CBA   D T   1       2.159  13.353  -2.065  1.00 17.37     0.081 A 
HETATM   21  CAI   D T   1       0.920  13.093  -2.621  1.00 17.61     0.019 A 
HETATM   22  CBB   D T   1       2.793  12.369  -1.309  1.00 11.87     0.018 A 
HETATM   23  CAA   D T   1       0.274  11.861  -2.429  1.00 16.02     0.002 A 
HETATM   24  CAB   D T   1       0.911  10.883  -1.696  1.00 12.08     0.000 A 
HETATM   25  CAJ   D T   1       2.139  11.141  -1.124  1.00 13.82     0.002 A 
ENDBRANCH  13  16
BRANCH  12  26
HETATM   26  NBD   D T   1       3.499   6.108   8.044  1.00 22.08    -0.344 N 
HETATM   27  CAP   D T   1       2.111   5.785   8.571  1.00 30.90     0.127 C 
HETATM   28  CAN   D T   1       2.047   5.089   9.965  1.00 24.56     0.144 C 
HETATM   29  NAU   D T   1       3.374   4.751  10.509  1.00 23.51    -0.291 NA
HETATM   30  CAO   D T   1       4.378   4.347   9.504  1.00 28.25     0.144 C 
HETATM   31  CAQ   D T   1       4.724   5.480   8.559  1.00 25.74     0.127 C 
ENDBRANCH  12  26
TORSDOF 2
ENDMDL
MODEL 9
REMARK VINA RESULT:    -8.510      2.682      3.985
REMARK INTER + INTRA:          -9.569
REMARK INTER:                 -10.181
REMARK INTRA:                   0.612
REMARK UNBOUND:                -0.065
REMARK  2 active torsions:
REMARK  status: ('A' for Active; 'I' for Inactive)
REMARK    1  A    between atoms: CAX_24  and  NBD_30 
REMARK    2  A    between atoms: CAY_25  and  CAZ_26 
ROOT
HETATM    1  CAE   D T   1       5.045  11.052   2.507  1.00 15.33     0.002 A 
HETATM    2  CAF   D T   1       2.889  10.433   1.716  1.00 33.04     0.002 A 
HETATM    3  CAG   D T   1       5.227  11.882   1.401  1.00 21.87     0.017 A 
HETATM    4  CAH   D T   1       3.089  11.258   0.600  1.00 18.39     0.017 A 
HETATM    5  CAK   D T   1       2.469   8.975   4.258  1.00 18.99     0.102 A 
HETATM    6  CAL   D T   1       4.969   6.822   7.260  1.00 11.90     0.124 A 
HETATM    7  CAM   D T   1       4.823   8.997   4.508  1.00 18.90     0.104 A 
HETATM    8  NAS   D T   1       2.358   8.163   5.300  1.00 18.39    -0.225 NA
HETATM    9  NAT   D T   1       5.575   7.592   6.336  1.00 12.09    -0.162 NA
HETATM   10  CAV   D T   1       3.869  10.324   2.701  1.00 21.96     0.003 A 
HETATM   11  CAW   D T   1       3.706   9.453   3.826  1.00 19.91     0.038 A 
HETATM   12  CAX   D T   1       4.242  11.985   0.435  1.00 28.57     0.056 A 
HETATM   13  CAZ   D T   1       3.638   6.851   7.074  1.00 11.86     0.057 A 
HETATM   14  CBC   D T   1       3.437   7.713   5.978  1.00 11.35     0.165 A 
HETATM   15  NBE   D T   1       4.713   8.135   5.603  1.00 13.25    -0.211 N 
ENDROOT
BRANCH  13  16
HETATM   16  CAY   D T   1       2.670   6.135   7.831  1.00 15.42     0.007 A 
HETATM   17  CAD   D T   1       1.321   6.348   7.567  1.00 12.05     0.021 A 
HETATM   18  CAC   D T   1       0.321   5.735   8.316  1.00 20.05     0.099 A 
HETATM   19  NAR   D T   1       0.599   4.939   9.318  1.00 15.05    -0.244 NA
HETATM   20  CBA   D T   1       1.905   4.714   9.647  1.00 17.37     0.081 A 
HETATM   21  CAI   D T   1       2.188   3.891  10.720  1.00 17.61     0.019 A 
HETATM   22  CBB   D T   1       2.950   5.294   8.931  1.00 11.87     0.018 A 
HETATM   23  CAA   D T   1       3.511   3.636  11.120  1.00 16.02     0.002 A 
HETATM   24  CAB   D T   1       4.544   4.197  10.399  1.00 12.08     0.000 A 
HETATM   25  CAJ   D T   1       4.268   5.032   9.338  1.00 13.82     0.002 A 
ENDBRANCH  13  16
BRANCH  12  26
HETATM   26  NBD   D T   1       4.405  12.733  -0.734  1.00 22.08    -0.344 N 
HETATM   27  CAP   D T   1       3.235  12.847  -1.697  1.00 30.90     0.127 C 
HETATM   28  CAN   D T   1       3.517  13.584  -3.042  1.00 24.56     0.144 C 
HETATM   29  NAU   D T   1       4.872  14.159  -3.118  1.00 23.51    -0.291 NA
HETATM   30  CAO   D T   1       5.405  14.678  -1.841  1.00 28.25     0.144 C 
HETATM   31  CAQ   D T   1       5.606  13.576  -0.820  1.00 25.74     0.127 C 
ENDBRANCH  12  26
TORSDOF 2
ENDMDL
