MODEL 1
REMARK VINA RESULT:    -9.341      0.000      0.000
REMARK INTER + INTRA:         -10.923
REMARK INTER:                 -10.433
REMARK INTRA:                  -0.490
REMARK UNBOUND:                -0.490
REMARK  2 active torsions:
REMARK  status: ('A' for Active; 'I' for Inactive)
REMARK    1  A    between atoms: CAX_24  and  NBD_30 
REMARK    2  A    between atoms: CAY_25  and  CAZ_26 
ROOT
HETATM    1  CAE   D T   1       8.379   4.187  -4.921  1.00 15.33     0.002 A 
HETATM    2  CAF   D T   1       7.052   2.240  -4.597  1.00 33.04     0.002 A 
HETATM    3  CAG   D T   1       7.655   4.506  -6.068  1.00 21.87     0.017 A 
HETATM    4  CAH   D T   1       6.340   2.562  -5.761  1.00 18.39     0.017 A 
HETATM    5  CAK   D T   1       8.421   1.840  -2.003  1.00 18.99     0.102 A 
HETATM    6  CAL   D T   1      12.424   2.708  -0.235  1.00 11.90     0.124 A 
HETATM    7  CAM   D T   1      10.129   3.254  -2.835  1.00 18.90     0.104 A 
HETATM    8  NAS   D T   1       9.167   1.551  -0.945  1.00 18.39    -0.225 NA
HETATM    9  NAT   D T   1      12.087   3.284  -1.405  1.00 12.09    -0.162 NA
HETATM   10  CAV   D T   1       8.085   3.060  -4.149  1.00 21.96     0.003 A 
HETATM   11  CAW   D T   1       8.857   2.727  -2.989  1.00 19.91     0.038 A 
HETATM   12  CAX   D T   1       6.628   3.686  -6.497  1.00 28.57     0.056 A 
HETATM   13  CAZ   D T   1      11.419   1.923   0.192  1.00 11.86     0.057 A 
HETATM   14  CBC   D T   1      10.409   2.059  -0.780  1.00 11.35     0.165 A 
HETATM   15  NBE   D T   1      10.922   2.945  -1.726  1.00 13.25    -0.211 N 
ENDROOT
BRANCH  13  16
HETATM   16  CAY   D T   1      11.421   1.126   1.369  1.00 15.42     0.007 A 
HETATM   17  CAD   D T   1      11.386   1.760   2.606  1.00 12.05     0.021 A 
HETATM   18  CAC   D T   1      11.457   1.046   3.800  1.00 20.05     0.099 A 
HETATM   19  NAR   D T   1      11.575  -0.257   3.817  1.00 15.05    -0.244 NA
HETATM   20  CBA   D T   1      11.645  -0.936   2.633  1.00 17.37     0.081 A 
HETATM   21  CAI   D T   1      11.795  -2.309   2.662  1.00 17.61     0.019 A 
HETATM   22  CBB   D T   1      11.574  -0.277   1.407  1.00 11.87     0.018 A 
HETATM   23  CAA   D T   1      11.894  -3.060   1.478  1.00 16.02     0.002 A 
HETATM   24  CAB   D T   1      11.805  -2.408   0.266  1.00 12.08     0.000 A 
HETATM   25  CAJ   D T   1      11.674  -1.036   0.232  1.00 13.82     0.002 A 
ENDBRANCH  13  16
BRANCH  12  26
HETATM   26  NBD   D T   1       5.926   3.911  -7.683  1.00 22.08    -0.344 N 
HETATM   27  CAP   D T   1       5.657   2.734  -8.606  1.00 30.90     0.127 C 
HETATM   28  CAN   D T   1       4.984   3.068  -9.973  1.00 24.56     0.144 C 
HETATM   29  NAU   D T   1       4.611   4.487 -10.108  1.00 23.51    -0.291 NA
HETATM   30  CAO   D T   1       4.159   5.136  -8.859  1.00 28.25     0.144 C 
HETATM   31  CAQ   D T   1       5.265   5.216  -7.827  1.00 25.74     0.127 C 
ENDBRANCH  12  26
TORSDOF 2
ENDMDL
MODEL 2
REMARK VINA RESULT:    -9.320      3.971     10.103
REMARK INTER + INTRA:         -10.900
REMARK INTER:                 -10.889
REMARK INTRA:                  -0.011
REMARK UNBOUND:                -0.490
REMARK  2 active torsions:
REMARK  status: ('A' for Active; 'I' for Inactive)
REMARK    1  A    between atoms: CAX_24  and  NBD_30 
REMARK    2  A    between atoms: CAY_25  and  CAZ_26 
ROOT
HETATM    1  CAE   D T   1      10.463   5.947   0.391  1.00 15.33     0.002 A 
HETATM    2  CAF   D T   1       8.881   4.413   1.285  1.00 33.04     0.002 A 
HETATM    3  CAG   D T   1      10.680   6.483   1.659  1.00 21.87     0.017 A 
HETATM    4  CAH   D T   1       9.095   4.970   2.554  1.00 18.39     0.017 A 
HETATM    5  CAK   D T   1       8.749   3.126  -1.378  1.00 18.99     0.102 A 
HETATM    6  CAL   D T   1       9.217   4.349  -5.642  1.00 11.90     0.124 A 
HETATM    7  CAM   D T   1       9.652   5.134  -2.248  1.00 18.90     0.104 A 
HETATM    8  NAS   D T   1       8.541   2.679  -2.608  1.00 18.39    -0.225 NA
HETATM    9  NAT   D T   1       9.609   5.197  -4.672  1.00 12.09    -0.162 NA
HETATM   10  CAV   D T   1       9.575   4.890   0.176  1.00 21.96     0.003 A 
HETATM   11  CAW   D T   1       9.340   4.368  -1.137  1.00 19.91     0.038 A 
HETATM   12  CAX   D T   1       9.988   5.995   2.752  1.00 28.57     0.056 A 
HETATM   13  CAZ   D T   1       8.719   3.227  -5.093  1.00 11.86     0.057 A 
HETATM   14  CBC   D T   1       8.843   3.414  -3.702  1.00 11.35     0.165 A 
HETATM   15  NBE   D T   1       9.426   4.670  -3.547  1.00 13.25    -0.211 N 
ENDROOT
BRANCH  13  16
HETATM   16  CAY   D T   1       8.175   2.119  -5.798  1.00 15.42     0.007 A 
HETATM   17  CAD   D T   1       8.625   0.842  -5.486  1.00 12.05     0.021 A 
HETATM   18  CAC   D T   1       8.190  -0.282  -6.184  1.00 20.05     0.099 A 
HETATM   19  NAR   D T   1       7.345  -0.189  -7.179  1.00 15.05    -0.244 NA
HETATM   20  CBA   D T   1       6.888   1.043  -7.554  1.00 17.37     0.081 A 
HETATM   21  CAI   D T   1       6.016   1.132  -8.622  1.00 17.61     0.019 A 
HETATM   22  CBB   D T   1       7.284   2.203  -6.890  1.00 11.87     0.018 A 
HETATM   23  CAA   D T   1       5.528   2.372  -9.067  1.00 16.02     0.002 A 
HETATM   24  CAB   D T   1       5.906   3.516  -8.398  1.00 12.08     0.000 A 
HETATM   25  CAJ   D T   1       6.791   3.435  -7.343  1.00 13.82     0.002 A 
ENDBRANCH  13  16
BRANCH  12  26
HETATM   26  NBD   D T   1      10.103   6.550   4.029  1.00 22.08    -0.344 N 
HETATM   27  CAP   D T   1      10.056   8.062   4.173  1.00 30.90     0.127 C 
HETATM   28  CAN   D T   1      10.318   8.627   5.603  1.00 24.56     0.144 C 
HETATM   29  NAU   D T   1      10.465   7.577   6.627  1.00 23.51    -0.291 NA
HETATM   30  CAO   D T   1       9.618   6.384   6.425  1.00 28.25     0.144 C 
HETATM   31  CAQ   D T   1       9.992   5.627   5.167  1.00 25.74     0.127 C 
ENDBRANCH  12  26
TORSDOF 2
ENDMDL
MODEL 3
REMARK VINA RESULT:    -9.259      4.639     10.354
REMARK INTER + INTRA:         -10.832
REMARK INTER:                 -10.458
REMARK INTRA:                  -0.374
REMARK UNBOUND:                -0.490
REMARK  2 active torsions:
REMARK  status: ('A' for Active; 'I' for Inactive)
REMARK    1  A    between atoms: CAX_24  and  NBD_30 
REMARK    2  A    between atoms: CAY_25  and  CAZ_26 
ROOT
HETATM    1  CAE   D T   1      10.506   6.756  -0.426  1.00 15.33     0.002 A 
HETATM    2  CAF   D T   1      11.968   6.935  -2.294  1.00 33.04     0.002 A 
HETATM    3  CAG   D T   1      11.355   7.561   0.332  1.00 21.87     0.017 A 
HETATM    4  CAH   D T   1      12.822   7.732  -1.518  1.00 18.39     0.017 A 
HETATM    5  CAK   D T   1       9.942   5.507  -3.911  1.00 18.99     0.102 A 
HETATM    6  CAL   D T   1       6.775   2.438  -3.242  1.00 11.90     0.124 A 
HETATM    7  CAM   D T   1       9.036   4.741  -1.862  1.00 18.90     0.104 A 
HETATM    8  NAS   D T   1       9.128   4.700  -4.580  1.00 18.39    -0.225 NA
HETATM    9  NAT   D T   1       7.342   3.035  -2.177  1.00 12.09    -0.162 NA
HETATM   10  CAV   D T   1      10.782   6.439  -1.759  1.00 21.96     0.003 A 
HETATM   11  CAW   D T   1       9.917   5.586  -2.518  1.00 19.91     0.038 A 
HETATM   12  CAX   D T   1      12.526   8.051  -0.215  1.00 28.57     0.056 A 
HETATM   13  CAZ   D T   1       7.321   2.912  -4.375  1.00 11.86     0.057 A 
HETATM   14  CBC   D T   1       8.263   3.872  -3.954  1.00 11.35     0.165 A 
HETATM   15  NBE   D T   1       8.184   3.882  -2.562  1.00 13.25    -0.211 N 
ENDROOT
BRANCH  13  16
HETATM   16  CAY   D T   1       7.004   2.497  -5.697  1.00 15.42     0.007 A 
HETATM   17  CAD   D T   1       7.328   1.203  -6.088  1.00 12.05     0.021 A 
HETATM   18  CAC   D T   1       7.112   0.752  -7.387  1.00 20.05     0.099 A 
HETATM   19  NAR   D T   1       6.606   1.529  -8.311  1.00 15.05    -0.244 NA
HETATM   20  CBA   D T   1       6.294   2.822  -7.997  1.00 17.37     0.081 A 
HETATM   21  CAI   D T   1       5.782   3.641  -8.985  1.00 17.61     0.019 A 
HETATM   22  CBB   D T   1       6.483   3.329  -6.712  1.00 11.87     0.018 A 
HETATM   23  CAA   D T   1       5.462   4.985  -8.729  1.00 16.02     0.002 A 
HETATM   24  CAB   D T   1       5.632   5.479  -7.453  1.00 12.08     0.000 A 
HETATM   25  CAJ   D T   1       6.159   4.671  -6.468  1.00 13.82     0.002 A 
ENDBRANCH  13  16
BRANCH  12  26
HETATM   26  NBD   D T   1      13.453   8.791   0.524  1.00 22.08    -0.344 N 
HETATM   27  CAP   D T   1      13.379  10.309   0.475  1.00 30.90     0.127 C 
HETATM   28  CAN   D T   1      14.516  11.080   1.213  1.00 24.56     0.144 C 
HETATM   29  NAU   D T   1      15.439  10.195   1.946  1.00 23.51    -0.291 NA
HETATM   30  CAO   D T   1      14.813   9.001   2.551  1.00 28.25     0.144 C 
HETATM   31  CAQ   D T   1      14.263   8.054   1.504  1.00 25.74     0.127 C 
ENDBRANCH  12  26
TORSDOF 2
ENDMDL
MODEL 4
REMARK VINA RESULT:    -8.838      3.989     10.026
REMARK INTER + INTRA:         -10.361
REMARK INTER:                 -10.076
REMARK INTRA:                  -0.286
REMARK UNBOUND:                -0.490
REMARK  2 active torsions:
REMARK  status: ('A' for Active; 'I' for Inactive)
REMARK    1  A    between atoms: CAX_24  and  NBD_30 
REMARK    2  A    between atoms: CAY_25  and  CAZ_26 
ROOT
HETATM    1  CAE   D T   1      10.490   4.861   0.080  1.00 15.33     0.002 A 
HETATM    2  CAF   D T   1       8.836   6.441  -0.570  1.00 33.04     0.002 A 
HETATM    3  CAG   D T   1      10.835   5.652   1.175  1.00 21.87     0.017 A 
HETATM    4  CAH   D T   1       9.200   7.236   0.526  1.00 18.39     0.017 A 
HETATM    5  CAK   D T   1       7.956   4.536  -2.657  1.00 18.99     0.102 A 
HETATM    6  CAL   D T   1       9.797   1.354  -5.185  1.00 11.90     0.124 A 
HETATM    7  CAM   D T   1      10.074   3.503  -2.423  1.00 18.90     0.104 A 
HETATM    8  NAS   D T   1       7.694   3.774  -3.711  1.00 18.39    -0.225 NA
HETATM    9  NAT   D T   1      10.494   1.846  -4.143  1.00 12.09    -0.162 NA
HETATM   10  CAV   D T   1       9.474   5.226  -0.806  1.00 21.96     0.003 A 
HETATM   11  CAW   D T   1       9.150   4.419  -1.945  1.00 19.91     0.038 A 
HETATM   12  CAX   D T   1      10.188   6.853   1.400  1.00 28.57     0.056 A 
HETATM   13  CAZ   D T   1       8.605   1.970  -5.268  1.00 11.86     0.057 A 
HETATM   14  CBC   D T   1       8.584   2.875  -4.188  1.00 11.35     0.165 A 
HETATM   15  NBE   D T   1       9.806   2.705  -3.539  1.00 13.25    -0.211 N 
ENDROOT
BRANCH  13  16
HETATM   16  CAY   D T   1       7.611   1.744  -6.258  1.00 15.42     0.007 A 
HETATM   17  CAD   D T   1       7.144   0.449  -6.453  1.00 12.05     0.021 A 
HETATM   18  CAC   D T   1       6.225   0.143  -7.453  1.00 20.05     0.099 A 
HETATM   19  NAR   D T   1       5.765   1.056  -8.270  1.00 15.05    -0.244 NA
HETATM   20  CBA   D T   1       6.209   2.343  -8.149  1.00 17.37     0.081 A 
HETATM   21  CAI   D T   1       5.737   3.295  -9.032  1.00 17.61     0.019 A 
HETATM   22  CBB   D T   1       7.125   2.711  -7.164  1.00 11.87     0.018 A 
HETATM   23  CAA   D T   1       6.171   4.630  -8.970  1.00 16.02     0.002 A 
HETATM   24  CAB   D T   1       7.062   4.996  -7.984  1.00 12.08     0.000 A 
HETATM   25  CAJ   D T   1       7.551   4.046  -7.112  1.00 13.82     0.002 A 
ENDBRANCH  13  16
BRANCH  12  26
HETATM   26  NBD   D T   1      10.548   7.724   2.432  1.00 22.08    -0.344 N 
HETATM   27  CAP   D T   1      11.390   8.944   2.094  1.00 30.90     0.127 C 
HETATM   28  CAN   D T   1      11.869   9.807   3.302  1.00 24.56     0.144 C 
HETATM   29  NAU   D T   1      11.327   9.352   4.595  1.00 23.51    -0.291 NA
HETATM   30  CAO   D T   1       9.951   8.817   4.542  1.00 28.25     0.144 C 
HETATM   31  CAQ   D T   1       9.866   7.546   3.721  1.00 25.74     0.127 C 
ENDBRANCH  12  26
TORSDOF 2
ENDMDL
MODEL 5
REMARK VINA RESULT:    -8.692     12.239     13.984
REMARK INTER + INTRA:         -10.199
REMARK INTER:                  -9.769
REMARK INTRA:                  -0.430
REMARK UNBOUND:                -0.490
REMARK  2 active torsions:
REMARK  status: ('A' for Active; 'I' for Inactive)
REMARK    1  A    between atoms: CAX_24  and  NBD_30 
REMARK    2  A    between atoms: CAY_25  and  CAZ_26 
ROOT
HETATM    1  CAE   D T   1       5.756  16.513  -0.571  1.00 15.33     0.002 A 
HETATM    2  CAF   D T   1       6.611  16.173   1.622  1.00 33.04     0.002 A 
HETATM    3  CAG   D T   1       5.090  17.662  -0.148  1.00 21.87     0.017 A 
HETATM    4  CAH   D T   1       5.925  17.321   2.041  1.00 18.39     0.017 A 
HETATM    5  CAK   D T   1       8.250  13.954   0.548  1.00 18.99     0.102 A 
HETATM    6  CAL   D T   1       7.963  10.951  -2.737  1.00 11.90     0.124 A 
HETATM    7  CAM   D T   1       6.755  13.911  -1.287  1.00 18.90     0.104 A 
HETATM    8  NAS   D T   1       8.829  12.843   0.112  1.00 18.39    -0.225 NA
HETATM    9  NAT   D T   1       7.103  11.987  -2.722  1.00 12.09    -0.162 NA
HETATM   10  CAV   D T   1       6.545  15.752   0.296  1.00 21.96     0.003 A 
HETATM   11  CAW   D T   1       7.200  14.557  -0.145  1.00 19.91     0.038 A 
HETATM   12  CAX   D T   1       5.170  18.070   1.171  1.00 28.57     0.056 A 
HETATM   13  CAZ   D T   1       8.789  11.028  -1.680  1.00 11.86     0.057 A 
HETATM   14  CBC   D T   1       8.407  12.202  -1.001  1.00 11.35     0.165 A 
HETATM   15  NBE   D T   1       7.355  12.734  -1.746  1.00 13.25    -0.211 N 
ENDROOT
BRANCH  13  16
HETATM   16  CAY   D T   1       9.807  10.096  -1.341  1.00 15.42     0.007 A 
HETATM   17  CAD   D T   1       9.436   8.822  -0.926  1.00 12.05     0.021 A 
HETATM   18  CAC   D T   1      10.376   7.882  -0.511  1.00 20.05     0.099 A 
HETATM   19  NAR   D T   1      11.655   8.156  -0.476  1.00 15.05    -0.244 NA
HETATM   20  CBA   D T   1      12.081   9.401  -0.844  1.00 17.37     0.081 A 
HETATM   21  CAI   D T   1      13.431   9.688  -0.781  1.00 17.61     0.019 A 
HETATM   22  CBB   D T   1      11.188  10.382  -1.273  1.00 11.87     0.018 A 
HETATM   23  CAA   D T   1      13.927  10.957  -1.125  1.00 16.02     0.002 A 
HETATM   24  CAB   D T   1      13.044  11.920  -1.567  1.00 12.08     0.000 A 
HETATM   25  CAJ   D T   1      11.694  11.645  -1.615  1.00 13.82     0.002 A 
ENDBRANCH  13  16
BRANCH  12  26
HETATM   26  NBD   D T   1       4.457  19.163   1.668  1.00 22.08    -0.344 N 
HETATM   27  CAP   D T   1       4.840  19.727   3.027  1.00 30.90     0.127 C 
HETATM   28  CAN   D T   1       3.928  20.862   3.586  1.00 24.56     0.144 C 
HETATM   29  NAU   D T   1       2.882  21.288   2.639  1.00 23.51    -0.291 NA
HETATM   30  CAO   D T   1       3.279  21.264   1.216  1.00 28.25     0.144 C 
HETATM   31  CAQ   D T   1       3.565  19.858   0.729  1.00 25.74     0.127 C 
ENDBRANCH  12  26
TORSDOF 2
ENDMDL
MODEL 6
REMARK VINA RESULT:    -8.431      5.291      6.628
REMARK INTER + INTRA:          -9.907
REMARK INTER:                  -9.632
REMARK INTRA:                  -0.275
REMARK UNBOUND:                -0.490
REMARK  2 active torsions:
REMARK  status: ('A' for Active; 'I' for Inactive)
REMARK    1  A    between atoms: CAX_24  and  NBD_30 
REMARK    2  A    between atoms: CAY_25  and  CAZ_26 
ROOT
HETATM    1  CAE   D T   1      10.347   5.945   1.591  1.00 15.33     0.002 A 
HETATM    2  CAF   D T   1       9.724   5.400  -0.638  1.00 33.04     0.002 A 
HETATM    3  CAG   D T   1      10.058   7.288   1.358  1.00 21.87     0.017 A 
HETATM    4  CAH   D T   1       9.450   6.756  -0.867  1.00 18.39     0.017 A 
HETATM    5  CAK   D T   1      10.039   2.541   0.061  1.00 18.99     0.102 A 
HETATM    6  CAL   D T   1      12.521   0.097   2.848  1.00 11.90     0.124 A 
HETATM    7  CAM   D T   1      11.362   3.268   1.885  1.00 18.90     0.104 A 
HETATM    8  NAS   D T   1      10.370   1.282   0.314  1.00 18.39    -0.225 NA
HETATM    9  NAT   D T   1      12.490   1.435   3.002  1.00 12.09    -0.162 NA
HETATM   10  CAV   D T   1      10.170   4.967   0.608  1.00 21.96     0.003 A 
HETATM   11  CAW   D T   1      10.499   3.595   0.852  1.00 19.91     0.038 A 
HETATM   12  CAX   D T   1       9.609   7.701   0.117  1.00 28.57     0.056 A 
HETATM   13  CAZ   D T   1      11.751  -0.260   1.805  1.00 11.86     0.057 A 
HETATM   14  CBC   D T   1      11.209   0.947   1.320  1.00 11.35     0.165 A 
HETATM   15  NBE   D T   1      11.721   1.943   2.150  1.00 13.25    -0.211 N 
ENDROOT
BRANCH  13  16
HETATM   16  CAY   D T   1      11.564  -1.580   1.315  1.00 15.42     0.007 A 
HETATM   17  CAD   D T   1      11.158  -2.572   2.201  1.00 12.05     0.021 A 
HETATM   18  CAC   D T   1      11.024  -3.900   1.806  1.00 20.05     0.099 A 
HETATM   19  NAR   D T   1      11.288  -4.285   0.583  1.00 15.05    -0.244 NA
HETATM   20  CBA   D T   1      11.720  -3.363  -0.327  1.00 17.37     0.081 A 
HETATM   21  CAI   D T   1      12.020  -3.784  -1.609  1.00 17.61     0.019 A 
HETATM   22  CBB   D T   1      11.869  -2.018   0.008  1.00 11.87     0.018 A 
HETATM   23  CAA   D T   1      12.488  -2.887  -2.584  1.00 16.02     0.002 A 
HETATM   24  CAB   D T   1      12.617  -1.553  -2.256  1.00 12.08     0.000 A 
HETATM   25  CAJ   D T   1      12.337  -1.131  -0.973  1.00 13.82     0.002 A 
ENDBRANCH  13  16
BRANCH  12  26
HETATM   26  NBD   D T   1       9.385   9.044  -0.198  1.00 22.08    -0.344 N 
HETATM   27  CAP   D T   1       9.625  10.093   0.875  1.00 30.90     0.127 C 
HETATM   28  CAN   D T   1       9.235  11.558   0.507  1.00 24.56     0.144 C 
HETATM   29  NAU   D T   1       8.789  11.709  -0.890  1.00 23.51    -0.291 NA
HETATM   30  CAO   D T   1       9.479  10.838  -1.864  1.00 28.25     0.144 C 
HETATM   31  CAQ   D T   1       9.192   9.371  -1.618  1.00 25.74     0.127 C 
ENDBRANCH  12  26
TORSDOF 2
ENDMDL
MODEL 7
REMARK VINA RESULT:    -8.355      4.098      5.634
REMARK INTER + INTRA:          -9.822
REMARK INTER:                  -9.315
REMARK INTRA:                  -0.508
REMARK UNBOUND:                -0.490
REMARK  2 active torsions:
REMARK  status: ('A' for Active; 'I' for Inactive)
REMARK    1  A    between atoms: CAX_24  and  NBD_30 
REMARK    2  A    between atoms: CAY_25  and  CAZ_26 
ROOT
HETATM    1  CAE   D T   1       9.037   3.936  -4.749  1.00 15.33     0.002 A 
HETATM    2  CAF   D T   1       6.933   3.753  -3.655  1.00 33.04     0.002 A 
HETATM    3  CAG   D T   1       8.474   3.476  -5.938  1.00 21.87     0.017 A 
HETATM    4  CAH   D T   1       6.380   3.277  -4.852  1.00 18.39     0.017 A 
HETATM    5  CAK   D T   1       8.144   5.054  -1.288  1.00 18.99     0.102 A 
HETATM    6  CAL   D T   1      12.169   5.307   0.618  1.00 11.90     0.124 A 
HETATM    7  CAM   D T   1      10.245   4.432  -2.185  1.00 18.90     0.104 A 
HETATM    8  NAS   D T   1       8.733   5.451  -0.168  1.00 18.39    -0.225 NA
HETATM    9  NAT   D T   1      12.066   4.805  -0.627  1.00 12.09    -0.162 NA
HETATM   10  CAV   D T   1       8.279   4.103  -3.587  1.00 21.96     0.003 A 
HETATM   11  CAW   D T   1       8.877   4.548  -2.363  1.00 19.91     0.038 A 
HETATM   12  CAX   D T   1       7.134   3.139  -5.992  1.00 28.57     0.056 A 
HETATM   13  CAZ   D T   1      10.952   5.647   1.075  1.00 11.86     0.057 A 
HETATM   14  CBC   D T   1      10.067   5.346   0.020  1.00 11.35     0.165 A 
HETATM   15  NBE   D T   1      10.869   4.840  -1.002  1.00 13.25    -0.211 N 
ENDROOT
BRANCH  13  16
HETATM   16  CAY   D T   1      10.656   6.178   2.360  1.00 15.42     0.007 A 
HETATM   17  CAD   D T   1      10.312   5.302   3.383  1.00 12.05     0.021 A 
HETATM   18  CAC   D T   1       9.942   5.756   4.646  1.00 20.05     0.099 A 
HETATM   19  NAR   D T   1       9.884   7.032   4.929  1.00 15.05    -0.244 NA
HETATM   20  CBA   D T   1      10.182   7.945   3.957  1.00 17.37     0.081 A 
HETATM   21  CAI   D T   1      10.094   9.291   4.259  1.00 17.61     0.019 A 
HETATM   22  CBB   D T   1      10.564   7.551   2.676  1.00 11.87     0.018 A 
HETATM   23  CAA   D T   1      10.367  10.277   3.296  1.00 16.02     0.002 A 
HETATM   24  CAB   D T   1      10.763   9.885   2.035  1.00 12.08     0.000 A 
HETATM   25  CAJ   D T   1      10.835   8.544   1.722  1.00 13.82     0.002 A 
ENDBRANCH  13  16
BRANCH  12  26
HETATM   26  NBD   D T   1       6.537   2.594  -7.132  1.00 22.08    -0.344 N 
HETATM   27  CAP   D T   1       6.170   3.523  -8.278  1.00 30.90     0.127 C 
HETATM   28  CAN   D T   1       5.391   2.880  -9.466  1.00 24.56     0.144 C 
HETATM   29  NAU   D T   1       5.227   1.421  -9.333  1.00 23.51    -0.291 NA
HETATM   30  CAO   D T   1       6.362   0.719  -8.700  1.00 28.25     0.144 C 
HETATM   31  CAQ   D T   1       6.549   1.129  -7.253  1.00 25.74     0.127 C 
ENDBRANCH  12  26
TORSDOF 2
ENDMDL
MODEL 8
REMARK VINA RESULT:    -8.336      4.169      6.446
REMARK INTER + INTRA:          -9.801
REMARK INTER:                  -9.295
REMARK INTRA:                  -0.506
REMARK UNBOUND:                -0.490
REMARK  2 active torsions:
REMARK  status: ('A' for Active; 'I' for Inactive)
REMARK    1  A    between atoms: CAX_24  and  NBD_30 
REMARK    2  A    between atoms: CAY_25  and  CAZ_26 
ROOT
HETATM    1  CAE   D T   1       8.441   2.848  -4.992  1.00 15.33     0.002 A 
HETATM    2  CAF   D T   1       8.002   4.944  -6.025  1.00 33.04     0.002 A 
HETATM    3  CAG   D T   1       7.661   2.198  -5.947  1.00 21.87     0.017 A 
HETATM    4  CAH   D T   1       7.207   4.283  -6.972  1.00 18.39     0.017 A 
HETATM    5  CAK   D T   1       9.944   6.175  -4.161  1.00 18.99     0.102 A 
HETATM    6  CAL   D T   1      11.417   5.462  -0.011  1.00 11.90     0.124 A 
HETATM    7  CAM   D T   1       9.647   4.264  -2.796  1.00 18.90     0.104 A 
HETATM    8  NAS   D T   1      10.657   6.755  -3.205  1.00 18.39    -0.225 NA
HETATM    9  NAT   D T   1      10.687   4.508  -0.619  1.00 12.09    -0.162 NA
HETATM   10  CAV   D T   1       8.646   4.230  -5.018  1.00 21.96     0.003 A 
HETATM   11  CAW   D T   1       9.425   4.888  -4.013  1.00 19.91     0.038 A 
HETATM   12  CAX   D T   1       7.034   2.921  -6.945  1.00 28.57     0.056 A 
HETATM   13  CAZ   D T   1      11.558   6.519  -0.831  1.00 11.86     0.057 A 
HETATM   14  CBC   D T   1      10.884   6.158  -2.014  1.00 11.35     0.165 A 
HETATM   15  NBE   D T   1      10.390   4.875  -1.782  1.00 13.25    -0.211 N 
ENDROOT
BRANCH  13  16
HETATM   16  CAY   D T   1      12.235   7.731  -0.526  1.00 15.42     0.007 A 
HETATM   17  CAD   D T   1      11.620   8.646   0.320  1.00 12.05     0.021 A 
HETATM   18  CAC   D T   1      12.192   9.883   0.605  1.00 20.05     0.099 A 
HETATM   19  NAR   D T   1      13.331  10.253   0.077  1.00 15.05    -0.244 NA
HETATM   20  CBA   D T   1      13.971   9.410  -0.787  1.00 17.37     0.081 A 
HETATM   21  CAI   D T   1      15.161   9.819  -1.359  1.00 17.61     0.019 A 
HETATM   22  CBB   D T   1      13.450   8.157  -1.106  1.00 11.87     0.018 A 
HETATM   23  CAA   D T   1      15.854   9.005  -2.270  1.00 16.02     0.002 A 
HETATM   24  CAB   D T   1      15.347   7.759  -2.569  1.00 12.08     0.000 A 
HETATM   25  CAJ   D T   1      14.151   7.352  -2.017  1.00 13.82     0.002 A 
ENDBRANCH  13  16
BRANCH  12  26
HETATM   26  NBD   D T   1       6.173   2.334  -7.877  1.00 22.08    -0.344 N 
HETATM   27  CAP   D T   1       5.567   3.209  -8.962  1.00 30.90     0.127 C 
HETATM   28  CAN   D T   1       4.517   2.527  -9.892  1.00 24.56     0.144 C 
HETATM   29  NAU   D T   1       4.358   1.085  -9.632  1.00 23.51    -0.291 NA
HETATM   30  CAO   D T   1       5.595   0.380  -9.239  1.00 28.25     0.144 C 
HETATM   31  CAQ   D T   1       6.126   0.865  -7.905  1.00 25.74     0.127 C 
ENDBRANCH  12  26
TORSDOF 2
ENDMDL
MODEL 9
REMARK VINA RESULT:    -8.164      4.411      6.877
REMARK INTER + INTRA:          -9.609
REMARK INTER:                  -9.104
REMARK INTRA:                  -0.505
REMARK UNBOUND:                -0.490
REMARK  2 active torsions:
REMARK  status: ('A' for Active; 'I' for Inactive)
REMARK    1  A    between atoms: CAX_24  and  NBD_30 
REMARK    2  A    between atoms: CAY_25  and  CAZ_26 
ROOT
HETATM    1  CAE   D T   1       7.852   2.940  -5.010  1.00 15.33     0.002 A 
HETATM    2  CAF   D T   1       7.975   4.859  -6.410  1.00 33.04     0.002 A 
HETATM    3  CAG   D T   1       7.041   2.295  -5.943  1.00 21.87     0.017 A 
HETATM    4  CAH   D T   1       7.148   4.207  -7.335  1.00 18.39     0.017 A 
HETATM    5  CAK   D T   1       9.957   6.000  -4.529  1.00 18.99     0.102 A 
HETATM    6  CAL   D T   1      10.848   5.776  -0.164  1.00 11.90     0.124 A 
HETATM    7  CAM   D T   1       9.127   4.465  -2.929  1.00 18.90     0.104 A 
HETATM    8  NAS   D T   1      10.687   6.591  -3.593  1.00 18.39    -0.225 NA
HETATM    9  NAT   D T   1       9.988   4.890  -0.702  1.00 12.09    -0.162 NA
HETATM   10  CAV   D T   1       8.353   4.227  -5.227  1.00 21.96     0.003 A 
HETATM   11  CAW   D T   1       9.160   4.889  -4.247  1.00 19.91     0.038 A 
HETATM   12  CAX   D T   1       6.681   2.934  -7.115  1.00 28.57     0.056 A 
HETATM   13  CAZ   D T   1      11.291   6.617  -1.115  1.00 11.86     0.057 A 
HETATM   14  CBC   D T   1      10.667   6.187  -2.303  1.00 11.35     0.165 A 
HETATM   15  NBE   D T   1       9.887   5.091  -1.937  1.00 13.25    -0.211 N 
ENDROOT
BRANCH  13  16
HETATM   16  CAY   D T   1      12.183   7.706  -0.922  1.00 15.42     0.007 A 
HETATM   17  CAD   D T   1      13.509   7.436  -0.603  1.00 12.05     0.021 A 
HETATM   18  CAC   D T   1      14.420   8.453  -0.330  1.00 20.05     0.099 A 
HETATM   19  NAR   D T   1      14.070   9.714  -0.345  1.00 15.05    -0.244 NA
HETATM   20  CBA   D T   1      12.774  10.043  -0.622  1.00 17.37     0.081 A 
HETATM   21  CAI   D T   1      12.408  11.376  -0.612  1.00 17.61     0.019 A 
HETATM   22  CBB   D T   1      11.817   9.070  -0.908  1.00 11.87     0.018 A 
HETATM   23  CAA   D T   1      11.086  11.774  -0.868  1.00 16.02     0.002 A 
HETATM   24  CAB   D T   1      10.146  10.812  -1.170  1.00 12.08     0.000 A 
HETATM   25  CAJ   D T   1      10.500   9.479  -1.164  1.00 13.82     0.002 A 
ENDBRANCH  13  16
BRANCH  12  26
HETATM   26  NBD   D T   1       5.804   2.369  -8.045  1.00 22.08    -0.344 N 
HETATM   27  CAP   D T   1       5.316   3.227  -9.201  1.00 30.90     0.127 C 
HETATM   28  CAN   D T   1       4.241   2.585 -10.131  1.00 24.56     0.144 C 
HETATM   29  NAU   D T   1       3.946   1.180  -9.797  1.00 23.51    -0.291 NA
HETATM   30  CAO   D T   1       5.101   0.395  -9.315  1.00 28.25     0.144 C 
HETATM   31  CAQ   D T   1       5.627   0.911  -7.991  1.00 25.74     0.127 C 
ENDBRANCH  12  26
TORSDOF 2
ENDMDL
