MODEL 1
REMARK VINA RESULT:    -7.918      0.000      0.000
REMARK INTER + INTRA:         -12.653
REMARK INTER:                 -11.621
REMARK INTRA:                  -1.032
REMARK UNBOUND:                -1.032
REMARK  8 active torsions:
REMARK  status: ('A' for Active; 'I' for Inactive)
REMARK    1  A    between atoms: C20_8  and  C12_12 
REMARK    2  A    between atoms: C22_10  and  C19_16 
REMARK       I    between atoms: C22_10  and  N25_19 
REMARK    3  A    between atoms: C12_12  and  C18_15 
REMARK    4  A    between atoms: N25_19  and  C37_23 
REMARK    5  A    between atoms: C37_23  and  C38_24 
REMARK    6  A    between atoms: C38_24  and  N4_25 
REMARK    7  A    between atoms: N4_25  and  C39_26 
REMARK    8  A    between atoms: N4_25  and  C40_27 
ROOT
HETATM    1  C4    D T   1       8.091   3.625  -0.631  1.00 24.36     0.052 C 
HETATM    2  C13   D T   1       9.619   1.608  -3.365  1.00 24.57     0.002 A 
HETATM    3  C3    D T   1      10.566   0.631  -4.023  1.00 24.44     0.033 C 
HETATM    4  C14   D T   1       8.548   2.918  -1.879  1.00 24.54     0.064 A 
HETATM    5  C18   D T   1       8.618   2.312  -4.014  1.00 24.01     0.077 A 
HETATM    6  C19   D T   1       9.584   1.994  -2.002  1.00 25.13     0.069 A 
HETATM    7  N23   D T   1       7.978   3.098  -3.083  1.00 24.05    -0.250 NA
ENDROOT
BRANCH   5   8
HETATM    8  C12   D T   1       8.325   2.203  -5.391  1.00 23.99     0.024 C 
BRANCH   8   9
HETATM    9  C20   D T   1       7.979   3.225  -6.258  1.00 22.41     0.061 A 
HETATM   10  C17   D T   1       7.057   3.045  -7.399  1.00 22.55     0.025 A 
HETATM   11  C7    D T   1       6.356   1.942  -7.888  1.00 22.62     0.031 A 
HETATM   12  C16   D T   1       6.921   4.300  -8.010  1.00 22.15     0.085 A 
HETATM   13  C15   D T   1       5.537   2.088  -8.995  1.00 22.57     0.140 A 
HETATM   14  C5    D T   1       5.408   3.326  -9.611  1.00 22.50     0.031 A 
HETATM   15  F29   D T   1       4.859   1.021  -9.475  1.00 23.29    -0.204 F 
HETATM   16  C6    D T   1       6.096   4.427  -9.127  1.00 22.36     0.021 A 
HETATM   17  N24   D T   1       7.713   5.219  -7.335  1.00 22.12    -0.208 NA
HETATM   18  C21   D T   1       8.365   4.651  -6.304  1.00 22.05     0.279 A 
HETATM   19  O27   D T   1       9.135   5.242  -5.563  1.00 20.62    -0.265 OA
ENDBRANCH   8   9
ENDBRANCH   5   8
BRANCH   6  20
HETATM   20  C22   D T   1      10.483   1.503  -0.925  1.00 26.35     0.276 C 
HETATM   21  N25   D T   1       9.987   0.771   0.099  1.00 28.46    -0.232 NA
HETATM   22  O28   D T   1      11.670   1.769  -0.961  1.00 27.15    -0.266 OA
BRANCH  21  23
HETATM   23  C37   D T   1      10.845   0.270   1.182  1.00 29.92     0.164 C 
BRANCH  23  24
HETATM   24  C38   D T   1      10.323  -1.088   1.663  1.00 30.92     0.276 C 
BRANCH  24  25
HETATM   25  N4    D T   1      11.001  -2.169   0.924  1.00 32.03     0.139 N 
BRANCH  25  26
HETATM   26  C39   D T   1      12.283  -1.804   0.284  1.00 32.13     0.250 C 
HETATM   27  C42   D T   1      12.287  -1.993  -1.239  1.00 32.46     0.037 C 
ENDBRANCH  25  26
BRANCH  25  28
HETATM   28  C40   D T   1      11.098  -3.401   1.721  1.00 32.51     0.250 C 
HETATM   29  C41   D T   1      12.500  -3.505   2.328  1.00 33.01     0.037 C 
ENDBRANCH  25  28
ENDBRANCH  24  25
ENDBRANCH  23  24
ENDBRANCH  21  23
ENDBRANCH   6  20
TORSDOF 8
ENDMDL
MODEL 2
REMARK VINA RESULT:    -7.787      2.132      2.914
REMARK INTER + INTRA:         -12.461
REMARK INTER:                 -11.378
REMARK INTRA:                  -1.083
REMARK UNBOUND:                -1.032
REMARK  8 active torsions:
REMARK  status: ('A' for Active; 'I' for Inactive)
REMARK    1  A    between atoms: C20_8  and  C12_12 
REMARK    2  A    between atoms: C22_10  and  C19_16 
REMARK       I    between atoms: C22_10  and  N25_19 
REMARK    3  A    between atoms: C12_12  and  C18_15 
REMARK    4  A    between atoms: N25_19  and  C37_23 
REMARK    5  A    between atoms: C37_23  and  C38_24 
REMARK    6  A    between atoms: C38_24  and  N4_25 
REMARK    7  A    between atoms: N4_25  and  C39_26 
REMARK    8  A    between atoms: N4_25  and  C40_27 
ROOT
HETATM    1  C4    D T   1      11.536   0.304  -4.398  1.00 24.36     0.052 C 
HETATM    2  C13   D T   1       8.510   2.165  -3.277  1.00 24.57     0.002 A 
HETATM    3  C3    D T   1       7.636   3.004  -2.373  1.00 24.44     0.033 C 
HETATM    4  C14   D T   1      10.214   0.981  -4.151  1.00 24.54     0.064 A 
HETATM    5  C18   D T   1       8.131   1.659  -4.510  1.00 24.01     0.077 A 
HETATM    6  C19   D T   1       9.838   1.731  -3.039  1.00 25.13     0.069 A 
HETATM    7  N23   D T   1       9.191   0.946  -5.022  1.00 24.05    -0.250 NA
ENDROOT
BRANCH   5   8
HETATM    8  C12   D T   1       6.871   1.873  -5.112  1.00 23.99     0.024 C 
BRANCH   8   9
HETATM    9  C20   D T   1       6.572   1.845  -6.463  1.00 22.41     0.061 A 
HETATM   10  C17   D T   1       6.108   3.029  -7.216  1.00 22.55     0.025 A 
HETATM   11  C7    D T   1       5.855   4.350  -6.846  1.00 22.62     0.031 A 
HETATM   12  C16   D T   1       5.952   2.623  -8.550  1.00 22.15     0.085 A 
HETATM   13  C15   D T   1       5.432   5.259  -7.801  1.00 22.57     0.140 A 
HETATM   14  C5    D T   1       5.264   4.859  -9.121  1.00 22.50     0.031 A 
HETATM   15  F29   D T   1       5.182   6.539  -7.447  1.00 23.29    -0.204 F 
HETATM   16  C6    D T   1       5.519   3.551  -9.497  1.00 22.36     0.021 A 
HETATM   17  N24   D T   1       6.267   1.275  -8.651  1.00 22.12    -0.208 NA
HETATM   18  C21   D T   1       6.630   0.757  -7.463  1.00 22.05     0.279 A 
HETATM   19  O27   D T   1       6.940  -0.409  -7.283  1.00 20.62    -0.265 OA
ENDBRANCH   8   9
ENDBRANCH   5   8
BRANCH   6  20
HETATM   20  C22   D T   1      10.656   2.025  -1.834  1.00 26.35     0.276 C 
HETATM   21  N25   D T   1      10.623   1.195  -0.766  1.00 28.46    -0.232 NA
HETATM   22  O28   D T   1      11.352   3.024  -1.804  1.00 27.15    -0.266 OA
BRANCH  21  23
HETATM   23  C37   D T   1      11.416   1.455   0.444  1.00 29.92     0.164 C 
BRANCH  23  24
HETATM   24  C38   D T   1      11.099   0.393   1.502  1.00 30.92     0.276 C 
BRANCH  24  25
HETATM   25  N4    D T   1      10.947  -0.923   0.855  1.00 32.03     0.139 N 
BRANCH  25  26
HETATM   26  C39   D T   1      12.206  -1.622   0.518  1.00 32.13     0.250 C 
HETATM   27  C42   D T   1      12.434  -1.786  -0.991  1.00 32.46     0.037 C 
ENDBRANCH  25  26
BRANCH  25  28
HETATM   28  C40   D T   1       9.999  -1.783   1.578  1.00 32.51     0.250 C 
HETATM   29  C41   D T   1      10.528  -3.221   1.595  1.00 33.01     0.037 C 
ENDBRANCH  25  28
ENDBRANCH  24  25
ENDBRANCH  23  24
ENDBRANCH  21  23
ENDBRANCH   6  20
TORSDOF 8
ENDMDL
MODEL 3
REMARK VINA RESULT:    -7.600      3.412      4.953
REMARK INTER + INTRA:         -12.186
REMARK INTER:                 -10.711
REMARK INTRA:                  -1.475
REMARK UNBOUND:                -1.032
REMARK  8 active torsions:
REMARK  status: ('A' for Active; 'I' for Inactive)
REMARK    1  A    between atoms: C20_8  and  C12_12 
REMARK    2  A    between atoms: C22_10  and  C19_16 
REMARK       I    between atoms: C22_10  and  N25_19 
REMARK    3  A    between atoms: C12_12  and  C18_15 
REMARK    4  A    between atoms: N25_19  and  C37_23 
REMARK    5  A    between atoms: C37_23  and  C38_24 
REMARK    6  A    between atoms: C38_24  and  N4_25 
REMARK    7  A    between atoms: N4_25  and  C39_26 
REMARK    8  A    between atoms: N4_25  and  C40_27 
ROOT
HETATM    1  C4    D T   1      11.584  -0.009  -4.102  1.00 24.36     0.052 C 
HETATM    2  C13   D T   1       8.671   2.127  -3.189  1.00 24.57     0.002 A 
HETATM    3  C3    D T   1       7.854   3.113  -2.386  1.00 24.44     0.033 C 
HETATM    4  C14   D T   1      10.301   0.761  -3.929  1.00 24.54     0.064 A 
HETATM    5  C18   D T   1       8.250   1.498  -4.349  1.00 24.01     0.077 A 
HETATM    6  C19   D T   1       9.979   1.657  -2.911  1.00 25.13     0.069 A 
HETATM    7  N23   D T   1       9.265   0.675  -4.781  1.00 24.05    -0.250 NA
ENDROOT
BRANCH   5   8
HETATM    8  C12   D T   1       6.994   1.704  -4.963  1.00 23.99     0.024 C 
BRANCH   8   9
HETATM    9  C20   D T   1       6.715   1.711  -6.318  1.00 22.41     0.061 A 
HETATM   10  C17   D T   1       6.283   2.919  -7.051  1.00 22.55     0.025 A 
HETATM   11  C7    D T   1       6.050   4.237  -6.656  1.00 22.62     0.031 A 
HETATM   12  C16   D T   1       6.139   2.546  -8.396  1.00 22.15     0.085 A 
HETATM   13  C15   D T   1       5.657   5.174  -7.597  1.00 22.57     0.140 A 
HETATM   14  C5    D T   1       5.501   4.806  -8.927  1.00 22.50     0.031 A 
HETATM   15  F29   D T   1       5.425   6.451  -7.218  1.00 23.29    -0.204 F 
HETATM   16  C6    D T   1       5.737   3.502  -9.328  1.00 22.36     0.021 A 
HETATM   17  N24   D T   1       6.430   1.194  -8.522  1.00 22.12    -0.208 NA
HETATM   18  C21   D T   1       6.766   0.645  -7.341  1.00 22.05     0.279 A 
HETATM   19  O27   D T   1       7.052  -0.531  -7.182  1.00 20.62    -0.265 OA
ENDBRANCH   8   9
ENDBRANCH   5   8
BRANCH   6  20
HETATM   20  C22   D T   1      10.828   2.050  -1.757  1.00 26.35     0.276 C 
HETATM   21  N25   D T   1      11.460   3.246  -1.748  1.00 28.46    -0.232 NA
HETATM   22  O28   D T   1      10.962   1.286  -0.817  1.00 27.15    -0.266 OA
BRANCH  21  23
HETATM   23  C37   D T   1      12.308   3.667  -0.625  1.00 29.92     0.164 C 
BRANCH  23  24
HETATM   24  C38   D T   1      11.686   4.889   0.058  1.00 30.92     0.276 C 
BRANCH  24  25
HETATM   25  N4    D T   1      10.500   5.330  -0.699  1.00 32.03     0.139 N 
BRANCH  25  26
HETATM   26  C39   D T   1       9.229   5.355   0.056  1.00 32.13     0.250 C 
HETATM   27  C42   D T   1       9.065   4.175   1.024  1.00 32.46     0.037 C 
ENDBRANCH  25  26
BRANCH  25  28
HETATM   28  C40   D T   1      10.749   6.583  -1.427  1.00 32.51     0.250 C 
HETATM   29  C41   D T   1      10.188   6.466  -2.848  1.00 33.01     0.037 C 
ENDBRANCH  25  28
ENDBRANCH  24  25
ENDBRANCH  23  24
ENDBRANCH  21  23
ENDBRANCH   6  20
TORSDOF 8
ENDMDL
MODEL 4
REMARK VINA RESULT:    -7.520      1.790      2.129
REMARK INTER + INTRA:         -12.069
REMARK INTER:                 -10.982
REMARK INTRA:                  -1.087
REMARK UNBOUND:                -1.032
REMARK  8 active torsions:
REMARK  status: ('A' for Active; 'I' for Inactive)
REMARK    1  A    between atoms: C20_8  and  C12_12 
REMARK    2  A    between atoms: C22_10  and  C19_16 
REMARK       I    between atoms: C22_10  and  N25_19 
REMARK    3  A    between atoms: C12_12  and  C18_15 
REMARK    4  A    between atoms: N25_19  and  C37_23 
REMARK    5  A    between atoms: C37_23  and  C38_24 
REMARK    6  A    between atoms: C38_24  and  N4_25 
REMARK    7  A    between atoms: N4_25  and  C39_26 
REMARK    8  A    between atoms: N4_25  and  C40_27 
ROOT
HETATM    1  C4    D T   1       8.763   3.643   0.142  1.00 24.36     0.052 C 
HETATM    2  C13   D T   1      10.101   1.897  -2.865  1.00 24.57     0.002 A 
HETATM    3  C3    D T   1      10.913   0.901  -3.660  1.00 24.44     0.033 C 
HETATM    4  C14   D T   1       9.172   3.095  -1.199  1.00 24.54     0.064 A 
HETATM    5  C18   D T   1       9.270   2.865  -3.405  1.00 24.01     0.077 A 
HETATM    6  C19   D T   1      10.048   2.041  -1.456  1.00 25.13     0.069 A 
HETATM    7  N23   D T   1       8.714   3.577  -2.367  1.00 24.05    -0.250 NA
ENDROOT
BRANCH   5   8
HETATM    8  C12   D T   1       9.046   3.048  -4.788  1.00 23.99     0.024 C 
BRANCH   8   9
HETATM    9  C20   D T   1       8.075   2.443  -5.567  1.00 22.41     0.061 A 
HETATM   10  C17   D T   1       7.449   3.096  -6.735  1.00 22.55     0.025 A 
HETATM   11  C7    D T   1       7.616   4.350  -7.325  1.00 22.62     0.031 A 
HETATM   12  C16   D T   1       6.554   2.167  -7.286  1.00 22.15     0.085 A 
HETATM   13  C15   D T   1       6.879   4.681  -8.450  1.00 22.57     0.140 A 
HETATM   14  C5    D T   1       5.983   3.768  -8.992  1.00 22.50     0.031 A 
HETATM   15  F29   D T   1       7.034   5.896  -9.022  1.00 23.29    -0.204 F 
HETATM   16  C6    D T   1       5.817   2.519  -8.416  1.00 22.36     0.021 A 
HETATM   17  N24   D T   1       6.579   1.009  -6.521  1.00 22.12    -0.208 NA
HETATM   18  C21   D T   1       7.442   1.109  -5.493  1.00 22.05     0.279 A 
HETATM   19  O27   D T   1       7.637   0.233  -4.666  1.00 20.62    -0.265 OA
ENDBRANCH   8   9
ENDBRANCH   5   8
BRANCH   6  20
HETATM   20  C22   D T   1      10.787   1.224  -0.460  1.00 26.35     0.276 C 
HETATM   21  N25   D T   1      10.117   0.424   0.402  1.00 28.46    -0.232 NA
HETATM   22  O28   D T   1      12.002   1.281  -0.413  1.00 27.15    -0.266 OA
BRANCH  21  23
HETATM   23  C37   D T   1      10.814  -0.397   1.402  1.00 29.92     0.164 C 
BRANCH  23  24
HETATM   24  C38   D T   1      10.126  -1.761   1.514  1.00 30.92     0.276 C 
BRANCH  24  25
HETATM   25  N4    D T   1      10.961  -2.792   0.870  1.00 32.03     0.139 N 
BRANCH  25  26
HETATM   26  C39   D T   1      12.250  -2.322   0.319  1.00 32.13     0.250 C 
HETATM   27  C42   D T   1      12.266  -2.224  -1.213  1.00 32.46     0.037 C 
ENDBRANCH  25  26
BRANCH  25  28
HETATM   28  C40   D T   1      11.109  -3.985   1.716  1.00 32.51     0.250 C 
HETATM   29  C41   D T   1      12.531  -4.537   1.573  1.00 33.01     0.037 C 
ENDBRANCH  25  28
ENDBRANCH  24  25
ENDBRANCH  23  24
ENDBRANCH  21  23
ENDBRANCH   6  20
TORSDOF 8
ENDMDL
MODEL 5
REMARK VINA RESULT:    -7.410      3.362      9.203
REMARK INTER + INTRA:         -11.908
REMARK INTER:                 -10.628
REMARK INTRA:                  -1.280
REMARK UNBOUND:                -1.032
REMARK  8 active torsions:
REMARK  status: ('A' for Active; 'I' for Inactive)
REMARK    1  A    between atoms: C20_8  and  C12_12 
REMARK    2  A    between atoms: C22_10  and  C19_16 
REMARK       I    between atoms: C22_10  and  N25_19 
REMARK    3  A    between atoms: C12_12  and  C18_15 
REMARK    4  A    between atoms: N25_19  and  C37_23 
REMARK    5  A    between atoms: C37_23  and  C38_24 
REMARK    6  A    between atoms: C38_24  and  N4_25 
REMARK    7  A    between atoms: N4_25  and  C39_26 
REMARK    8  A    between atoms: N4_25  and  C40_27 
ROOT
HETATM    1  C4    D T   1       7.979  -0.903  -5.711  1.00 24.36     0.052 C 
HETATM    2  C13   D T   1       8.613   2.631  -4.721  1.00 24.57     0.002 A 
HETATM    3  C3    D T   1       8.408   4.128  -4.662  1.00 24.44     0.033 C 
HETATM    4  C14   D T   1       8.424   0.437  -5.189  1.00 24.54     0.064 A 
HETATM    5  C18   D T   1       9.622   1.937  -4.074  1.00 24.01     0.077 A 
HETATM    6  C19   D T   1       7.846   1.680  -5.439  1.00 25.13     0.069 A 
HETATM    7  N23   D T   1       9.479   0.601  -4.374  1.00 24.05    -0.250 NA
ENDROOT
BRANCH   5   8
HETATM    8  C12   D T   1      10.602   2.530  -3.247  1.00 23.99     0.024 C 
BRANCH   8   9
HETATM    9  C20   D T   1      10.681   2.469  -1.866  1.00 22.41     0.061 A 
HETATM   10  C17   D T   1      10.185   3.540  -0.977  1.00 22.55     0.025 A 
HETATM   11  C7    D T   1       9.578   4.772  -1.221  1.00 22.62     0.031 A 
HETATM   12  C16   D T   1      10.400   3.103   0.339  1.00 22.15     0.085 A 
HETATM   13  C15   D T   1       9.202   5.573  -0.156  1.00 22.57     0.140 A 
HETATM   14  C5    D T   1       9.423   5.150   1.149  1.00 22.50     0.031 A 
HETATM   15  F29   D T   1       8.617   6.769  -0.387  1.00 23.29    -0.204 F 
HETATM   16  C6    D T   1      10.019   3.925   1.399  1.00 22.36     0.021 A 
HETATM   17  N24   D T   1      11.010   1.856   0.307  1.00 22.12    -0.208 NA
HETATM   18  C21   D T   1      11.210   1.432  -0.954  1.00 22.05     0.279 A 
HETATM   19  O27   D T   1      11.742   0.375  -1.252  1.00 20.62    -0.265 OA
ENDBRANCH   8   9
ENDBRANCH   5   8
BRANCH   6  20
HETATM   20  C22   D T   1       6.662   1.967  -6.289  1.00 26.35     0.276 C 
HETATM   21  N25   D T   1       6.668   1.643  -7.603  1.00 28.46    -0.232 NA
HETATM   22  O28   D T   1       5.684   2.506  -5.803  1.00 27.15    -0.266 OA
BRANCH  21  23
HETATM   23  C37   D T   1       5.518   1.913  -8.475  1.00 29.92     0.164 C 
BRANCH  23  24
HETATM   24  C38   D T   1       5.844   3.085  -9.406  1.00 30.92     0.276 C 
BRANCH  24  25
HETATM   25  N4    D T   1       5.571   4.359  -8.715  1.00 32.03     0.139 N 
BRANCH  25  26
HETATM   26  C39   D T   1       6.652   5.366  -8.776  1.00 32.13     0.250 C 
HETATM   27  C42   D T   1       7.784   5.117  -7.770  1.00 32.46     0.037 C 
ENDBRANCH  25  26
BRANCH  25  28
HETATM   28  C40   D T   1       4.261   4.913  -9.084  1.00 32.51     0.250 C 
HETATM   29  C41   D T   1       3.947   4.552 -10.539  1.00 33.01     0.037 C 
ENDBRANCH  25  28
ENDBRANCH  24  25
ENDBRANCH  23  24
ENDBRANCH  21  23
ENDBRANCH   6  20
TORSDOF 8
ENDMDL
MODEL 6
REMARK VINA RESULT:    -7.350      2.873      9.528
REMARK INTER + INTRA:         -11.820
REMARK INTER:                 -10.695
REMARK INTRA:                  -1.125
REMARK UNBOUND:                -1.032
REMARK  8 active torsions:
REMARK  status: ('A' for Active; 'I' for Inactive)
REMARK    1  A    between atoms: C20_8  and  C12_12 
REMARK    2  A    between atoms: C22_10  and  C19_16 
REMARK       I    between atoms: C22_10  and  N25_19 
REMARK    3  A    between atoms: C12_12  and  C18_15 
REMARK    4  A    between atoms: N25_19  and  C37_23 
REMARK    5  A    between atoms: C37_23  and  C38_24 
REMARK    6  A    between atoms: C38_24  and  N4_25 
REMARK    7  A    between atoms: N4_25  and  C39_26 
REMARK    8  A    between atoms: N4_25  and  C40_27 
ROOT
HETATM    1  C4    D T   1       9.981   0.354  -5.230  1.00 24.36     0.052 C 
HETATM    2  C13   D T   1       9.770   2.305  -2.063  1.00 24.57     0.002 A 
HETATM    3  C3    D T   1       9.237   3.316  -1.074  1.00 24.44     0.033 C 
HETATM    4  C14   D T   1      10.093   1.021  -3.884  1.00 24.54     0.064 A 
HETATM    5  C18   D T   1      10.874   1.494  -1.861  1.00 24.01     0.077 A 
HETATM    6  C19   D T   1       9.268   2.012  -3.356  1.00 25.13     0.069 A 
HETATM    7  N23   D T   1      11.045   0.718  -2.985  1.00 24.05    -0.250 NA
ENDROOT
BRANCH   5   8
HETATM    8  C12   D T   1      11.656   1.483  -0.684  1.00 23.99     0.024 C 
BRANCH   8   9
HETATM    9  C20   D T   1      11.348   0.877   0.521  1.00 22.41     0.061 A 
HETATM   10  C17   D T   1      11.430  -0.582   0.741  1.00 22.55     0.025 A 
HETATM   11  C7    D T   1      11.787  -1.648  -0.086  1.00 22.62     0.031 A 
HETATM   12  C16   D T   1      11.085  -0.808   2.082  1.00 22.15     0.085 A 
HETATM   13  C15   D T   1      11.782  -2.937   0.419  1.00 22.57     0.140 A 
HETATM   14  C5    D T   1      11.430  -3.168   1.743  1.00 22.50     0.031 A 
HETATM   15  F29   D T   1      12.123  -3.973  -0.378  1.00 23.29    -0.204 F 
HETATM   16  C6    D T   1      11.081  -2.114   2.572  1.00 22.36     0.021 A 
HETATM   17  N24   D T   1      10.778   0.406   2.680  1.00 22.12    -0.208 NA
HETATM   18  C21   D T   1      10.904   1.432   1.818  1.00 22.05     0.279 A 
HETATM   19  O27   D T   1      10.678   2.599   2.094  1.00 20.62    -0.265 OA
ENDBRANCH   8   9
ENDBRANCH   5   8
BRANCH   6  20
HETATM   20  C22   D T   1       8.093   2.646  -4.008  1.00 26.35     0.276 C 
HETATM   21  N25   D T   1       8.261   3.474  -5.064  1.00 28.46    -0.232 NA
HETATM   22  O28   D T   1       6.973   2.426  -3.582  1.00 27.15    -0.266 OA
BRANCH  21  23
HETATM   23  C37   D T   1       7.124   4.121  -5.733  1.00 29.92     0.164 C 
BRANCH  23  24
HETATM   24  C38   D T   1       7.216   3.885  -7.243  1.00 30.92     0.276 C 
BRANCH  24  25
HETATM   25  N4    D T   1       5.866   3.660  -7.794  1.00 32.03     0.139 N 
BRANCH  25  26
HETATM   26  C39   D T   1       5.233   4.830  -8.440  1.00 32.13     0.250 C 
HETATM   27  C42   D T   1       4.516   4.495  -9.755  1.00 32.46     0.037 C 
ENDBRANCH  25  26
BRANCH  25  28
HETATM   28  C40   D T   1       5.810   2.454  -8.631  1.00 32.51     0.250 C 
HETATM   29  C41   D T   1       6.562   1.315  -7.934  1.00 33.01     0.037 C 
ENDBRANCH  25  28
ENDBRANCH  24  25
ENDBRANCH  23  24
ENDBRANCH  21  23
ENDBRANCH   6  20
TORSDOF 8
ENDMDL
MODEL 7
REMARK VINA RESULT:    -7.251      4.378      7.068
REMARK INTER + INTRA:         -11.674
REMARK INTER:                 -10.402
REMARK INTRA:                  -1.272
REMARK UNBOUND:                -1.032
REMARK  8 active torsions:
REMARK  status: ('A' for Active; 'I' for Inactive)
REMARK    1  A    between atoms: C20_8  and  C12_12 
REMARK    2  A    between atoms: C22_10  and  C19_16 
REMARK       I    between atoms: C22_10  and  N25_19 
REMARK    3  A    between atoms: C12_12  and  C18_15 
REMARK    4  A    between atoms: N25_19  and  C37_23 
REMARK    5  A    between atoms: C37_23  and  C38_24 
REMARK    6  A    between atoms: C38_24  and  N4_25 
REMARK    7  A    between atoms: N4_25  and  C39_26 
REMARK    8  A    between atoms: N4_25  and  C40_27 
ROOT
HETATM    1  C4    D T   1       9.032   3.592   0.083  1.00 24.36     0.052 C 
HETATM    2  C13   D T   1       9.657   5.263  -3.188  1.00 24.57     0.002 A 
HETATM    3  C3    D T   1       9.937   6.392  -4.153  1.00 24.44     0.033 C 
HETATM    4  C14   D T   1       9.255   4.048  -1.335  1.00 24.54     0.064 A 
HETATM    5  C18   D T   1       9.478   3.936  -3.541  1.00 24.01     0.077 A 
HETATM    6  C19   D T   1       9.511   5.343  -1.780  1.00 25.13     0.069 A 
HETATM    7  N23   D T   1       9.239   3.217  -2.391  1.00 24.05    -0.250 NA
ENDROOT
BRANCH   5   8
HETATM    8  C12   D T   1       9.550   3.440  -4.862  1.00 23.99     0.024 C 
BRANCH   8   9
HETATM    9  C20   D T   1       8.576   2.736  -5.547  1.00 22.41     0.061 A 
HETATM   10  C17   D T   1       7.807   3.302  -6.675  1.00 22.55     0.025 A 
HETATM   11  C7    D T   1       7.821   4.548  -7.303  1.00 22.62     0.031 A 
HETATM   12  C16   D T   1       6.954   2.286  -7.132  1.00 22.15     0.085 A 
HETATM   13  C15   D T   1       6.972   4.785  -8.371  1.00 22.57     0.140 A 
HETATM   14  C5    D T   1       6.117   3.786  -8.820  1.00 22.50     0.031 A 
HETATM   15  F29   D T   1       6.979   5.992  -8.980  1.00 23.29    -0.204 F 
HETATM   16  C6    D T   1       6.103   2.545  -8.206  1.00 22.36     0.021 A 
HETATM   17  N24   D T   1       7.136   1.156  -6.346  1.00 22.12    -0.208 NA
HETATM   18  C21   D T   1       8.066   1.356  -5.394  1.00 22.05     0.279 A 
HETATM   19  O27   D T   1       8.398   0.523  -4.567  1.00 20.62    -0.265 OA
ENDBRANCH   8   9
ENDBRANCH   5   8
BRANCH   6  20
HETATM   20  C22   D T   1       9.612   6.575  -0.955  1.00 26.35     0.276 C 
HETATM   21  N25   D T   1      10.797   7.213  -0.820  1.00 28.46    -0.232 NA
HETATM   22  O28   D T   1       8.623   7.006  -0.389  1.00 27.15    -0.266 OA
BRANCH  21  23
HETATM   23  C37   D T   1      10.936   8.431  -0.010  1.00 29.92     0.164 C 
BRANCH  23  24
HETATM   24  C38   D T   1      10.915   9.660  -0.925  1.00 30.92     0.276 C 
BRANCH  24  25
HETATM   25  N4    D T   1       9.826  10.566  -0.515  1.00 32.03     0.139 N 
BRANCH  25  26
HETATM   26  C39   D T   1       8.526  10.352  -1.187  1.00 32.13     0.250 C 
HETATM   27  C42   D T   1       8.448  10.973  -2.589  1.00 32.46     0.037 C 
ENDBRANCH  25  26
BRANCH  25  28
HETATM   28  C40   D T   1       9.700  10.645   0.947  1.00 32.51     0.250 C 
HETATM   29  C41   D T   1       9.778  12.110   1.386  1.00 33.01     0.037 C 
ENDBRANCH  25  28
ENDBRANCH  24  25
ENDBRANCH  23  24
ENDBRANCH  21  23
ENDBRANCH   6  20
TORSDOF 8
ENDMDL
MODEL 8
REMARK VINA RESULT:    -7.219      4.260      5.833
REMARK INTER + INTRA:         -11.627
REMARK INTER:                 -10.613
REMARK INTRA:                  -1.014
REMARK UNBOUND:                -1.032
REMARK  8 active torsions:
REMARK  status: ('A' for Active; 'I' for Inactive)
REMARK    1  A    between atoms: C20_8  and  C12_12 
REMARK    2  A    between atoms: C22_10  and  C19_16 
REMARK       I    between atoms: C22_10  and  N25_19 
REMARK    3  A    between atoms: C12_12  and  C18_15 
REMARK    4  A    between atoms: N25_19  and  C37_23 
REMARK    5  A    between atoms: C37_23  and  C38_24 
REMARK    6  A    between atoms: C38_24  and  N4_25 
REMARK    7  A    between atoms: N4_25  and  C39_26 
REMARK    8  A    between atoms: N4_25  and  C40_27 
ROOT
HETATM    1  C4    D T   1      10.250   5.881  -4.501  1.00 24.36     0.052 C 
HETATM    2  C13   D T   1       8.022   3.061  -3.521  1.00 24.57     0.002 A 
HETATM    3  C3    D T   1       7.205   2.173  -2.611  1.00 24.44     0.033 C 
HETATM    4  C14   D T   1       9.358   4.679  -4.337  1.00 24.54     0.064 A 
HETATM    5  C18   D T   1       8.176   2.882  -4.885  1.00 24.01     0.077 A 
HETATM    6  C19   D T   1       8.778   4.205  -3.162  1.00 25.13     0.069 A 
HETATM    7  N23   D T   1       8.992   3.885  -5.357  1.00 24.05    -0.250 NA
ENDROOT
BRANCH   5   8
HETATM    8  C12   D T   1       7.572   1.845  -5.631  1.00 23.99     0.024 C 
BRANCH   8   9
HETATM    9  C20   D T   1       6.964   1.949  -6.870  1.00 22.41     0.061 A 
HETATM   10  C17   D T   1       6.287   3.175  -7.341  1.00 22.55     0.025 A 
HETATM   11  C7    D T   1       6.075   4.426  -6.759  1.00 22.62     0.031 A 
HETATM   12  C16   D T   1       5.836   2.913  -8.644  1.00 22.15     0.085 A 
HETATM   13  C15   D T   1       5.401   5.405  -7.469  1.00 22.57     0.140 A 
HETATM   14  C5    D T   1       4.943   5.146  -8.755  1.00 22.50     0.031 A 
HETATM   15  F29   D T   1       5.190   6.617  -6.909  1.00 23.29    -0.204 F 
HETATM   16  C6    D T   1       5.155   3.910  -9.341  1.00 22.36     0.021 A 
HETATM   17  N24   D T   1       6.173   1.610  -8.983  1.00 22.12    -0.208 NA
HETATM   18  C21   D T   1       6.827   0.988  -7.985  1.00 22.05     0.279 A 
HETATM   19  O27   D T   1       7.219  -0.167  -8.029  1.00 20.62    -0.265 OA
ENDBRANCH   8   9
ENDBRANCH   5   8
BRANCH   6  20
HETATM   20  C22   D T   1       8.919   4.774  -1.797  1.00 26.35     0.276 C 
HETATM   21  N25   D T   1      10.019   4.511  -1.055  1.00 28.46    -0.232 NA
HETATM   22  O28   D T   1       8.033   5.474  -1.340  1.00 27.15    -0.266 OA
BRANCH  21  23
HETATM   23  C37   D T   1      10.191   5.054   0.299  1.00 29.92     0.164 C 
BRANCH  23  24
HETATM   24  C38   D T   1      11.233   6.177   0.272  1.00 30.92     0.276 C 
BRANCH  24  25
HETATM   25  N4    D T   1      10.565   7.470   0.036  1.00 32.03     0.139 N 
BRANCH  25  26
HETATM   26  C39   D T   1      10.818   8.518   1.048  1.00 32.13     0.250 C 
HETATM   27  C42   D T   1      12.161   8.361   1.774  1.00 32.46     0.037 C 
ENDBRANCH  25  26
BRANCH  25  28
HETATM   28  C40   D T   1      10.769   7.950  -1.338  1.00 32.51     0.250 C 
HETATM   29  C41   D T   1       9.518   8.700  -1.807  1.00 33.01     0.037 C 
ENDBRANCH  25  28
ENDBRANCH  24  25
ENDBRANCH  23  24
ENDBRANCH  21  23
ENDBRANCH   6  20
TORSDOF 8
ENDMDL
MODEL 9
REMARK VINA RESULT:    -7.162      3.046      9.636
REMARK INTER + INTRA:         -11.543
REMARK INTER:                 -10.634
REMARK INTRA:                  -0.909
REMARK UNBOUND:                -1.032
REMARK  8 active torsions:
REMARK  status: ('A' for Active; 'I' for Inactive)
REMARK    1  A    between atoms: C20_8  and  C12_12 
REMARK    2  A    between atoms: C22_10  and  C19_16 
REMARK       I    between atoms: C22_10  and  N25_19 
REMARK    3  A    between atoms: C12_12  and  C18_15 
REMARK    4  A    between atoms: N25_19  and  C37_23 
REMARK    5  A    between atoms: C37_23  and  C38_24 
REMARK    6  A    between atoms: C38_24  and  N4_25 
REMARK    7  A    between atoms: N4_25  and  C39_26 
REMARK    8  A    between atoms: N4_25  and  C40_27 
ROOT
HETATM    1  C4    D T   1      10.555   0.827  -4.321  1.00 24.36     0.052 C 
HETATM    2  C13   D T   1       8.727   3.256  -2.168  1.00 24.57     0.002 A 
HETATM    3  C3    D T   1       7.849   4.437  -1.822  1.00 24.44     0.033 C 
HETATM    4  C14   D T   1       9.912   1.687  -3.266  1.00 24.54     0.064 A 
HETATM    5  C18   D T   1       9.348   2.425  -1.250  1.00 24.01     0.077 A 
HETATM    6  C19   D T   1       9.087   2.793  -3.458  1.00 25.13     0.069 A 
HETATM    7  N23   D T   1      10.059   1.475  -1.947  1.00 24.05    -0.250 NA
ENDROOT
BRANCH   5   8
HETATM    8  C12   D T   1       9.234   2.553   0.153  1.00 23.99     0.024 C 
BRANCH   8   9
HETATM    9  C20   D T   1      10.193   2.247   1.103  1.00 22.41     0.061 A 
HETATM   10  C17   D T   1      10.441   0.875   1.593  1.00 22.55     0.025 A 
HETATM   11  C7    D T   1       9.860  -0.359   1.296  1.00 22.62     0.031 A 
HETATM   12  C16   D T   1      11.503   0.958   2.506  1.00 22.15     0.085 A 
HETATM   13  C15   D T   1      10.326  -1.503   1.922  1.00 22.57     0.140 A 
HETATM   14  C5    D T   1      11.370  -1.424   2.836  1.00 22.50     0.031 A 
HETATM   15  F29   D T   1       9.764  -2.699   1.641  1.00 23.29    -0.204 F 
HETATM   16  C6    D T   1      11.956  -0.204   3.130  1.00 22.36     0.021 A 
HETATM   17  N24   D T   1      11.898   2.284   2.618  1.00 22.12    -0.208 NA
HETATM   18  C21   D T   1      11.165   3.091   1.830  1.00 22.05     0.279 A 
HETATM   19  O27   D T   1      11.305   4.301   1.758  1.00 20.62    -0.265 OA
ENDBRANCH   8   9
ENDBRANCH   5   8
BRANCH   6  20
HETATM   20  C22   D T   1       8.662   3.384  -4.754  1.00 26.35     0.276 C 
HETATM   21  N25   D T   1       7.353   3.409  -5.098  1.00 28.46    -0.232 NA
HETATM   22  O28   D T   1       9.497   3.839  -5.514  1.00 27.15    -0.266 OA
BRANCH  21  23
HETATM   23  C37   D T   1       6.896   3.983  -6.371  1.00 29.92     0.164 C 
BRANCH  23  24
HETATM   24  C38   D T   1       5.988   2.979  -7.088  1.00 30.92     0.276 C 
BRANCH  24  25
HETATM   25  N4    D T   1       6.110   3.154  -8.547  1.00 32.03     0.139 N 
BRANCH  25  26
HETATM   26  C39   D T   1       5.454   2.118  -9.375  1.00 32.13     0.250 C 
HETATM   27  C42   D T   1       5.368   0.747  -8.691  1.00 32.46     0.037 C 
ENDBRANCH  25  26
BRANCH  25  28
HETATM   28  C40   D T   1       5.761   4.518  -8.968  1.00 32.51     0.250 C 
HETATM   29  C41   D T   1       4.454   4.486  -9.766  1.00 33.01     0.037 C 
ENDBRANCH  25  28
ENDBRANCH  24  25
ENDBRANCH  23  24
ENDBRANCH  21  23
ENDBRANCH   6  20
TORSDOF 8
ENDMDL
