MODEL 1
REMARK VINA RESULT:    -7.490      0.000      0.000
REMARK INTER + INTRA:         -12.644
REMARK INTER:                 -10.993
REMARK INTRA:                  -1.651
REMARK UNBOUND:                -1.651
REMARK  8 active torsions:
REMARK  status: ('A' for Active; 'I' for Inactive)
REMARK    1  A    between atoms: C20_8  and  C12_12 
REMARK    2  A    between atoms: C22_10  and  C19_16 
REMARK       I    between atoms: C22_10  and  N25_19 
REMARK    3  A    between atoms: C12_12  and  C18_15 
REMARK    4  A    between atoms: N25_19  and  C37_23 
REMARK    5  A    between atoms: C37_23  and  C38_24 
REMARK    6  A    between atoms: C38_24  and  N4_25 
REMARK    7  A    between atoms: N4_25  and  C39_26 
REMARK    8  A    between atoms: N4_25  and  C40_27 
ROOT
HETATM    1  C4    D T   1       7.367   4.943   7.290  1.00 24.36     0.052 C 
HETATM    2  C13   D T   1       4.402   7.137   7.805  1.00 24.57     0.002 A 
HETATM    3  C3    D T   1       3.478   8.316   7.597  1.00 24.44     0.033 C 
HETATM    4  C14   D T   1       6.107   5.673   7.670  1.00 24.54     0.064 A 
HETATM    5  C18   D T   1       4.207   6.122   8.726  1.00 24.01     0.077 A 
HETATM    6  C19   D T   1       5.617   6.859   7.130  1.00 25.13     0.069 A 
HETATM    7  N23   D T   1       5.259   5.241   8.619  1.00 24.05    -0.250 NA
ENDROOT
BRANCH   5   8
HETATM    8  C12   D T   1       3.099   6.032   9.599  1.00 23.99     0.024 C 
BRANCH   8   9
HETATM    9  C20   D T   1       2.017   5.177   9.494  1.00 22.41     0.061 A 
HETATM   10  C17   D T   1       0.906   5.384   8.541  1.00 22.55     0.025 A 
HETATM   11  C7    D T   1       0.643   6.374   7.591  1.00 22.62     0.031 A 
HETATM   12  C16   D T   1       0.029   4.301   8.699  1.00 22.15     0.085 A 
HETATM   13  C15   D T   1      -0.501   6.290   6.816  1.00 22.57     0.140 A 
HETATM   14  C5    D T   1      -1.379   5.224   6.978  1.00 22.50     0.031 A 
HETATM   15  F29   D T   1      -0.764   7.246   5.900  1.00 23.29    -0.204 F 
HETATM   16  C6    D T   1      -1.120   4.237   7.913  1.00 22.36     0.021 A 
HETATM   17  N24   D T   1       0.519   3.467   9.696  1.00 22.12    -0.208 NA
HETATM   18  C21   D T   1       1.674   3.927  10.208  1.00 22.05     0.279 A 
HETATM   19  O27   D T   1       2.299   3.385  11.105  1.00 20.62    -0.265 OA
ENDBRANCH   8   9
ENDBRANCH   5   8
BRANCH   6  20
HETATM   20  C22   D T   1       6.235   7.683   6.058  1.00 26.35     0.276 C 
HETATM   21  N25   D T   1       5.793   7.585   4.783  1.00 28.46    -0.232 NA
HETATM   22  O28   D T   1       7.148   8.441   6.327  1.00 27.15    -0.266 OA
BRANCH  21  23
HETATM   23  C37   D T   1       6.379   8.382   3.695  1.00 29.92     0.164 C 
BRANCH  23  24
HETATM   24  C38   D T   1       5.263   8.931   2.802  1.00 30.92     0.276 C 
BRANCH  24  25
HETATM   25  N4    D T   1       4.133   9.377   3.638  1.00 32.03     0.139 N 
BRANCH  25  26
HETATM   26  C39   D T   1       3.997  10.839   3.807  1.00 32.13     0.250 C 
HETATM   27  C42   D T   1       3.827  11.599   2.484  1.00 32.46     0.037 C 
ENDBRANCH  25  26
BRANCH  25  28
HETATM   28  C40   D T   1       2.871   8.734   3.243  1.00 32.51     0.250 C 
HETATM   29  C41   D T   1       1.868   8.829   4.396  1.00 33.01     0.037 C 
ENDBRANCH  25  28
ENDBRANCH  24  25
ENDBRANCH  23  24
ENDBRANCH  21  23
ENDBRANCH   6  20
TORSDOF 8
ENDMDL
MODEL 2
REMARK VINA RESULT:    -7.487      3.539      7.345
REMARK INTER + INTRA:         -12.640
REMARK INTER:                 -11.249
REMARK INTRA:                  -1.390
REMARK UNBOUND:                -1.651
REMARK  8 active torsions:
REMARK  status: ('A' for Active; 'I' for Inactive)
REMARK    1  A    between atoms: C20_8  and  C12_12 
REMARK    2  A    between atoms: C22_10  and  C19_16 
REMARK       I    between atoms: C22_10  and  N25_19 
REMARK    3  A    between atoms: C12_12  and  C18_15 
REMARK    4  A    between atoms: N25_19  and  C37_23 
REMARK    5  A    between atoms: C37_23  and  C38_24 
REMARK    6  A    between atoms: C38_24  and  N4_25 
REMARK    7  A    between atoms: N4_25  and  C39_26 
REMARK    8  A    between atoms: N4_25  and  C40_27 
ROOT
HETATM    1  C4    D T   1       7.136   5.015   7.269  1.00 24.36     0.052 C 
HETATM    2  C13   D T   1       3.923   5.716   9.019  1.00 24.57     0.002 A 
HETATM    3  C3    D T   1       2.779   5.506   9.983  1.00 24.44     0.033 C 
HETATM    4  C14   D T   1       5.824   5.491   7.832  1.00 24.54     0.064 A 
HETATM    5  C18   D T   1       4.036   6.772   8.130  1.00 24.01     0.077 A 
HETATM    6  C19   D T   1       5.060   4.891   8.830  1.00 25.13     0.069 A 
HETATM    7  N23   D T   1       5.206   6.612   7.423  1.00 24.05    -0.250 NA
ENDROOT
BRANCH   5   8
HETATM    8  C12   D T   1       3.098   7.822   8.009  1.00 23.99     0.024 C 
BRANCH   8   9
HETATM    9  C20   D T   1       2.319   8.126   6.907  1.00 22.41     0.061 A 
HETATM   10  C17   D T   1       1.080   7.398   6.561  1.00 22.55     0.025 A 
HETATM   11  C7    D T   1       0.413   6.325   7.156  1.00 22.62     0.031 A 
HETATM   12  C16   D T   1       0.554   8.015   5.416  1.00 22.15     0.085 A 
HETATM   13  C15   D T   1      -0.764   5.858   6.596  1.00 22.57     0.140 A 
HETATM   14  C5    D T   1      -1.283   6.459   5.455  1.00 22.50     0.031 A 
HETATM   15  F29   D T   1      -1.411   4.817   7.163  1.00 23.29    -0.204 F 
HETATM   16  C6    D T   1      -0.630   7.527   4.865  1.00 22.36     0.021 A 
HETATM   17  N24   D T   1       1.400   9.047   5.032  1.00 22.12    -0.208 NA
HETATM   18  C21   D T   1       2.455   9.161   5.857  1.00 22.05     0.279 A 
HETATM   19  O27   D T   1       3.350   9.980   5.729  1.00 20.62    -0.265 OA
ENDBRANCH   8   9
ENDBRANCH   5   8
BRANCH   6  20
HETATM   20  C22   D T   1       5.363   3.633   9.563  1.00 26.35     0.276 C 
HETATM   21  N25   D T   1       6.091   3.666  10.703  1.00 28.46    -0.232 NA
HETATM   22  O28   D T   1       4.964   2.568   9.128  1.00 27.15    -0.266 OA
BRANCH  21  23
HETATM   23  C37   D T   1       6.412   2.444  11.455  1.00 29.92     0.164 C 
BRANCH  23  24
HETATM   24  C38   D T   1       5.832   2.543  12.868  1.00 30.92     0.276 C 
BRANCH  24  25
HETATM   25  N4    D T   1       6.928   2.617  13.851  1.00 32.03     0.139 N 
BRANCH  25  26
HETATM   26  C39   D T   1       8.295   2.512  13.297  1.00 32.13     0.250 C 
HETATM   27  C42   D T   1       9.185   1.506  14.040  1.00 32.46     0.037 C 
ENDBRANCH  25  26
BRANCH  25  28
HETATM   28  C40   D T   1       6.773   3.762  14.760  1.00 32.51     0.250 C 
HETATM   29  C41   D T   1       7.272   5.033  14.067  1.00 33.01     0.037 C 
ENDBRANCH  25  28
ENDBRANCH  24  25
ENDBRANCH  23  24
ENDBRANCH  21  23
ENDBRANCH   6  20
TORSDOF 8
ENDMDL
MODEL 3
REMARK VINA RESULT:    -7.312      2.657      3.547
REMARK INTER + INTRA:         -12.383
REMARK INTER:                 -11.048
REMARK INTRA:                  -1.335
REMARK UNBOUND:                -1.651
REMARK  8 active torsions:
REMARK  status: ('A' for Active; 'I' for Inactive)
REMARK    1  A    between atoms: C20_8  and  C12_12 
REMARK    2  A    between atoms: C22_10  and  C19_16 
REMARK       I    between atoms: C22_10  and  N25_19 
REMARK    3  A    between atoms: C12_12  and  C18_15 
REMARK    4  A    between atoms: N25_19  and  C37_23 
REMARK    5  A    between atoms: C37_23  and  C38_24 
REMARK    6  A    between atoms: C38_24  and  N4_25 
REMARK    7  A    between atoms: N4_25  and  C39_26 
REMARK    8  A    between atoms: N4_25  and  C40_27 
ROOT
HETATM    1  C4    D T   1       6.220   6.216   5.806  1.00 24.36     0.052 C 
HETATM    2  C13   D T   1       3.087   8.229   5.755  1.00 24.57     0.002 A 
HETATM    3  C3    D T   1       2.126   9.315   5.327  1.00 24.44     0.033 C 
HETATM    4  C14   D T   1       4.880   6.885   5.963  1.00 24.54     0.064 A 
HETATM    5  C18   D T   1       2.841   7.288   6.741  1.00 24.01     0.077 A 
HETATM    6  C19   D T   1       4.390   7.980   5.257  1.00 25.13     0.069 A 
HETATM    7  N23   D T   1       3.950   6.479   6.844  1.00 24.05    -0.250 NA
ENDROOT
BRANCH   5   8
HETATM    8  C12   D T   1       1.642   7.198   7.483  1.00 23.99     0.024 C 
BRANCH   8   9
HETATM    9  C20   D T   1       0.976   6.046   7.861  1.00 22.41     0.061 A 
HETATM   10  C17   D T   1       1.454   5.143   8.930  1.00 22.55     0.025 A 
HETATM   11  C7    D T   1       2.574   5.172   9.764  1.00 22.62     0.031 A 
HETATM   12  C16   D T   1       0.503   4.120   9.051  1.00 22.15     0.085 A 
HETATM   13  C15   D T   1       2.750   4.169  10.703  1.00 22.57     0.140 A 
HETATM   14  C5    D T   1       1.816   3.146  10.819  1.00 22.50     0.031 A 
HETATM   15  F29   D T   1       3.833   4.187  11.510  1.00 23.29    -0.204 F 
HETATM   16  C6    D T   1       0.701   3.117   9.998  1.00 22.36     0.021 A 
HETATM   17  N24   D T   1      -0.503   4.326   8.116  1.00 22.12    -0.208 NA
HETATM   18  C21   D T   1      -0.282   5.431   7.382  1.00 22.05     0.279 A 
HETATM   19  O27   D T   1      -1.010   5.824   6.485  1.00 20.62    -0.265 OA
ENDBRANCH   8   9
ENDBRANCH   5   8
BRANCH   6  20
HETATM   20  C22   D T   1       5.084   8.747   4.189  1.00 26.35     0.276 C 
HETATM   21  N25   D T   1       5.696   9.918   4.479  1.00 28.46    -0.232 NA
HETATM   22  O28   D T   1       5.091   8.324   3.048  1.00 27.15    -0.266 OA
BRANCH  21  23
HETATM   23  C37   D T   1       6.391  10.706   3.450  1.00 29.92     0.164 C 
BRANCH  23  24
HETATM   24  C38   D T   1       5.406  11.678   2.795  1.00 30.92     0.276 C 
BRANCH  24  25
HETATM   25  N4    D T   1       5.342  11.419   1.345  1.00 32.03     0.139 N 
BRANCH  25  26
HETATM   26  C39   D T   1       6.448  10.611   0.789  1.00 32.13     0.250 C 
HETATM   27  C42   D T   1       7.378  11.399  -0.144  1.00 32.46     0.037 C 
ENDBRANCH  25  26
BRANCH  25  28
HETATM   28  C40   D T   1       4.020  10.927   0.934  1.00 32.51     0.250 C 
HETATM   29  C41   D T   1       3.015  11.163   2.065  1.00 33.01     0.037 C 
ENDBRANCH  25  28
ENDBRANCH  24  25
ENDBRANCH  23  24
ENDBRANCH  21  23
ENDBRANCH   6  20
TORSDOF 8
ENDMDL
MODEL 4
REMARK VINA RESULT:    -7.098      3.744      7.229
REMARK INTER + INTRA:         -12.070
REMARK INTER:                 -10.902
REMARK INTRA:                  -1.168
REMARK UNBOUND:                -1.651
REMARK  8 active torsions:
REMARK  status: ('A' for Active; 'I' for Inactive)
REMARK    1  A    between atoms: C20_8  and  C12_12 
REMARK    2  A    between atoms: C22_10  and  C19_16 
REMARK       I    between atoms: C22_10  and  N25_19 
REMARK    3  A    between atoms: C12_12  and  C18_15 
REMARK    4  A    between atoms: N25_19  and  C37_23 
REMARK    5  A    between atoms: C37_23  and  C38_24 
REMARK    6  A    between atoms: C38_24  and  N4_25 
REMARK    7  A    between atoms: N4_25  and  C39_26 
REMARK    8  A    between atoms: N4_25  and  C40_27 
ROOT
HETATM    1  C4    D T   1       5.974   5.831   8.254  1.00 24.36     0.052 C 
HETATM    2  C13   D T   1       2.859   4.445   9.753  1.00 24.57     0.002 A 
HETATM    3  C3    D T   1       1.986   3.495  10.540  1.00 24.44     0.033 C 
HETATM    4  C14   D T   1       4.604   5.455   8.751  1.00 24.54     0.064 A 
HETATM    5  C18   D T   1       2.412   5.570   9.081  1.00 24.01     0.077 A 
HETATM    6  C19   D T   1       4.258   4.363   9.542  1.00 25.13     0.069 A 
HETATM    7  N23   D T   1       3.497   6.169   8.483  1.00 24.05    -0.250 NA
ENDROOT
BRANCH   5   8
HETATM    8  C12   D T   1       1.067   6.004   9.048  1.00 23.99     0.024 C 
BRANCH   8   9
HETATM    9  C20   D T   1       0.137   5.775   8.050  1.00 22.41     0.061 A 
HETATM   10  C17   D T   1      -0.116   6.722   6.942  1.00 22.55     0.025 A 
HETATM   11  C7    D T   1       0.427   7.966   6.616  1.00 22.62     0.031 A 
HETATM   12  C16   D T   1      -1.085   6.130   6.119  1.00 22.15     0.085 A 
HETATM   13  C15   D T   1      -0.012   8.624   5.479  1.00 22.57     0.140 A 
HETATM   14  C5    D T   1      -0.981   8.047   4.666  1.00 22.50     0.031 A 
HETATM   15  F29   D T   1       0.505   9.830   5.159  1.00 23.29    -0.204 F 
HETATM   16  C6    D T   1      -1.518   6.811   4.982  1.00 22.36     0.021 A 
HETATM   17  N24   D T   1      -1.452   4.906   6.662  1.00 22.12    -0.208 NA
HETATM   18  C21   D T   1      -0.780   4.642   7.797  1.00 22.05     0.279 A 
HETATM   19  O27   D T   1      -0.930   3.639   8.473  1.00 20.62    -0.265 OA
ENDBRANCH   8   9
ENDBRANCH   5   8
BRANCH   6  20
HETATM   20  C22   D T   1       5.165   3.310  10.070  1.00 26.35     0.276 C 
HETATM   21  N25   D T   1       5.834   3.504  11.230  1.00 28.46    -0.232 NA
HETATM   22  O28   D T   1       5.315   2.274   9.450  1.00 27.15    -0.266 OA
BRANCH  21  23
HETATM   23  C37   D T   1       6.740   2.488  11.784  1.00 29.92     0.164 C 
BRANCH  23  24
HETATM   24  C38   D T   1       6.797   2.626  13.308  1.00 30.92     0.276 C 
BRANCH  24  25
HETATM   25  N4    D T   1       8.133   3.103  13.714  1.00 32.03     0.139 N 
BRANCH  25  26
HETATM   26  C39   D T   1       9.274   2.520  12.975  1.00 32.13     0.250 C 
HETATM   27  C42   D T   1       9.755   1.178  13.542  1.00 32.46     0.037 C 
ENDBRANCH  25  26
BRANCH  25  28
HETATM   28  C40   D T   1       8.193   4.569  13.784  1.00 32.51     0.250 C 
HETATM   29  C41   D T   1       7.475   5.048  15.049  1.00 33.01     0.037 C 
ENDBRANCH  25  28
ENDBRANCH  24  25
ENDBRANCH  23  24
ENDBRANCH  21  23
ENDBRANCH   6  20
TORSDOF 8
ENDMDL
MODEL 5
REMARK VINA RESULT:    -7.055      2.986      6.127
REMARK INTER + INTRA:         -12.006
REMARK INTER:                 -10.682
REMARK INTRA:                  -1.324
REMARK UNBOUND:                -1.651
REMARK  8 active torsions:
REMARK  status: ('A' for Active; 'I' for Inactive)
REMARK    1  A    between atoms: C20_8  and  C12_12 
REMARK    2  A    between atoms: C22_10  and  C19_16 
REMARK       I    between atoms: C22_10  and  N25_19 
REMARK    3  A    between atoms: C12_12  and  C18_15 
REMARK    4  A    between atoms: N25_19  and  C37_23 
REMARK    5  A    between atoms: C37_23  and  C38_24 
REMARK    6  A    between atoms: C38_24  and  N4_25 
REMARK    7  A    between atoms: N4_25  and  C39_26 
REMARK    8  A    between atoms: N4_25  and  C40_27 
ROOT
HETATM    1  C4    D T   1       6.132   8.025   7.160  1.00 24.36     0.052 C 
HETATM    2  C13   D T   1       4.214   5.408   8.990  1.00 24.57     0.002 A 
HETATM    3  C3    D T   1       3.965   4.112   9.727  1.00 24.44     0.033 C 
HETATM    4  C14   D T   1       5.166   7.109   7.863  1.00 24.54     0.064 A 
HETATM    5  C18   D T   1       3.253   6.363   8.705  1.00 24.01     0.077 A 
HETATM    6  C19   D T   1       5.438   5.877   8.451  1.00 25.13     0.069 A 
HETATM    7  N23   D T   1       3.862   7.391   8.022  1.00 24.05    -0.250 NA
ENDROOT
BRANCH   5   8
HETATM    8  C12   D T   1       1.893   6.269   9.079  1.00 23.99     0.024 C 
BRANCH   8   9
HETATM    9  C20   D T   1       0.834   5.854   8.292  1.00 22.41     0.061 A 
HETATM   10  C17   D T   1       0.302   6.645   7.162  1.00 22.55     0.025 A 
HETATM   11  C7    D T   1       0.654   7.884   6.623  1.00 22.62     0.031 A 
HETATM   12  C16   D T   1      -0.729   5.888   6.588  1.00 22.15     0.085 A 
HETATM   13  C15   D T   1      -0.035   8.372   5.526  1.00 22.57     0.140 A 
HETATM   14  C5    D T   1      -1.066   7.630   4.961  1.00 22.50     0.031 A 
HETATM   15  F29   D T   1       0.296   9.572   5.003  1.00 23.29    -0.204 F 
HETATM   16  C6    D T   1      -1.415   6.398   5.487  1.00 22.36     0.021 A 
HETATM   17  N24   D T   1      -0.874   4.707   7.305  1.00 22.12    -0.208 NA
HETATM   18  C21   D T   1       0.005   4.629   8.320  1.00 22.05     0.279 A 
HETATM   19  O27   D T   1       0.073   3.699   9.106  1.00 20.62    -0.265 OA
ENDBRANCH   8   9
ENDBRANCH   5   8
BRANCH   6  20
HETATM   20  C22   D T   1       6.749   5.177   8.509  1.00 26.35     0.276 C 
HETATM   21  N25   D T   1       7.500   5.229   9.632  1.00 28.46    -0.232 NA
HETATM   22  O28   D T   1       7.151   4.563   7.537  1.00 27.15    -0.266 OA
BRANCH  21  23
HETATM   23  C37   D T   1       8.802   4.551   9.728  1.00 29.92     0.164 C 
BRANCH  23  24
HETATM   24  C38   D T   1       8.883   3.781  11.049  1.00 30.92     0.276 C 
BRANCH  24  25
HETATM   25  N4    D T   1       7.702   4.088  11.877  1.00 32.03     0.139 N 
BRANCH  25  26
HETATM   26  C39   D T   1       6.809   2.947  12.170  1.00 32.13     0.250 C 
HETATM   27  C42   D T   1       5.597   3.319  13.035  1.00 32.46     0.037 C 
ENDBRANCH  25  26
BRANCH  25  28
HETATM   28  C40   D T   1       8.061   4.850  13.082  1.00 32.51     0.250 C 
HETATM   29  C41   D T   1       9.399   4.341  13.626  1.00 33.01     0.037 C 
ENDBRANCH  25  28
ENDBRANCH  24  25
ENDBRANCH  23  24
ENDBRANCH  21  23
ENDBRANCH   6  20
TORSDOF 8
ENDMDL
MODEL 6
REMARK VINA RESULT:    -7.042      2.832      4.376
REMARK INTER + INTRA:         -11.987
REMARK INTER:                 -10.298
REMARK INTRA:                  -1.689
REMARK UNBOUND:                -1.651
REMARK  8 active torsions:
REMARK  status: ('A' for Active; 'I' for Inactive)
REMARK    1  A    between atoms: C20_8  and  C12_12 
REMARK    2  A    between atoms: C22_10  and  C19_16 
REMARK       I    between atoms: C22_10  and  N25_19 
REMARK    3  A    between atoms: C12_12  and  C18_15 
REMARK    4  A    between atoms: N25_19  and  C37_23 
REMARK    5  A    between atoms: C37_23  and  C38_24 
REMARK    6  A    between atoms: C38_24  and  N4_25 
REMARK    7  A    between atoms: N4_25  and  C39_26 
REMARK    8  A    between atoms: N4_25  and  C40_27 
ROOT
HETATM    1  C4    D T   1       5.380   2.869  10.246  1.00 24.36     0.052 C 
HETATM    2  C13   D T   1       4.209   5.908   8.438  1.00 24.57     0.002 A 
HETATM    3  C3    D T   1       4.291   7.128   7.549  1.00 24.44     0.033 C 
HETATM    4  C14   D T   1       4.693   4.053   9.619  1.00 24.54     0.064 A 
HETATM    5  C18   D T   1       3.072   5.477   9.101  1.00 24.01     0.077 A 
HETATM    6  C19   D T   1       5.250   5.005   8.769  1.00 25.13     0.069 A 
HETATM    7  N23   D T   1       3.395   4.342   9.809  1.00 24.05    -0.250 NA
ENDROOT
BRANCH   5   8
HETATM    8  C12   D T   1       1.812   6.112   9.027  1.00 23.99     0.024 C 
BRANCH   8   9
HETATM    9  C20   D T   1       0.758   5.788   8.191  1.00 22.41     0.061 A 
HETATM   10  C17   D T   1       0.327   6.636   7.060  1.00 22.55     0.025 A 
HETATM   11  C7    D T   1       0.786   7.857   6.562  1.00 22.62     0.031 A 
HETATM   12  C16   D T   1      -0.731   5.964   6.430  1.00 22.15     0.085 A 
HETATM   13  C15   D T   1       0.175   8.413   5.450  1.00 22.57     0.140 A 
HETATM   14  C5    D T   1      -0.881   7.756   4.830  1.00 22.50     0.031 A 
HETATM   15  F29   D T   1       0.610   9.596   4.966  1.00 23.29    -0.204 F 
HETATM   16  C6    D T   1      -1.336   6.542   5.316  1.00 22.36     0.021 A 
HETATM   17  N24   D T   1      -0.986   4.783   7.115  1.00 22.12    -0.208 NA
HETATM   18  C21   D T   1      -0.155   4.624   8.161  1.00 22.05     0.279 A 
HETATM   19  O27   D T   1      -0.183   3.677   8.930  1.00 20.62    -0.265 OA
ENDBRANCH   8   9
ENDBRANCH   5   8
BRANCH   6  20
HETATM   20  C22   D T   1       6.657   5.074   8.293  1.00 26.35     0.276 C 
HETATM   21  N25   D T   1       7.617   5.616   9.078  1.00 28.46    -0.232 NA
HETATM   22  O28   D T   1       6.944   4.652   7.188  1.00 27.15    -0.266 OA
BRANCH  21  23
HETATM   23  C37   D T   1       9.018   5.704   8.642  1.00 29.92     0.164 C 
BRANCH  23  24
HETATM   24  C38   D T   1       9.381   7.166   8.373  1.00 30.92     0.276 C 
BRANCH  24  25
HETATM   25  N4    D T   1       9.217   7.463   6.938  1.00 32.03     0.139 N 
BRANCH  25  26
HETATM   26  C39   D T   1       7.989   8.203   6.573  1.00 32.13     0.250 C 
HETATM   27  C42   D T   1       7.423   9.059   7.714  1.00 32.46     0.037 C 
ENDBRANCH  25  26
BRANCH  25  28
HETATM   28  C40   D T   1      10.429   8.059   6.359  1.00 32.51     0.250 C 
HETATM   29  C41   D T   1      11.129   8.919   7.416  1.00 33.01     0.037 C 
ENDBRANCH  25  28
ENDBRANCH  24  25
ENDBRANCH  23  24
ENDBRANCH  21  23
ENDBRANCH   6  20
TORSDOF 8
ENDMDL
MODEL 7
REMARK VINA RESULT:    -6.999      2.634      5.395
REMARK INTER + INTRA:         -11.923
REMARK INTER:                 -10.641
REMARK INTRA:                  -1.283
REMARK UNBOUND:                -1.651
REMARK  8 active torsions:
REMARK  status: ('A' for Active; 'I' for Inactive)
REMARK    1  A    between atoms: C20_8  and  C12_12 
REMARK    2  A    between atoms: C22_10  and  C19_16 
REMARK       I    between atoms: C22_10  and  N25_19 
REMARK    3  A    between atoms: C12_12  and  C18_15 
REMARK    4  A    between atoms: N25_19  and  C37_23 
REMARK    5  A    between atoms: C37_23  and  C38_24 
REMARK    6  A    between atoms: C38_24  and  N4_25 
REMARK    7  A    between atoms: N4_25  and  C39_26 
REMARK    8  A    between atoms: N4_25  and  C40_27 
ROOT
HETATM    1  C4    D T   1       5.143   8.624   3.137  1.00 24.36     0.052 C 
HETATM    2  C13   D T   1       3.563   8.235   6.488  1.00 24.57     0.002 A 
HETATM    3  C3    D T   1       3.481   8.007   7.980  1.00 24.44     0.033 C 
HETATM    4  C14   D T   1       4.295   8.496   4.375  1.00 24.54     0.064 A 
HETATM    5  C18   D T   1       2.480   8.446   5.652  1.00 24.01     0.077 A 
HETATM    6  C19   D T   1       4.726   8.261   5.678  1.00 25.13     0.069 A 
HETATM    7  N23   D T   1       2.956   8.607   4.370  1.00 24.05    -0.250 NA
ENDROOT
BRANCH   5   8
HETATM    8  C12   D T   1       1.134   8.495   6.079  1.00 23.99     0.024 C 
BRANCH   8   9
HETATM    9  C20   D T   1       0.221   7.456   6.094  1.00 22.41     0.061 A 
HETATM   10  C17   D T   1       0.223   6.387   7.115  1.00 22.55     0.025 A 
HETATM   11  C7    D T   1       1.039   6.132   8.220  1.00 22.62     0.031 A 
HETATM   12  C16   D T   1      -0.863   5.549   6.825  1.00 22.15     0.085 A 
HETATM   13  C15   D T   1       0.780   5.033   9.020  1.00 22.57     0.140 A 
HETATM   14  C5    D T   1      -0.289   4.193   8.730  1.00 22.50     0.031 A 
HETATM   15  F29   D T   1       1.567   4.777  10.087  1.00 23.29    -0.204 F 
HETATM   16  C6    D T   1      -1.105   4.444   7.640  1.00 22.36     0.021 A 
HETATM   17  N24   D T   1      -1.507   6.021   5.689  1.00 22.12    -0.208 NA
HETATM   18  C21   D T   1      -0.917   7.129   5.207  1.00 22.05     0.279 A 
HETATM   19  O27   D T   1      -1.282   7.730   4.209  1.00 20.62    -0.265 OA
ENDBRANCH   8   9
ENDBRANCH   5   8
BRANCH   6  20
HETATM   20  C22   D T   1       6.125   8.072   6.144  1.00 26.35     0.276 C 
HETATM   21  N25   D T   1       6.508   6.896   6.693  1.00 28.46    -0.232 NA
HETATM   22  O28   D T   1       6.926   8.983   6.041  1.00 27.15    -0.266 OA
BRANCH  21  23
HETATM   23  C37   D T   1       7.882   6.671   7.167  1.00 29.92     0.164 C 
BRANCH  23  24
HETATM   24  C38   D T   1       7.993   5.270   7.773  1.00 30.92     0.276 C 
BRANCH  24  25
HETATM   25  N4    D T   1       7.251   5.219   9.046  1.00 32.03     0.139 N 
BRANCH  25  26
HETATM   26  C39   D T   1       6.215   4.168   9.144  1.00 32.13     0.250 C 
HETATM   27  C42   D T   1       4.794   4.675   8.861  1.00 32.46     0.037 C 
ENDBRANCH  25  26
BRANCH  25  28
HETATM   28  C40   D T   1       8.153   5.233  10.206  1.00 32.51     0.250 C 
HETATM   29  C41   D T   1       7.682   4.195  11.229  1.00 33.01     0.037 C 
ENDBRANCH  25  28
ENDBRANCH  24  25
ENDBRANCH  23  24
ENDBRANCH  21  23
ENDBRANCH   6  20
TORSDOF 8
ENDMDL
MODEL 8
REMARK VINA RESULT:    -6.988      1.838      2.518
REMARK INTER + INTRA:         -11.908
REMARK INTER:                 -10.729
REMARK INTRA:                  -1.179
REMARK UNBOUND:                -1.651
REMARK  8 active torsions:
REMARK  status: ('A' for Active; 'I' for Inactive)
REMARK    1  A    between atoms: C20_8  and  C12_12 
REMARK    2  A    between atoms: C22_10  and  C19_16 
REMARK       I    between atoms: C22_10  and  N25_19 
REMARK    3  A    between atoms: C12_12  and  C18_15 
REMARK    4  A    between atoms: N25_19  and  C37_23 
REMARK    5  A    between atoms: C37_23  and  C38_24 
REMARK    6  A    between atoms: C38_24  and  N4_25 
REMARK    7  A    between atoms: N4_25  and  C39_26 
REMARK    8  A    between atoms: N4_25  and  C40_27 
ROOT
HETATM    1  C4    D T   1       6.087   4.254   8.644  1.00 24.36     0.052 C 
HETATM    2  C13   D T   1       3.699   7.051   8.058  1.00 24.57     0.002 A 
HETATM    3  C3    D T   1       3.222   8.418   7.623  1.00 24.44     0.033 C 
HETATM    4  C14   D T   1       4.958   5.240   8.507  1.00 24.54     0.064 A 
HETATM    5  C18   D T   1       2.905   6.073   8.632  1.00 24.01     0.077 A 
HETATM    6  C19   D T   1       5.013   6.527   7.979  1.00 25.13     0.069 A 
HETATM    7  N23   D T   1       3.697   4.978   8.892  1.00 24.05    -0.250 NA
ENDROOT
BRANCH   5   8
HETATM    8  C12   D T   1       1.520   6.208   8.881  1.00 23.99     0.024 C 
BRANCH   8   9
HETATM    9  C20   D T   1       0.479   5.832   8.050  1.00 22.41     0.061 A 
HETATM   10  C17   D T   1      -0.010   6.667   6.932  1.00 22.55     0.025 A 
HETATM   11  C7    D T   1       0.372   7.918   6.445  1.00 22.62     0.031 A 
HETATM   12  C16   D T   1      -1.033   5.941   6.304  1.00 22.15     0.085 A 
HETATM   13  C15   D T   1      -0.280   8.450   5.345  1.00 22.57     0.140 A 
HETATM   14  C5    D T   1      -1.302   7.740   4.726  1.00 22.50     0.031 A 
HETATM   15  F29   D T   1       0.081   9.662   4.871  1.00 23.29    -0.204 F 
HETATM   16  C6    D T   1      -1.681   6.496   5.202  1.00 22.36     0.021 A 
HETATM   17  N24   D T   1      -1.213   4.740   6.978  1.00 22.12    -0.208 NA
HETATM   18  C21   D T   1      -0.365   4.618   8.014  1.00 22.05     0.279 A 
HETATM   19  O27   D T   1      -0.330   3.662   8.772  1.00 20.62    -0.265 OA
ENDBRANCH   8   9
ENDBRANCH   5   8
BRANCH   6  20
HETATM   20  C22   D T   1       6.207   7.227   7.437  1.00 26.35     0.276 C 
HETATM   21  N25   D T   1       6.365   7.372   6.101  1.00 28.46    -0.232 NA
HETATM   22  O28   D T   1       7.052   7.662   8.198  1.00 27.15    -0.266 OA
BRANCH  21  23
HETATM   23  C37   D T   1       7.532   8.056   5.526  1.00 29.92     0.164 C 
BRANCH  23  24
HETATM   24  C38   D T   1       7.386   8.130   4.004  1.00 30.92     0.276 C 
BRANCH  24  25
HETATM   25  N4    D T   1       6.456   9.217   3.647  1.00 32.03     0.139 N 
BRANCH  25  26
HETATM   26  C39   D T   1       7.080  10.526   3.355  1.00 32.13     0.250 C 
HETATM   27  C42   D T   1       8.462  10.416   2.697  1.00 32.46     0.037 C 
ENDBRANCH  25  26
BRANCH  25  28
HETATM   28  C40   D T   1       5.501   8.802   2.609  1.00 32.51     0.250 C 
HETATM   29  C41   D T   1       4.271   8.174   3.272  1.00 33.01     0.037 C 
ENDBRANCH  25  28
ENDBRANCH  24  25
ENDBRANCH  23  24
ENDBRANCH  21  23
ENDBRANCH   6  20
TORSDOF 8
ENDMDL
MODEL 9
REMARK VINA RESULT:    -6.787      3.146      5.786
REMARK INTER + INTRA:         -11.613
REMARK INTER:                 -10.231
REMARK INTRA:                  -1.382
REMARK UNBOUND:                -1.651
REMARK  8 active torsions:
REMARK  status: ('A' for Active; 'I' for Inactive)
REMARK    1  A    between atoms: C20_8  and  C12_12 
REMARK    2  A    between atoms: C22_10  and  C19_16 
REMARK       I    between atoms: C22_10  and  N25_19 
REMARK    3  A    between atoms: C12_12  and  C18_15 
REMARK    4  A    between atoms: N25_19  and  C37_23 
REMARK    5  A    between atoms: C37_23  and  C38_24 
REMARK    6  A    between atoms: C38_24  and  N4_25 
REMARK    7  A    between atoms: N4_25  and  C39_26 
REMARK    8  A    between atoms: N4_25  and  C40_27 
ROOT
HETATM    1  C4    D T   1       5.288   2.751  10.347  1.00 24.36     0.052 C 
HETATM    2  C13   D T   1       4.263   5.827   8.513  1.00 24.57     0.002 A 
HETATM    3  C3    D T   1       4.408   7.044   7.629  1.00 24.44     0.033 C 
HETATM    4  C14   D T   1       4.657   3.957   9.703  1.00 24.54     0.064 A 
HETATM    5  C18   D T   1       3.096   5.431   9.143  1.00 24.01     0.077 A 
HETATM    6  C19   D T   1       5.266   4.891   8.871  1.00 25.13     0.069 A 
HETATM    7  N23   D T   1       3.364   4.286   9.858  1.00 24.05    -0.250 NA
ENDROOT
BRANCH   5   8
HETATM    8  C12   D T   1       1.858   6.105   9.035  1.00 23.99     0.024 C 
BRANCH   8   9
HETATM    9  C20   D T   1       0.782   5.758   8.237  1.00 22.41     0.061 A 
HETATM   10  C17   D T   1       0.304   6.588   7.112  1.00 22.55     0.025 A 
HETATM   11  C7    D T   1       0.730   7.810   6.586  1.00 22.62     0.031 A 
HETATM   12  C16   D T   1      -0.765   5.896   6.524  1.00 22.15     0.085 A 
HETATM   13  C15   D T   1       0.077   8.346   5.489  1.00 22.57     0.140 A 
HETATM   14  C5    D T   1      -0.991   7.669   4.911  1.00 22.50     0.031 A 
HETATM   15  F29   D T   1       0.480   9.530   4.979  1.00 23.29    -0.204 F 
HETATM   16  C6    D T   1      -1.413   6.455   5.424  1.00 22.36     0.021 A 
HETATM   17  N24   D T   1      -0.982   4.720   7.229  1.00 22.12    -0.208 NA
HETATM   18  C21   D T   1      -0.116   4.582   8.249  1.00 22.05     0.279 A 
HETATM   19  O27   D T   1      -0.107   3.643   9.028  1.00 20.62    -0.265 OA
ENDBRANCH   8   9
ENDBRANCH   5   8
BRANCH   6  20
HETATM   20  C22   D T   1       6.687   4.917   8.434  1.00 26.35     0.276 C 
HETATM   21  N25   D T   1       7.660   5.283   9.300  1.00 28.46    -0.232 NA
HETATM   22  O28   D T   1       6.975   4.619   7.289  1.00 27.15    -0.266 OA
BRANCH  21  23
HETATM   23  C37   D T   1       9.076   5.322   8.906  1.00 29.92     0.164 C 
BRANCH  23  24
HETATM   24  C38   D T   1       9.958   5.334  10.158  1.00 30.92     0.276 C 
BRANCH  24  25
HETATM   25  N4    D T   1       9.248   6.010  11.259  1.00 32.03     0.139 N 
BRANCH  25  26
HETATM   26  C39   D T   1       9.150   5.249  12.523  1.00 32.13     0.250 C 
HETATM   27  C42   D T   1       7.713   4.867  12.903  1.00 32.46     0.037 C 
ENDBRANCH  25  26
BRANCH  25  28
HETATM   28  C40   D T   1       9.731   7.383  11.462  1.00 32.51     0.250 C 
HETATM   29  C41   D T   1      11.220   7.456  11.106  1.00 33.01     0.037 C 
ENDBRANCH  25  28
ENDBRANCH  24  25
ENDBRANCH  23  24
ENDBRANCH  21  23
ENDBRANCH   6  20
TORSDOF 8
ENDMDL
