MODEL 1
REMARK VINA RESULT:    -8.017      0.000      0.000
REMARK INTER + INTRA:         -13.264
REMARK INTER:                 -11.766
REMARK INTRA:                  -1.498
REMARK UNBOUND:                -1.498
REMARK  8 active torsions:
REMARK  status: ('A' for Active; 'I' for Inactive)
REMARK    1  A    between atoms: C20_8  and  C12_12 
REMARK    2  A    between atoms: C22_10  and  C19_16 
REMARK       I    between atoms: C22_10  and  N25_19 
REMARK    3  A    between atoms: C12_12  and  C18_15 
REMARK    4  A    between atoms: N25_19  and  C37_23 
REMARK    5  A    between atoms: C37_23  and  C38_24 
REMARK    6  A    between atoms: C38_24  and  N4_25 
REMARK    7  A    between atoms: N4_25  and  C39_26 
REMARK    8  A    between atoms: N4_25  and  C40_27 
ROOT
HETATM    1  C4    D T   1       2.608  18.416  -1.827  1.00 24.36     0.052 C 
HETATM    2  C13   D T   1       3.864  14.961  -2.427  1.00 24.57     0.002 A 
HETATM    3  C3    D T   1       4.749  13.869  -2.982  1.00 24.44     0.033 C 
HETATM    4  C14   D T   1       2.930  16.949  -1.933  1.00 24.54     0.064 A 
HETATM    5  C18   D T   1       2.766  14.760  -1.607  1.00 24.01     0.077 A 
HETATM    6  C19   D T   1       3.972  16.357  -2.643  1.00 25.13     0.069 A 
HETATM    7  N23   D T   1       2.220  15.989  -1.317  1.00 24.05    -0.250 NA
ENDROOT
BRANCH   5   8
HETATM    8  C12   D T   1       2.324  13.497  -1.154  1.00 23.99     0.024 C 
BRANCH   8   9
HETATM    9  C20   D T   1       2.344  13.018   0.145  1.00 22.41     0.061 A 
HETATM   10  C17   D T   1       3.585  12.636   0.850  1.00 22.55     0.025 A 
HETATM   11  C7    D T   1       4.929  12.636   0.473  1.00 22.62     0.031 A 
HETATM   12  C16   D T   1       3.209  12.243   2.144  1.00 22.15     0.085 A 
HETATM   13  C15   D T   1       5.893  12.228   1.380  1.00 22.57     0.140 A 
HETATM   14  C5    D T   1       5.525  11.825   2.659  1.00 22.50     0.031 A 
HETATM   15  F29   D T   1       7.195  12.220   1.020  1.00 23.29    -0.204 F 
HETATM   16  C6    D T   1       4.193  11.830   3.040  1.00 22.36     0.021 A 
HETATM   17  N24   D T   1       1.829  12.337   2.260  1.00 22.12    -0.208 NA
HETATM   18  C21   D T   1       1.261  12.776   1.123  1.00 22.05     0.279 A 
HETATM   19  O27   D T   1       0.061  12.931   0.964  1.00 20.62    -0.265 OA
ENDBRANCH   8   9
ENDBRANCH   5   8
BRANCH   6  20
HETATM   20  C22   D T   1       5.000  17.042  -3.470  1.00 26.35     0.276 C 
HETATM   21  N25   D T   1       4.704  17.460  -4.723  1.00 28.46    -0.232 NA
HETATM   22  O28   D T   1       6.118  17.219  -3.021  1.00 27.15    -0.266 OA
BRANCH  21  23
HETATM   23  C37   D T   1       5.695  18.137  -5.569  1.00 29.92     0.164 C 
BRANCH  23  24
HETATM   24  C38   D T   1       5.997  17.273  -6.798  1.00 30.92     0.276 C 
BRANCH  24  25
HETATM   25  N4    D T   1       7.333  16.665  -6.660  1.00 32.03     0.139 N 
BRANCH  25  26
HETATM   26  C39   D T   1       7.350  15.225  -6.324  1.00 32.13     0.250 C 
HETATM   27  C42   D T   1       7.783  14.934  -4.881  1.00 32.46     0.037 C 
ENDBRANCH  25  26
BRANCH  25  28
HETATM   28  C40   D T   1       8.203  16.991  -7.799  1.00 32.51     0.250 C 
HETATM   29  C41   D T   1       9.473  16.136  -7.731  1.00 33.01     0.037 C 
ENDBRANCH  25  28
ENDBRANCH  24  25
ENDBRANCH  23  24
ENDBRANCH  21  23
ENDBRANCH   6  20
TORSDOF 8
ENDMDL
MODEL 2
REMARK VINA RESULT:    -7.795      4.749      8.574
REMARK INTER + INTRA:         -12.938
REMARK INTER:                 -11.594
REMARK INTRA:                  -1.344
REMARK UNBOUND:                -1.498
REMARK  8 active torsions:
REMARK  status: ('A' for Active; 'I' for Inactive)
REMARK    1  A    between atoms: C20_8  and  C12_12 
REMARK    2  A    between atoms: C22_10  and  C19_16 
REMARK       I    between atoms: C22_10  and  N25_19 
REMARK    3  A    between atoms: C12_12  and  C18_15 
REMARK    4  A    between atoms: N25_19  and  C37_23 
REMARK    5  A    between atoms: C37_23  and  C38_24 
REMARK    6  A    between atoms: C38_24  and  N4_25 
REMARK    7  A    between atoms: N4_25  and  C39_26 
REMARK    8  A    between atoms: N4_25  and  C40_27 
ROOT
HETATM    1  C4    D T   1       4.527   9.958   4.488  1.00 24.36     0.052 C 
HETATM    2  C13   D T   1       6.276  12.081   1.976  1.00 24.57     0.002 A 
HETATM    3  C3    D T   1       7.425  12.626   1.160  1.00 24.44     0.033 C 
HETATM    4  C14   D T   1       5.018  10.918   3.436  1.00 24.54     0.064 A 
HETATM    5  C18   D T   1       4.963  12.514   1.896  1.00 24.01     0.077 A 
HETATM    6  C19   D T   1       6.320  11.064   2.962  1.00 25.13     0.069 A 
HETATM    7  N23   D T   1       4.218  11.784   2.793  1.00 24.05    -0.250 NA
ENDROOT
BRANCH   5   8
HETATM    8  C12   D T   1       4.503  13.523   1.020  1.00 23.99     0.024 C 
BRANCH   8   9
HETATM    9  C20   D T   1       3.504  13.414   0.068  1.00 22.41     0.061 A 
HETATM   10  C17   D T   1       2.063  13.469   0.393  1.00 22.55     0.025 A 
HETATM   11  C7    D T   1       1.367  13.620   1.593  1.00 22.62     0.031 A 
HETATM   12  C16   D T   1       1.371  13.365  -0.823  1.00 22.15     0.085 A 
HETATM   13  C15   D T   1      -0.018  13.651   1.580  1.00 22.57     0.140 A 
HETATM   14  C5    D T   1      -0.709  13.536   0.379  1.00 22.50     0.031 A 
HETATM   15  F29   D T   1      -0.699  13.792   2.739  1.00 23.29    -0.204 F 
HETATM   16  C6    D T   1      -0.022  13.392  -0.815  1.00 22.36     0.021 A 
HETATM   17  N24   D T   1       2.290  13.227  -1.855  1.00 22.12    -0.208 NA
HETATM   18  C21   D T   1       3.556  13.239  -1.400  1.00 22.05     0.279 A 
HETATM   19  O27   D T   1       4.545  13.121  -2.104  1.00 20.62    -0.265 OA
ENDBRANCH   8   9
ENDBRANCH   5   8
BRANCH   6  20
HETATM   20  C22   D T   1       7.525  10.311   3.395  1.00 26.35     0.276 C 
HETATM   21  N25   D T   1       8.181  10.661   4.526  1.00 28.46    -0.232 NA
HETATM   22  O28   D T   1       7.931   9.380   2.723  1.00 27.15    -0.266 OA
BRANCH  21  23
HETATM   23  C37   D T   1       9.377   9.941   4.984  1.00 29.92     0.164 C 
BRANCH  23  24
HETATM   24  C38   D T   1      10.624  10.787   4.705  1.00 30.92     0.276 C 
BRANCH  24  25
HETATM   25  N4    D T   1      11.411  10.170   3.622  1.00 32.03     0.139 N 
BRANCH  25  26
HETATM   26  C39   D T   1      11.719  11.047   2.472  1.00 32.13     0.250 C 
HETATM   27  C42   D T   1      10.724  10.913   1.311  1.00 32.46     0.037 C 
ENDBRANCH  25  26
BRANCH  25  28
HETATM   28  C40   D T   1      12.599   9.474   4.137  1.00 32.51     0.250 C 
HETATM   29  C41   D T   1      13.857  10.258   3.749  1.00 33.01     0.037 C 
ENDBRANCH  25  28
ENDBRANCH  24  25
ENDBRANCH  23  24
ENDBRANCH  21  23
ENDBRANCH   6  20
TORSDOF 8
ENDMDL
MODEL 3
REMARK VINA RESULT:    -7.645      5.284      9.301
REMARK INTER + INTRA:         -12.718
REMARK INTER:                 -11.609
REMARK INTRA:                  -1.109
REMARK UNBOUND:                -1.498
REMARK  8 active torsions:
REMARK  status: ('A' for Active; 'I' for Inactive)
REMARK    1  A    between atoms: C20_8  and  C12_12 
REMARK    2  A    between atoms: C22_10  and  C19_16 
REMARK       I    between atoms: C22_10  and  N25_19 
REMARK    3  A    between atoms: C12_12  and  C18_15 
REMARK    4  A    between atoms: N25_19  and  C37_23 
REMARK    5  A    between atoms: C37_23  and  C38_24 
REMARK    6  A    between atoms: C38_24  and  N4_25 
REMARK    7  A    between atoms: N4_25  and  C39_26 
REMARK    8  A    between atoms: N4_25  and  C40_27 
ROOT
HETATM    1  C4    D T   1       9.629  12.559   2.379  1.00 24.36     0.052 C 
HETATM    2  C13   D T   1       6.344  11.136   3.409  1.00 24.57     0.002 A 
HETATM    3  C3    D T   1       5.376  10.182   4.071  1.00 24.44     0.033 C 
HETATM    4  C14   D T   1       8.205  12.164   2.667  1.00 24.54     0.064 A 
HETATM    5  C18   D T   1       5.987  12.240   2.653  1.00 24.01     0.077 A 
HETATM    6  C19   D T   1       7.760  11.078   3.418  1.00 25.13     0.069 A 
HETATM    7  N23   D T   1       7.141  12.851   2.219  1.00 24.05    -0.250 NA
ENDROOT
BRANCH   5   8
HETATM    8  C12   D T   1       4.656  12.647   2.407  1.00 23.99     0.024 C 
BRANCH   8   9
HETATM    9  C20   D T   1       4.000  12.671   1.188  1.00 22.41     0.061 A 
HETATM   10  C17   D T   1       2.557  12.959   1.049  1.00 22.55     0.025 A 
HETATM   11  C7    D T   1       1.554  13.250   1.974  1.00 22.62     0.031 A 
HETATM   12  C16   D T   1       2.271  12.934  -0.325  1.00 22.15     0.085 A 
HETATM   13  C15   D T   1       0.265  13.497   1.531  1.00 22.57     0.140 A 
HETATM   14  C5    D T   1      -0.026  13.461   0.172  1.00 22.50     0.031 A 
HETATM   15  F29   D T   1      -0.712  13.775   2.422  1.00 23.29    -0.204 F 
HETATM   16  C6    D T   1       0.967  13.179  -0.751  1.00 22.36     0.021 A 
HETATM   17  N24   D T   1       3.433  12.626  -1.021  1.00 22.12    -0.208 NA
HETATM   18  C21   D T   1       4.478  12.451  -0.194  1.00 22.05     0.279 A 
HETATM   19  O27   D T   1       5.607  12.161  -0.557  1.00 20.62    -0.265 OA
ENDBRANCH   8   9
ENDBRANCH   5   8
BRANCH   6  20
HETATM   20  C22   D T   1       8.594  10.053   4.098  1.00 26.35     0.276 C 
HETATM   21  N25   D T   1       9.201  10.334   5.274  1.00 28.46    -0.232 NA
HETATM   22  O28   D T   1       8.740   8.956   3.587  1.00 27.15    -0.266 OA
BRANCH  21  23
HETATM   23  C37   D T   1      10.034   9.347   5.973  1.00 29.92     0.164 C 
BRANCH  23  24
HETATM   24  C38   D T   1      11.508   9.754   5.870  1.00 30.92     0.276 C 
BRANCH  24  25
HETATM   25  N4    D T   1      11.605  11.180   5.510  1.00 32.03     0.139 N 
BRANCH  25  26
HETATM   26  C39   D T   1      11.790  12.115   6.640  1.00 32.13     0.250 C 
HETATM   27  C42   D T   1      11.558  13.586   6.268  1.00 32.46     0.037 C 
ENDBRANCH  25  26
BRANCH  25  28
HETATM   28  C40   D T   1      12.569  11.407   4.424  1.00 32.51     0.250 C 
HETATM   29  C41   D T   1      12.429  10.296   3.378  1.00 33.01     0.037 C 
ENDBRANCH  25  28
ENDBRANCH  24  25
ENDBRANCH  23  24
ENDBRANCH  21  23
ENDBRANCH   6  20
TORSDOF 8
ENDMDL
MODEL 4
REMARK VINA RESULT:    -7.624      5.311      8.495
REMARK INTER + INTRA:         -12.688
REMARK INTER:                 -12.261
REMARK INTRA:                  -0.427
REMARK UNBOUND:                -1.498
REMARK  8 active torsions:
REMARK  status: ('A' for Active; 'I' for Inactive)
REMARK    1  A    between atoms: C20_8  and  C12_12 
REMARK    2  A    between atoms: C22_10  and  C19_16 
REMARK       I    between atoms: C22_10  and  N25_19 
REMARK    3  A    between atoms: C12_12  and  C18_15 
REMARK    4  A    between atoms: N25_19  and  C37_23 
REMARK    5  A    between atoms: C37_23  and  C38_24 
REMARK    6  A    between atoms: C38_24  and  N4_25 
REMARK    7  A    between atoms: N4_25  and  C39_26 
REMARK    8  A    between atoms: N4_25  and  C40_27 
ROOT
HETATM    1  C4    D T   1       4.825  13.707   0.503  1.00 24.36     0.052 C 
HETATM    2  C13   D T   1       4.913  11.183   3.241  1.00 24.57     0.002 A 
HETATM    3  C3    D T   1       4.389  10.143   4.205  1.00 24.44     0.033 C 
HETATM    4  C14   D T   1       5.094  12.744   1.629  1.00 24.54     0.064 A 
HETATM    5  C18   D T   1       6.223  11.625   3.176  1.00 24.01     0.077 A 
HETATM    6  C19   D T   1       4.183  11.897   2.257  1.00 25.13     0.069 A 
HETATM    7  N23   D T   1       6.306  12.571   2.181  1.00 24.05    -0.250 NA
ENDROOT
BRANCH   5   8
HETATM    8  C12   D T   1       7.271  11.150   3.998  1.00 23.99     0.024 C 
BRANCH   8   9
HETATM    9  C20   D T   1       8.586  10.924   3.630  1.00 22.41     0.061 A 
HETATM   10  C17   D T   1       9.565  10.235   4.498  1.00 22.55     0.025 A 
HETATM   11  C7    D T   1       9.475   9.684   5.777  1.00 22.62     0.031 A 
HETATM   12  C16   D T   1      10.764  10.160   3.774  1.00 22.15     0.085 A 
HETATM   13  C15   D T   1      10.586   9.074   6.337  1.00 22.57     0.140 A 
HETATM   14  C5    D T   1      11.780   9.009   5.629  1.00 22.50     0.031 A 
HETATM   15  F29   D T   1      10.507   8.543   7.577  1.00 23.29    -0.204 F 
HETATM   16  C6    D T   1      11.872   9.549   4.357  1.00 22.36     0.021 A 
HETATM   17  N24   D T   1      10.586  10.776   2.542  1.00 22.12    -0.208 NA
HETATM   18  C21   D T   1       9.336  11.252   2.399  1.00 22.05     0.279 A 
HETATM   19  O27   D T   1       8.931  11.847   1.413  1.00 20.62    -0.265 OA
ENDBRANCH   8   9
ENDBRANCH   5   8
BRANCH   6  20
HETATM   20  C22   D T   1       2.733  11.761   1.967  1.00 26.35     0.276 C 
HETATM   21  N25   D T   1       1.871  12.748   2.305  1.00 28.46    -0.232 NA
HETATM   22  O28   D T   1       2.315  10.750   1.430  1.00 27.15    -0.266 OA
BRANCH  21  23
HETATM   23  C37   D T   1       0.431  12.646   2.035  1.00 29.92     0.164 C 
BRANCH  23  24
HETATM   24  C38   D T   1      -0.010  13.819   1.152  1.00 30.92     0.276 C 
BRANCH  24  25
HETATM   25  N4    D T   1      -0.198  13.353  -0.234  1.00 32.03     0.139 N 
BRANCH  25  26
HETATM   26  C39   D T   1      -1.594  13.334  -0.721  1.00 32.13     0.250 C 
HETATM   27  C42   D T   1      -2.619  13.784   0.329  1.00 32.46     0.037 C 
ENDBRANCH  25  26
BRANCH  25  28
HETATM   28  C40   D T   1       0.718  14.026  -1.167  1.00 32.51     0.250 C 
HETATM   29  C41   D T   1       1.974  13.169  -1.356  1.00 33.01     0.037 C 
ENDBRANCH  25  28
ENDBRANCH  24  25
ENDBRANCH  23  24
ENDBRANCH  21  23
ENDBRANCH   6  20
TORSDOF 8
ENDMDL
MODEL 5
REMARK VINA RESULT:    -7.309      2.383      8.051
REMARK INTER + INTRA:         -12.225
REMARK INTER:                 -10.655
REMARK INTRA:                  -1.571
REMARK UNBOUND:                -1.498
REMARK  8 active torsions:
REMARK  status: ('A' for Active; 'I' for Inactive)
REMARK    1  A    between atoms: C20_8  and  C12_12 
REMARK    2  A    between atoms: C22_10  and  C19_16 
REMARK       I    between atoms: C22_10  and  N25_19 
REMARK    3  A    between atoms: C12_12  and  C18_15 
REMARK    4  A    between atoms: N25_19  and  C37_23 
REMARK    5  A    between atoms: C37_23  and  C38_24 
REMARK    6  A    between atoms: C38_24  and  N4_25 
REMARK    7  A    between atoms: N4_25  and  C39_26 
REMARK    8  A    between atoms: N4_25  and  C40_27 
ROOT
HETATM    1  C4    D T   1       0.925  13.965  -1.061  1.00 24.36     0.052 C 
HETATM    2  C13   D T   1       4.397  15.311  -1.178  1.00 24.57     0.002 A 
HETATM    3  C3    D T   1       5.883  15.376  -0.913  1.00 24.44     0.033 C 
HETATM    4  C14   D T   1       2.232  14.693  -1.232  1.00 24.54     0.064 A 
HETATM    5  C18   D T   1       3.668  16.253  -1.885  1.00 24.01     0.077 A 
HETATM    6  C19   D T   1       3.485  14.313  -0.753  1.00 25.13     0.069 A 
HETATM    7  N23   D T   1       2.354  15.848  -1.907  1.00 24.05    -0.250 NA
ENDROOT
BRANCH   5   8
HETATM    8  C12   D T   1       4.220  17.410  -2.481  1.00 23.99     0.024 C 
BRANCH   8   9
HETATM    9  C20   D T   1       4.333  17.682  -3.834  1.00 22.41     0.061 A 
HETATM   10  C17   D T   1       5.360  17.070  -4.702  1.00 22.55     0.025 A 
HETATM   11  C7    D T   1       6.390  16.160  -4.457  1.00 22.62     0.031 A 
HETATM   12  C16   D T   1       5.133  17.554  -5.999  1.00 22.15     0.085 A 
HETATM   13  C15   D T   1       7.201  15.748  -5.502  1.00 22.57     0.140 A 
HETATM   14  C5    D T   1       6.988  16.235  -6.787  1.00 22.50     0.031 A 
HETATM   15  F29   D T   1       8.203  14.871  -5.270  1.00 23.29    -0.204 F 
HETATM   16  C6    D T   1       5.964  17.133  -7.036  1.00 22.36     0.021 A 
HETATM   17  N24   D T   1       4.059  18.433  -5.971  1.00 22.12    -0.208 NA
HETATM   18  C21   D T   1       3.551  18.560  -4.732  1.00 22.05     0.279 A 
HETATM   19  O27   D T   1       2.612  19.283  -4.439  1.00 20.62    -0.265 OA
ENDBRANCH   8   9
ENDBRANCH   5   8
BRANCH   6  20
HETATM   20  C22   D T   1       3.813  13.105   0.048  1.00 26.35     0.276 C 
HETATM   21  N25   D T   1       3.393  12.999   1.330  1.00 28.46    -0.232 NA
HETATM   22  O28   D T   1       4.473  12.210  -0.450  1.00 27.15    -0.266 OA
BRANCH  21  23
HETATM   23  C37   D T   1       3.701  11.821   2.152  1.00 29.92     0.164 C 
BRANCH  23  24
HETATM   24  C38   D T   1       4.830  12.159   3.131  1.00 30.92     0.276 C 
BRANCH  24  25
HETATM   25  N4    D T   1       6.000  11.307   2.853  1.00 32.03     0.139 N 
BRANCH  25  26
HETATM   26  C39   D T   1       7.122  11.966   2.151  1.00 32.13     0.250 C 
HETATM   27  C42   D T   1       6.975  13.491   2.049  1.00 32.46     0.037 C 
ENDBRANCH  25  26
BRANCH  25  28
HETATM   28  C40   D T   1       6.436  10.567   4.046  1.00 32.51     0.250 C 
HETATM   29  C41   D T   1       7.960  10.657   4.173  1.00 33.01     0.037 C 
ENDBRANCH  25  28
ENDBRANCH  24  25
ENDBRANCH  23  24
ENDBRANCH  21  23
ENDBRANCH   6  20
TORSDOF 8
ENDMDL
MODEL 6
REMARK VINA RESULT:    -7.263      3.303      5.352
REMARK INTER + INTRA:         -12.158
REMARK INTER:                 -10.966
REMARK INTRA:                  -1.193
REMARK UNBOUND:                -1.498
REMARK  8 active torsions:
REMARK  status: ('A' for Active; 'I' for Inactive)
REMARK    1  A    between atoms: C20_8  and  C12_12 
REMARK    2  A    between atoms: C22_10  and  C19_16 
REMARK       I    between atoms: C22_10  and  N25_19 
REMARK    3  A    between atoms: C12_12  and  C18_15 
REMARK    4  A    between atoms: N25_19  and  C37_23 
REMARK    5  A    between atoms: C37_23  and  C38_24 
REMARK    6  A    between atoms: C38_24  and  N4_25 
REMARK    7  A    between atoms: N4_25  and  C39_26 
REMARK    8  A    between atoms: N4_25  and  C40_27 
ROOT
HETATM    1  C4    D T   1       6.100  12.239   2.640  1.00 24.36     0.052 C 
HETATM    2  C13   D T   1       3.636  13.534   0.165  1.00 24.57     0.002 A 
HETATM    3  C3    D T   1       3.107  14.365  -0.982  1.00 24.44     0.033 C 
HETATM    4  C14   D T   1       4.947  12.616   1.749  1.00 24.54     0.064 A 
HETATM    5  C18   D T   1       2.897  12.623   0.900  1.00 24.01     0.077 A 
HETATM    6  C19   D T   1       4.946  13.539   0.705  1.00 25.13     0.069 A 
HETATM    7  N23   D T   1       3.722  12.074   1.854  1.00 24.05    -0.250 NA
ENDROOT
BRANCH   5   8
HETATM    8  C12   D T   1       1.535  12.323   0.668  1.00 23.99     0.024 C 
BRANCH   8   9
HETATM    9  C20   D T   1       0.433  13.003   1.158  1.00 22.41     0.061 A 
HETATM   10  C17   D T   1      -0.821  13.174   0.395  1.00 22.55     0.025 A 
HETATM   11  C7    D T   1      -1.220  12.763  -0.878  1.00 22.62     0.031 A 
HETATM   12  C16   D T   1      -1.708  13.873   1.227  1.00 22.15     0.085 A 
HETATM   13  C15   D T   1      -2.496  13.065  -1.324  1.00 22.57     0.140 A 
HETATM   14  C5    D T   1      -3.375  13.769  -0.509  1.00 22.50     0.031 A 
HETATM   15  F29   D T   1      -2.887  12.674  -2.558  1.00 23.29    -0.204 F 
HETATM   16  C6    D T   1      -2.986  14.173   0.758  1.00 22.36     0.021 A 
HETATM   17  N24   D T   1      -1.071  14.158   2.427  1.00 22.12    -0.208 NA
HETATM   18  C21   D T   1       0.188  13.684   2.448  1.00 22.05     0.279 A 
HETATM   19  O27   D T   1       0.961  13.815   3.383  1.00 20.62    -0.265 OA
ENDBRANCH   8   9
ENDBRANCH   5   8
BRANCH   6  20
HETATM   20  C22   D T   1       6.086  14.372   0.240  1.00 26.35     0.276 C 
HETATM   21  N25   D T   1       6.562  14.239  -1.019  1.00 28.46    -0.232 NA
HETATM   22  O28   D T   1       6.602  15.171   1.002  1.00 27.15    -0.266 OA
BRANCH  21  23
HETATM   23  C37   D T   1       7.689  15.043  -1.512  1.00 29.92     0.164 C 
BRANCH  23  24
HETATM   24  C38   D T   1       7.230  15.897  -2.699  1.00 30.92     0.276 C 
BRANCH  24  25
HETATM   25  N4    D T   1       6.447  15.068  -3.633  1.00 32.03     0.139 N 
BRANCH  25  26
HETATM   26  C39   D T   1       5.273  15.726  -4.244  1.00 32.13     0.250 C 
HETATM   27  C42   D T   1       4.980  17.121  -3.673  1.00 32.46     0.037 C 
ENDBRANCH  25  26
BRANCH  25  28
HETATM   28  C40   D T   1       7.304  14.404  -4.626  1.00 32.51     0.250 C 
HETATM   29  C41   D T   1       7.914  15.456  -5.558  1.00 33.01     0.037 C 
ENDBRANCH  25  28
ENDBRANCH  24  25
ENDBRANCH  23  24
ENDBRANCH  21  23
ENDBRANCH   6  20
TORSDOF 8
ENDMDL
MODEL 7
REMARK VINA RESULT:    -7.237      5.190      8.626
REMARK INTER + INTRA:         -12.119
REMARK INTER:                 -10.905
REMARK INTRA:                  -1.214
REMARK UNBOUND:                -1.498
REMARK  8 active torsions:
REMARK  status: ('A' for Active; 'I' for Inactive)
REMARK    1  A    between atoms: C20_8  and  C12_12 
REMARK    2  A    between atoms: C22_10  and  C19_16 
REMARK       I    between atoms: C22_10  and  N25_19 
REMARK    3  A    between atoms: C12_12  and  C18_15 
REMARK    4  A    between atoms: N25_19  and  C37_23 
REMARK    5  A    between atoms: C37_23  and  C38_24 
REMARK    6  A    between atoms: C38_24  and  N4_25 
REMARK    7  A    between atoms: N4_25  and  C39_26 
REMARK    8  A    between atoms: N4_25  and  C40_27 
ROOT
HETATM    1  C4    D T   1       3.708   9.580   4.171  1.00 24.36     0.052 C 
HETATM    2  C13   D T   1       5.576  12.345   2.515  1.00 24.57     0.002 A 
HETATM    3  C3    D T   1       5.812  13.523   1.598  1.00 24.44     0.033 C 
HETATM    4  C14   D T   1       4.653  10.620   3.629  1.00 24.54     0.064 A 
HETATM    5  C18   D T   1       6.528  11.770   3.340  1.00 24.01     0.077 A 
HETATM    6  C19   D T   1       4.375  11.612   2.691  1.00 25.13     0.069 A 
HETATM    7  N23   D T   1       5.936  10.725   4.011  1.00 24.05    -0.250 NA
ENDROOT
BRANCH   5   8
HETATM    8  C12   D T   1       7.863  12.219   3.457  1.00 23.99     0.024 C 
BRANCH   8   9
HETATM    9  C20   D T   1       8.982  11.688   2.837  1.00 22.41     0.061 A 
HETATM   10  C17   D T   1      10.213  11.314   3.565  1.00 22.55     0.025 A 
HETATM   11  C7    D T   1      10.574  11.376   4.911  1.00 22.62     0.031 A 
HETATM   12  C16   D T   1      11.097  10.782   2.615  1.00 22.15     0.085 A 
HETATM   13  C15   D T   1      11.823  10.925   5.305  1.00 22.57     0.140 A 
HETATM   14  C5    D T   1      12.709  10.409   4.366  1.00 22.50     0.031 A 
HETATM   15  F29   D T   1      12.181  10.987   6.607  1.00 23.29    -0.204 F 
HETATM   16  C6    D T   1      12.352  10.339   3.029  1.00 22.36     0.021 A 
HETATM   17  N24   D T   1      10.499  10.833   1.363  1.00 22.12    -0.208 NA
HETATM   18  C21   D T   1       9.263  11.360   1.423  1.00 22.05     0.279 A 
HETATM   19  O27   D T   1       8.534  11.526   0.457  1.00 20.62    -0.265 OA
ENDBRANCH   8   9
ENDBRANCH   5   8
BRANCH   6  20
HETATM   20  C22   D T   1       3.083  11.862   2.002  1.00 26.35     0.276 C 
HETATM   21  N25   D T   1       2.050  12.429   2.669  1.00 28.46    -0.232 NA
HETATM   22  O28   D T   1       2.949  11.545   0.834  1.00 27.15    -0.266 OA
BRANCH  21  23
HETATM   23  C37   D T   1       0.758  12.689   2.020  1.00 29.92     0.164 C 
BRANCH  23  24
HETATM   24  C38   D T   1       0.744  14.112   1.454  1.00 30.92     0.276 C 
BRANCH  24  25
HETATM   25  N4    D T   1      -0.079  14.153   0.233  1.00 32.03     0.139 N 
BRANCH  25  26
HETATM   26  C39   D T   1       0.624  13.823  -1.026  1.00 32.13     0.250 C 
HETATM   27  C42   D T   1       2.047  14.391  -1.105  1.00 32.46     0.037 C 
ENDBRANCH  25  26
BRANCH  25  28
HETATM   28  C40   D T   1      -1.335  13.405   0.392  1.00 32.51     0.250 C 
HETATM   29  C41   D T   1      -2.133  13.464  -0.914  1.00 33.01     0.037 C 
ENDBRANCH  25  28
ENDBRANCH  24  25
ENDBRANCH  23  24
ENDBRANCH  21  23
ENDBRANCH   6  20
TORSDOF 8
ENDMDL
MODEL 8
REMARK VINA RESULT:    -7.174      3.052      4.256
REMARK INTER + INTRA:         -12.027
REMARK INTER:                 -10.918
REMARK INTRA:                  -1.108
REMARK UNBOUND:                -1.498
REMARK  8 active torsions:
REMARK  status: ('A' for Active; 'I' for Inactive)
REMARK    1  A    between atoms: C20_8  and  C12_12 
REMARK    2  A    between atoms: C22_10  and  C19_16 
REMARK       I    between atoms: C22_10  and  N25_19 
REMARK    3  A    between atoms: C12_12  and  C18_15 
REMARK    4  A    between atoms: N25_19  and  C37_23 
REMARK    5  A    between atoms: C37_23  and  C38_24 
REMARK    6  A    between atoms: C38_24  and  N4_25 
REMARK    7  A    between atoms: N4_25  and  C39_26 
REMARK    8  A    between atoms: N4_25  and  C40_27 
ROOT
HETATM    1  C4    D T   1       8.678  14.621   0.385  1.00 24.36     0.052 C 
HETATM    2  C13   D T   1       5.538  13.977  -1.512  1.00 24.57     0.002 A 
HETATM    3  C3    D T   1       4.505  14.131  -2.604  1.00 24.44     0.033 C 
HETATM    4  C14   D T   1       7.359  14.202  -0.207  1.00 24.54     0.064 A 
HETATM    5  C18   D T   1       5.444  13.105  -0.440  1.00 24.01     0.077 A 
HETATM    6  C19   D T   1       6.757  14.686  -1.367  1.00 25.13     0.069 A 
HETATM    7  N23   D T   1       6.570  13.259   0.335  1.00 24.05    -0.250 NA
ENDROOT
BRANCH   5   8
HETATM    8  C12   D T   1       4.369  12.214  -0.224  1.00 23.99     0.024 C 
BRANCH   8   9
HETATM    9  C20   D T   1       3.374  12.319   0.734  1.00 22.41     0.061 A 
HETATM   10  C17   D T   1       2.017  12.825   0.442  1.00 22.55     0.025 A 
HETATM   11  C7    D T   1       1.409  13.292  -0.724  1.00 22.62     0.031 A 
HETATM   12  C16   D T   1       1.290  12.745   1.639  1.00 22.15     0.085 A 
HETATM   13  C15   D T   1       0.084  13.693  -0.691  1.00 22.57     0.140 A 
HETATM   14  C5    D T   1      -0.638  13.628   0.496  1.00 22.50     0.031 A 
HETATM   15  F29   D T   1      -0.510  14.151  -1.816  1.00 23.29    -0.204 F 
HETATM   16  C6    D T   1      -0.040  13.160   1.655  1.00 22.36     0.021 A 
HETATM   17  N24   D T   1       2.119  12.251   2.638  1.00 22.12    -0.208 NA
HETATM   18  C21   D T   1       3.354  11.990   2.175  1.00 22.05     0.279 A 
HETATM   19  O27   D T   1       4.272  11.560   2.857  1.00 20.62    -0.265 OA
ENDBRANCH   8   9
ENDBRANCH   5   8
BRANCH   6  20
HETATM   20  C22   D T   1       7.277  15.736  -2.280  1.00 26.35     0.276 C 
HETATM   21  N25   D T   1       8.466  15.571  -2.906  1.00 28.46    -0.232 NA
HETATM   22  O28   D T   1       6.636  16.756  -2.456  1.00 27.15    -0.266 OA
BRANCH  21  23
HETATM   23  C37   D T   1       9.012  16.590  -3.813  1.00 29.92     0.164 C 
BRANCH  23  24
HETATM   24  C38   D T   1      10.471  16.255  -4.141  1.00 30.92     0.276 C 
BRANCH  24  25
HETATM   25  N4    D T   1      10.535  15.501  -5.406  1.00 32.03     0.139 N 
BRANCH  25  26
HETATM   26  C39   D T   1       9.438  15.760  -6.363  1.00 32.13     0.250 C 
HETATM   27  C42   D T   1       9.912  15.939  -7.812  1.00 32.46     0.037 C 
ENDBRANCH  25  26
BRANCH  25  28
HETATM   28  C40   D T   1      11.863  15.590  -6.030  1.00 32.51     0.250 C 
HETATM   29  C41   D T   1      12.722  14.407  -5.570  1.00 33.01     0.037 C 
ENDBRANCH  25  28
ENDBRANCH  24  25
ENDBRANCH  23  24
ENDBRANCH  21  23
ENDBRANCH   6  20
TORSDOF 8
ENDMDL
MODEL 9
REMARK VINA RESULT:    -7.138      2.672      3.884
REMARK INTER + INTRA:         -11.975
REMARK INTER:                 -10.978
REMARK INTRA:                  -0.996
REMARK UNBOUND:                -1.498
REMARK  8 active torsions:
REMARK  status: ('A' for Active; 'I' for Inactive)
REMARK    1  A    between atoms: C20_8  and  C12_12 
REMARK    2  A    between atoms: C22_10  and  C19_16 
REMARK       I    between atoms: C22_10  and  N25_19 
REMARK    3  A    between atoms: C12_12  and  C18_15 
REMARK    4  A    between atoms: N25_19  and  C37_23 
REMARK    5  A    between atoms: C37_23  and  C38_24 
REMARK    6  A    between atoms: C38_24  and  N4_25 
REMARK    7  A    between atoms: N4_25  and  C39_26 
REMARK    8  A    between atoms: N4_25  and  C40_27 
ROOT
HETATM    1  C4    D T   1       6.382  17.081  -1.081  1.00 24.36     0.052 C 
HETATM    2  C13   D T   1       5.931  13.391  -1.319  1.00 24.57     0.002 A 
HETATM    3  C3    D T   1       5.918  12.019  -1.955  1.00 24.44     0.033 C 
HETATM    4  C14   D T   1       6.128  15.603  -0.947  1.00 24.54     0.064 A 
HETATM    5  C18   D T   1       5.582  13.668  -0.008  1.00 24.01     0.077 A 
HETATM    6  C19   D T   1       6.277  14.624  -1.927  1.00 25.13     0.069 A 
HETATM    7  N23   D T   1       5.717  15.022   0.192  1.00 24.05    -0.250 NA
ENDROOT
BRANCH   5   8
HETATM    8  C12   D T   1       5.177  12.697   0.936  1.00 23.99     0.024 C 
BRANCH   8   9
HETATM    9  C20   D T   1       3.908  12.516   1.459  1.00 22.41     0.061 A 
HETATM   10  C17   D T   1       2.686  13.063   0.832  1.00 22.55     0.025 A 
HETATM   11  C7    D T   1       2.469  13.826  -0.315  1.00 22.62     0.031 A 
HETATM   12  C16   D T   1       1.605  12.641   1.621  1.00 22.15     0.085 A 
HETATM   13  C15   D T   1       1.177  14.182  -0.665  1.00 22.57     0.140 A 
HETATM   14  C5    D T   1       0.103  13.778   0.120  1.00 22.50     0.031 A 
HETATM   15  F29   D T   1       0.960  14.926  -1.772  1.00 23.29    -0.204 F 
HETATM   16  C6    D T   1       0.313  13.014   1.257  1.00 22.36     0.021 A 
HETATM   17  N24   D T   1       2.090  11.900   2.691  1.00 22.12    -0.208 NA
HETATM   18  C21   D T   1       3.430  11.798   2.660  1.00 22.05     0.279 A 
HETATM   19  O27   D T   1       4.099  11.209   3.495  1.00 20.62    -0.265 OA
ENDBRANCH   8   9
ENDBRANCH   5   8
BRANCH   6  20
HETATM   20  C22   D T   1       6.710  14.819  -3.335  1.00 26.35     0.276 C 
HETATM   21  N25   D T   1       5.859  15.348  -4.246  1.00 28.46    -0.232 NA
HETATM   22  O28   D T   1       7.833  14.490  -3.674  1.00 27.15    -0.266 OA
BRANCH  21  23
HETATM   23  C37   D T   1       6.252  15.553  -5.646  1.00 29.92     0.164 C 
BRANCH  23  24
HETATM   24  C38   D T   1       5.281  16.533  -6.313  1.00 30.92     0.276 C 
BRANCH  24  25
HETATM   25  N4    D T   1       5.384  17.852  -5.664  1.00 32.03     0.139 N 
BRANCH  25  26
HETATM   26  C39   D T   1       6.048  18.908  -6.458  1.00 32.13     0.250 C 
HETATM   27  C42   D T   1       7.351  19.424  -5.831  1.00 32.46     0.037 C 
ENDBRANCH  25  26
BRANCH  25  28
HETATM   28  C40   D T   1       4.096  18.290  -5.106  1.00 32.51     0.250 C 
HETATM   29  C41   D T   1       3.456  19.316  -6.046  1.00 33.01     0.037 C 
ENDBRANCH  25  28
ENDBRANCH  24  25
ENDBRANCH  23  24
ENDBRANCH  21  23
ENDBRANCH   6  20
TORSDOF 8
ENDMDL
