MODEL 1
REMARK VINA RESULT:    -6.747      0.000      0.000
REMARK INTER + INTRA:         -11.277
REMARK INTER:                  -9.902
REMARK INTRA:                  -1.376
REMARK UNBOUND:                -1.376
REMARK  8 active torsions:
REMARK  status: ('A' for Active; 'I' for Inactive)
REMARK    1  A    between atoms: C20_8  and  C12_12 
REMARK    2  A    between atoms: C22_10  and  C19_16 
REMARK       I    between atoms: C22_10  and  N25_19 
REMARK    3  A    between atoms: C12_12  and  C18_15 
REMARK    4  A    between atoms: N25_19  and  C37_23 
REMARK    5  A    between atoms: C37_23  and  C38_24 
REMARK    6  A    between atoms: C38_24  and  N4_25 
REMARK    7  A    between atoms: N4_25  and  C39_26 
REMARK    8  A    between atoms: N4_25  and  C40_27 
ROOT
HETATM    1  C4    D T   1      -2.432  -4.495  -5.299  1.00 24.36     0.052 C 
HETATM    2  C13   D T   1      -5.722  -5.429  -6.775  1.00 24.57     0.002 A 
HETATM    3  C3    D T   1      -7.036  -5.243  -7.499  1.00 24.44     0.033 C 
HETATM    4  C14   D T   1      -3.716  -5.093  -5.810  1.00 24.54     0.064 A 
HETATM    5  C18   D T   1      -5.270  -6.620  -6.233  1.00 24.01     0.077 A 
HETATM    6  C19   D T   1      -4.736  -4.448  -6.504  1.00 25.13     0.069 A 
HETATM    7  N23   D T   1      -4.042  -6.387  -5.656  1.00 24.05    -0.250 NA
ENDROOT
BRANCH   5   8
HETATM    8  C12   D T   1      -5.969  -7.846  -6.295  1.00 23.99     0.024 C 
BRANCH   8   9
HETATM    9  C20   D T   1      -5.657  -8.950  -7.072  1.00 22.41     0.061 A 
HETATM   10  C17   D T   1      -6.656  -9.682  -7.880  1.00 22.55     0.025 A 
HETATM   11  C7    D T   1      -8.026  -9.512  -8.076  1.00 22.62     0.031 A 
HETATM   12  C16   D T   1      -5.962 -10.700  -8.550  1.00 22.15     0.085 A 
HETATM   13  C15   D T   1      -8.707 -10.368  -8.926  1.00 22.57     0.140 A 
HETATM   14  C5    D T   1      -8.027 -11.386  -9.584  1.00 22.50     0.031 A 
HETATM   15  F29   D T   1     -10.035 -10.211  -9.116  1.00 23.29    -0.204 F 
HETATM   16  C6    D T   1      -6.665 -11.555  -9.398  1.00 22.36     0.021 A 
HETATM   17  N24   D T   1      -4.624 -10.651  -8.186  1.00 22.12    -0.208 NA
HETATM   18  C21   D T   1      -4.381  -9.654  -7.316  1.00 22.05     0.279 A 
HETATM   19  O27   D T   1      -3.287  -9.408  -6.833  1.00 20.62    -0.265 OA
ENDBRANCH   8   9
ENDBRANCH   5   8
BRANCH   6  20
HETATM   20  C22   D T   1      -4.794  -3.014  -6.890  1.00 26.35     0.276 C 
HETATM   21  N25   D T   1      -5.535  -2.140  -6.169  1.00 28.46    -0.232 NA
HETATM   22  O28   D T   1      -4.180  -2.625  -7.867  1.00 27.15    -0.266 OA
BRANCH  21  23
HETATM   23  C37   D T   1      -5.618  -0.716  -6.521  1.00 29.92     0.164 C 
BRANCH  23  24
HETATM   24  C38   D T   1      -7.036  -0.203  -6.254  1.00 30.92     0.276 C 
BRANCH  24  25
HETATM   25  N4    D T   1      -7.942  -1.343  -6.026  1.00 32.03     0.139 N 
BRANCH  25  26
HETATM   26  C39   D T   1      -8.437  -1.503  -4.642  1.00 32.13     0.250 C 
HETATM   27  C42   D T   1      -8.385  -2.950  -4.132  1.00 32.46     0.037 C 
ENDBRANCH  25  26
BRANCH  25  28
HETATM   28  C40   D T   1      -9.022  -1.391  -7.022  1.00 32.51     0.250 C 
HETATM   29  C41   D T   1      -8.483  -1.981  -8.329  1.00 33.01     0.037 C 
ENDBRANCH  25  28
ENDBRANCH  24  25
ENDBRANCH  23  24
ENDBRANCH  21  23
ENDBRANCH   6  20
TORSDOF 8
ENDMDL
MODEL 2
REMARK VINA RESULT:    -6.438      4.084      6.626
REMARK INTER + INTRA:         -10.825
REMARK INTER:                  -9.055
REMARK INTRA:                  -1.770
REMARK UNBOUND:                -1.376
REMARK  8 active torsions:
REMARK  status: ('A' for Active; 'I' for Inactive)
REMARK    1  A    between atoms: C20_8  and  C12_12 
REMARK    2  A    between atoms: C22_10  and  C19_16 
REMARK       I    between atoms: C22_10  and  N25_19 
REMARK    3  A    between atoms: C12_12  and  C18_15 
REMARK    4  A    between atoms: N25_19  and  C37_23 
REMARK    5  A    between atoms: C37_23  and  C38_24 
REMARK    6  A    between atoms: C38_24  and  N4_25 
REMARK    7  A    between atoms: N4_25  and  C39_26 
REMARK    8  A    between atoms: N4_25  and  C40_27 
ROOT
HETATM    1  C4    D T   1      -8.239   2.187  -6.803  1.00 24.36     0.052 C 
HETATM    2  C13   D T   1      -7.965  -1.527  -6.704  1.00 24.57     0.002 A 
HETATM    3  C3    D T   1      -8.401  -2.958  -6.490  1.00 24.44     0.033 C 
HETATM    4  C14   D T   1      -7.900   0.720  -6.831  1.00 24.54     0.064 A 
HETATM    5  C18   D T   1      -6.704  -1.128  -7.113  1.00 24.01     0.077 A 
HETATM    6  C19   D T   1      -8.733  -0.351  -6.517  1.00 25.13     0.069 A 
HETATM    7  N23   D T   1      -6.694   0.246  -7.187  1.00 24.05    -0.250 NA
ENDROOT
BRANCH   5   8
HETATM    8  C12   D T   1      -5.641  -2.011  -7.409  1.00 23.99     0.024 C 
BRANCH   8   9
HETATM    9  C20   D T   1      -4.668  -2.473  -6.537  1.00 22.41     0.061 A 
HETATM   10  C17   D T   1      -4.427  -3.907  -6.278  1.00 22.55     0.025 A 
HETATM   11  C7    D T   1      -5.026  -5.072  -6.758  1.00 22.62     0.031 A 
HETATM   12  C16   D T   1      -3.349  -3.979  -5.383  1.00 22.15     0.085 A 
HETATM   13  C15   D T   1      -4.561  -6.306  -6.332  1.00 22.57     0.140 A 
HETATM   14  C5    D T   1      -3.501  -6.382  -5.436  1.00 22.50     0.031 A 
HETATM   15  F29   D T   1      -5.140  -7.437  -6.790  1.00 23.29    -0.204 F 
HETATM   16  C6    D T   1      -2.899  -5.229  -4.961  1.00 22.36     0.021 A 
HETATM   17  N24   D T   1      -2.939  -2.692  -5.066  1.00 22.12    -0.208 NA
HETATM   18  C21   D T   1      -3.676  -1.763  -5.702  1.00 22.05     0.279 A 
HETATM   19  O27   D T   1      -3.525  -0.558  -5.582  1.00 20.62    -0.265 OA
ENDBRANCH   8   9
ENDBRANCH   5   8
BRANCH   6  20
HETATM   20  C22   D T   1     -10.150  -0.287  -6.072  1.00 26.35     0.276 C 
HETATM   21  N25   D T   1     -10.452  -0.269  -4.753  1.00 28.46    -0.232 NA
HETATM   22  O28   D T   1     -11.043  -0.261  -6.898  1.00 27.15    -0.266 OA
BRANCH  21  23
HETATM   23  C37   D T   1     -11.840  -0.210  -4.275  1.00 29.92     0.164 C 
BRANCH  23  24
HETATM   24  C38   D T   1     -12.200  -1.524  -3.576  1.00 30.92     0.276 C 
BRANCH  24  25
HETATM   25  N4    D T   1     -13.064  -2.333  -4.453  1.00 32.03     0.139 N 
BRANCH  25  26
HETATM   26  C39   D T   1     -13.972  -1.572  -5.339  1.00 32.13     0.250 C 
HETATM   27  C42   D T   1     -14.027  -2.111  -6.775  1.00 32.46     0.037 C 
ENDBRANCH  25  26
BRANCH  25  28
HETATM   28  C40   D T   1     -12.302  -3.363  -5.175  1.00 32.51     0.250 C 
HETATM   29  C41   D T   1     -11.192  -3.904  -4.268  1.00 33.01     0.037 C 
ENDBRANCH  25  28
ENDBRANCH  24  25
ENDBRANCH  23  24
ENDBRANCH  21  23
ENDBRANCH   6  20
TORSDOF 8
ENDMDL
MODEL 3
REMARK VINA RESULT:    -6.382      1.870      2.501
REMARK INTER + INTRA:         -10.743
REMARK INTER:                  -9.395
REMARK INTRA:                  -1.347
REMARK UNBOUND:                -1.376
REMARK  8 active torsions:
REMARK  status: ('A' for Active; 'I' for Inactive)
REMARK    1  A    between atoms: C20_8  and  C12_12 
REMARK    2  A    between atoms: C22_10  and  C19_16 
REMARK       I    between atoms: C22_10  and  N25_19 
REMARK    3  A    between atoms: C12_12  and  C18_15 
REMARK    4  A    between atoms: N25_19  and  C37_23 
REMARK    5  A    between atoms: C37_23  and  C38_24 
REMARK    6  A    between atoms: C38_24  and  N4_25 
REMARK    7  A    between atoms: N4_25  and  C39_26 
REMARK    8  A    between atoms: N4_25  and  C40_27 
ROOT
HETATM    1  C4    D T   1      -3.542  -1.749  -7.364  1.00 24.36     0.052 C 
HETATM    2  C13   D T   1      -6.759  -3.480  -6.637  1.00 24.57     0.002 A 
HETATM    3  C3    D T   1      -8.253  -3.658  -6.496  1.00 24.44     0.033 C 
HETATM    4  C14   D T   1      -4.705  -2.637  -7.011  1.00 24.54     0.064 A 
HETATM    5  C18   D T   1      -5.809  -4.451  -6.366  1.00 24.01     0.077 A 
HETATM    6  C19   D T   1      -6.060  -2.317  -7.045  1.00 25.13     0.069 A 
HETATM    7  N23   D T   1      -4.567  -3.912  -6.608  1.00 24.05    -0.250 NA
ENDROOT
BRANCH   5   8
HETATM    8  C12   D T   1      -6.105  -5.763  -5.933  1.00 23.99     0.024 C 
BRANCH   8   9
HETATM    9  C20   D T   1      -5.483  -6.936  -6.327  1.00 22.41     0.061 A 
HETATM   10  C17   D T   1      -6.188  -8.035  -7.019  1.00 22.55     0.025 A 
HETATM   11  C7    D T   1      -7.512  -8.206  -7.424  1.00 22.62     0.031 A 
HETATM   12  C16   D T   1      -5.229  -9.022  -7.289  1.00 22.15     0.085 A 
HETATM   13  C15   D T   1      -7.881  -9.368  -8.082  1.00 22.57     0.140 A 
HETATM   14  C5    D T   1      -6.937 -10.355  -8.341  1.00 22.50     0.031 A 
HETATM   15  F29   D T   1      -9.163  -9.542  -8.473  1.00 23.29    -0.204 F 
HETATM   16  C6    D T   1      -5.620 -10.187  -7.947  1.00 22.36     0.021 A 
HETATM   17  N24   D T   1      -4.003  -8.609  -6.788  1.00 22.12    -0.208 NA
HETATM   18  C21   D T   1      -4.084  -7.399  -6.205  1.00 22.05     0.279 A 
HETATM   19  O27   D T   1      -3.149  -6.820  -5.676  1.00 20.62    -0.265 OA
ENDBRANCH   8   9
ENDBRANCH   5   8
BRANCH   6  20
HETATM   20  C22   D T   1      -6.667  -1.016  -7.429  1.00 26.35     0.276 C 
HETATM   21  N25   D T   1      -7.187  -0.198  -6.485  1.00 28.46    -0.232 NA
HETATM   22  O28   D T   1      -6.706  -0.690  -8.602  1.00 27.15    -0.266 OA
BRANCH  21  23
HETATM   23  C37   D T   1      -7.797   1.094  -6.827  1.00 29.92     0.164 C 
BRANCH  23  24
HETATM   24  C38   D T   1      -9.290   1.064  -6.483  1.00 30.92     0.276 C 
BRANCH  24  25
HETATM   25  N4    D T   1      -9.848  -0.261  -6.807  1.00 32.03     0.139 N 
BRANCH  25  26
HETATM   26  C39   D T   1     -10.828  -0.799  -5.840  1.00 32.13     0.250 C 
HETATM   27  C42   D T   1     -10.802  -0.092  -4.478  1.00 32.46     0.037 C 
ENDBRANCH  25  26
BRANCH  25  28
HETATM   28  C40   D T   1     -10.327  -0.329  -8.195  1.00 32.51     0.250 C 
HETATM   29  C41   D T   1     -10.871  -1.732  -8.478  1.00 33.01     0.037 C 
ENDBRANCH  25  28
ENDBRANCH  24  25
ENDBRANCH  23  24
ENDBRANCH  21  23
ENDBRANCH   6  20
TORSDOF 8
ENDMDL
MODEL 4
REMARK VINA RESULT:    -6.382      4.359      7.021
REMARK INTER + INTRA:         -10.742
REMARK INTER:                  -9.389
REMARK INTRA:                  -1.353
REMARK UNBOUND:                -1.376
REMARK  8 active torsions:
REMARK  status: ('A' for Active; 'I' for Inactive)
REMARK    1  A    between atoms: C20_8  and  C12_12 
REMARK    2  A    between atoms: C22_10  and  C19_16 
REMARK       I    between atoms: C22_10  and  N25_19 
REMARK    3  A    between atoms: C12_12  and  C18_15 
REMARK    4  A    between atoms: N25_19  and  C37_23 
REMARK    5  A    between atoms: C37_23  and  C38_24 
REMARK    6  A    between atoms: C38_24  and  N4_25 
REMARK    7  A    between atoms: N4_25  and  C39_26 
REMARK    8  A    between atoms: N4_25  and  C40_27 
ROOT
HETATM    1  C4    D T   1     -11.252  -2.108  -4.957  1.00 24.36     0.052 C 
HETATM    2  C13   D T   1      -8.778  -1.293  -7.619  1.00 24.57     0.002 A 
HETATM    3  C3    D T   1      -8.190  -0.576  -8.813  1.00 24.44     0.033 C 
HETATM    4  C14   D T   1     -10.124  -1.961  -5.942  1.00 24.54     0.064 A 
HETATM    5  C18   D T   1      -8.184  -2.348  -6.948  1.00 24.01     0.077 A 
HETATM    6  C19   D T   1     -10.021  -1.044  -6.985  1.00 25.13     0.069 A 
HETATM    7  N23   D T   1      -9.023  -2.732  -5.927  1.00 24.05    -0.250 NA
ENDROOT
BRANCH   5   8
HETATM    8  C12   D T   1      -6.924  -2.898  -7.274  1.00 23.99     0.024 C 
BRANCH   8   9
HETATM    9  C20   D T   1      -5.746  -2.781  -6.553  1.00 22.41     0.061 A 
HETATM   10  C17   D T   1      -4.877  -3.932  -6.228  1.00 22.55     0.025 A 
HETATM   11  C7    D T   1      -4.967  -5.296  -6.503  1.00 22.62     0.031 A 
HETATM   12  C16   D T   1      -3.772  -3.418  -5.533  1.00 22.15     0.085 A 
HETATM   13  C15   D T   1      -3.965  -6.149  -6.070  1.00 22.57     0.140 A 
HETATM   14  C5    D T   1      -2.874  -5.646  -5.370  1.00 22.50     0.031 A 
HETATM   15  F29   D T   1      -4.049  -7.472  -6.330  1.00 23.29    -0.204 F 
HETATM   16  C6    D T   1      -2.776  -4.292  -5.101  1.00 22.36     0.021 A 
HETATM   17  N24   D T   1      -3.925  -2.045  -5.395  1.00 22.12    -0.208 NA
HETATM   18  C21   D T   1      -5.064  -1.611  -5.963  1.00 22.05     0.279 A 
HETATM   19  O27   D T   1      -5.436  -0.448  -5.967  1.00 20.62    -0.265 OA
ENDBRANCH   8   9
ENDBRANCH   5   8
BRANCH   6  20
HETATM   20  C22   D T   1     -11.011  -0.004  -7.369  1.00 26.35     0.276 C 
HETATM   21  N25   D T   1     -10.985   1.215  -6.782  1.00 28.46    -0.232 NA
HETATM   22  O28   D T   1     -11.855  -0.254  -8.210  1.00 27.15    -0.266 OA
BRANCH  21  23
HETATM   23  C37   D T   1     -11.949   2.267  -7.135  1.00 29.92     0.164 C 
BRANCH  23  24
HETATM   24  C38   D T   1     -11.276   3.638  -7.023  1.00 30.92     0.276 C 
BRANCH  24  25
HETATM   25  N4    D T   1     -10.263   3.609  -5.952  1.00 32.03     0.139 N 
BRANCH  25  26
HETATM   26  C39   D T   1      -8.911   4.070  -6.334  1.00 32.13     0.250 C 
HETATM   27  C42   D T   1      -8.076   3.001  -7.053  1.00 32.46     0.037 C 
ENDBRANCH  25  26
BRANCH  25  28
HETATM   28  C40   D T   1     -10.751   4.245  -4.720  1.00 32.51     0.250 C 
HETATM   29  C41   D T   1     -10.967   3.176  -3.645  1.00 33.01     0.037 C 
ENDBRANCH  25  28
ENDBRANCH  24  25
ENDBRANCH  23  24
ENDBRANCH  21  23
ENDBRANCH   6  20
TORSDOF 8
ENDMDL
MODEL 5
REMARK VINA RESULT:    -6.376     14.504     17.415
REMARK INTER + INTRA:         -10.734
REMARK INTER:                  -9.625
REMARK INTRA:                  -1.108
REMARK UNBOUND:                -1.376
REMARK  8 active torsions:
REMARK  status: ('A' for Active; 'I' for Inactive)
REMARK    1  A    between atoms: C20_8  and  C12_12 
REMARK    2  A    between atoms: C22_10  and  C19_16 
REMARK       I    between atoms: C22_10  and  N25_19 
REMARK    3  A    between atoms: C12_12  and  C18_15 
REMARK    4  A    between atoms: N25_19  and  C37_23 
REMARK    5  A    between atoms: C37_23  and  C38_24 
REMARK    6  A    between atoms: C38_24  and  N4_25 
REMARK    7  A    between atoms: N4_25  and  C39_26 
REMARK    8  A    between atoms: N4_25  and  C40_27 
ROOT
HETATM    1  C4    D T   1       2.825 -16.622  -0.457  1.00 24.36     0.052 C 
HETATM    2  C13   D T   1       5.372 -14.068   0.471  1.00 24.57     0.002 A 
HETATM    3  C3    D T   1       6.288 -12.877   0.302  1.00 24.44     0.033 C 
HETATM    4  C14   D T   1       3.864 -15.704   0.130  1.00 24.54     0.064 A 
HETATM    5  C18   D T   1       5.268 -14.840   1.616  1.00 24.01     0.077 A 
HETATM    6  C19   D T   1       4.482 -14.617  -0.484  1.00 25.13     0.069 A 
HETATM    7  N23   D T   1       4.338 -15.827   1.381  1.00 24.05    -0.250 NA
ENDROOT
BRANCH   5   8
HETATM    8  C12   D T   1       5.996 -14.613   2.805  1.00 23.99     0.024 C 
BRANCH   8   9
HETATM    9  C20   D T   1       6.240 -15.519   3.825  1.00 22.41     0.061 A 
HETATM   10  C17   D T   1       5.219 -15.918   4.816  1.00 22.55     0.025 A 
HETATM   11  C7    D T   1       3.887 -15.551   5.007  1.00 22.62     0.031 A 
HETATM   12  C16   D T   1       5.821 -16.870   5.652  1.00 22.15     0.085 A 
HETATM   13  C15   D T   1       3.161 -16.121   6.040  1.00 22.57     0.140 A 
HETATM   14  C5    D T   1       3.757 -17.056   6.879  1.00 22.50     0.031 A 
HETATM   15  F29   D T   1       1.872 -15.766   6.232  1.00 23.29    -0.204 F 
HETATM   16  C6    D T   1       5.076 -17.428   6.691  1.00 22.36     0.021 A 
HETATM   17  N24   D T   1       7.136 -17.055   5.251  1.00 22.12    -0.208 NA
HETATM   18  C21   D T   1       7.447 -16.288   4.192  1.00 22.05     0.279 A 
HETATM   19  O27   D T   1       8.545 -16.256   3.658  1.00 20.62    -0.265 OA
ENDBRANCH   8   9
ENDBRANCH   5   8
BRANCH   6  20
HETATM   20  C22   D T   1       4.261 -14.121  -1.868  1.00 26.35     0.276 C 
HETATM   21  N25   D T   1       5.257 -14.179  -2.782  1.00 28.46    -0.232 NA
HETATM   22  O28   D T   1       3.181 -13.651  -2.177  1.00 27.15    -0.266 OA
BRANCH  21  23
HETATM   23  C37   D T   1       5.077 -13.696  -4.158  1.00 29.92     0.164 C 
BRANCH  23  24
HETATM   24  C38   D T   1       6.353 -12.989  -4.626  1.00 30.92     0.276 C 
BRANCH  24  25
HETATM   25  N4    D T   1       6.073 -11.560  -4.854  1.00 32.03     0.139 N 
BRANCH  25  26
HETATM   26  C39   D T   1       5.744 -10.769  -3.649  1.00 32.13     0.250 C 
HETATM   27  C42   D T   1       6.893 -10.685  -2.635  1.00 32.46     0.037 C 
ENDBRANCH  25  26
BRANCH  25  28
HETATM   28  C40   D T   1       7.108 -10.925  -5.683  1.00 32.51     0.250 C 
HETATM   29  C41   D T   1       6.605  -9.563  -6.170  1.00 33.01     0.037 C 
ENDBRANCH  25  28
ENDBRANCH  24  25
ENDBRANCH  23  24
ENDBRANCH  21  23
ENDBRANCH   6  20
TORSDOF 8
ENDMDL
MODEL 6
REMARK VINA RESULT:    -6.282      3.806      6.278
REMARK INTER + INTRA:         -10.596
REMARK INTER:                  -9.041
REMARK INTRA:                  -1.555
REMARK UNBOUND:                -1.376
REMARK  8 active torsions:
REMARK  status: ('A' for Active; 'I' for Inactive)
REMARK    1  A    between atoms: C20_8  and  C12_12 
REMARK    2  A    between atoms: C22_10  and  C19_16 
REMARK       I    between atoms: C22_10  and  N25_19 
REMARK    3  A    between atoms: C12_12  and  C18_15 
REMARK    4  A    between atoms: N25_19  and  C37_23 
REMARK    5  A    between atoms: C37_23  and  C38_24 
REMARK    6  A    between atoms: C38_24  and  N4_25 
REMARK    7  A    between atoms: N4_25  and  C39_26 
REMARK    8  A    between atoms: N4_25  and  C40_27 
ROOT
HETATM    1  C4    D T   1     -11.878  -4.028  -5.733  1.00 24.36     0.052 C 
HETATM    2  C13   D T   1      -9.033  -2.962  -7.888  1.00 24.57     0.002 A 
HETATM    3  C3    D T   1      -8.210  -2.054  -8.773  1.00 24.44     0.033 C 
HETATM    4  C14   D T   1     -10.642  -3.819  -6.567  1.00 24.54     0.064 A 
HETATM    5  C18   D T   1      -8.699  -4.260  -7.543  1.00 24.01     0.077 A 
HETATM    6  C19   D T   1     -10.277  -2.675  -7.272  1.00 25.13     0.069 A 
HETATM    7  N23   D T   1      -9.695  -4.757  -6.733  1.00 24.05    -0.250 NA
ENDROOT
BRANCH   5   8
HETATM    8  C12   D T   1      -7.521  -4.922  -7.957  1.00 23.99     0.024 C 
BRANCH   8   9
HETATM    9  C20   D T   1      -6.501  -5.401  -7.152  1.00 22.41     0.061 A 
HETATM   10  C17   D T   1      -5.319  -4.597  -6.775  1.00 22.55     0.025 A 
HETATM   11  C7    D T   1      -4.922  -3.295  -7.078  1.00 22.62     0.031 A 
HETATM   12  C16   D T   1      -4.539  -5.399  -5.929  1.00 22.15     0.085 A 
HETATM   13  C15   D T   1      -3.740  -2.800  -6.552  1.00 22.57     0.140 A 
HETATM   14  C5    D T   1      -2.957  -3.595  -5.723  1.00 22.50     0.031 A 
HETATM   15  F29   D T   1      -3.348  -1.541  -6.846  1.00 23.29    -0.204 F 
HETATM   16  C6    D T   1      -3.350  -4.886  -5.414  1.00 22.36     0.021 A 
HETATM   17  N24   D T   1      -5.153  -6.636  -5.788  1.00 22.12    -0.208 NA
HETATM   18  C21   D T   1      -6.301  -6.705  -6.485  1.00 22.05     0.279 A 
HETATM   19  O27   D T   1      -7.021  -7.689  -6.538  1.00 20.62    -0.265 OA
ENDBRANCH   8   9
ENDBRANCH   5   8
BRANCH   6  20
HETATM   20  C22   D T   1     -11.032  -1.398  -7.369  1.00 26.35     0.276 C 
HETATM   21  N25   D T   1     -10.675  -0.334  -6.613  1.00 28.46    -0.232 NA
HETATM   22  O28   D T   1     -11.982  -1.313  -8.126  1.00 27.15    -0.266 OA
BRANCH  21  23
HETATM   23  C37   D T   1     -11.399   0.943  -6.681  1.00 29.92     0.164 C 
BRANCH  23  24
HETATM   24  C38   D T   1     -10.462   2.038  -7.202  1.00 30.92     0.276 C 
BRANCH  24  25
HETATM   25  N4    D T   1      -9.237   2.073  -6.385  1.00 32.03     0.139 N 
BRANCH  25  26
HETATM   26  C39   D T   1      -7.990   1.684  -7.079  1.00 32.13     0.250 C 
HETATM   27  C42   D T   1      -7.246   0.522  -6.406  1.00 32.46     0.037 C 
ENDBRANCH  25  26
BRANCH  25  28
HETATM   28  C40   D T   1      -9.104   3.340  -5.651  1.00 32.51     0.250 C 
HETATM   29  C41   D T   1      -7.934   4.142  -6.228  1.00 33.01     0.037 C 
ENDBRANCH  25  28
ENDBRANCH  24  25
ENDBRANCH  23  24
ENDBRANCH  21  23
ENDBRANCH   6  20
TORSDOF 8
ENDMDL
MODEL 7
REMARK VINA RESULT:    -6.246      3.532      5.945
REMARK INTER + INTRA:         -10.542
REMARK INTER:                  -9.432
REMARK INTRA:                  -1.111
REMARK UNBOUND:                -1.376
REMARK  8 active torsions:
REMARK  status: ('A' for Active; 'I' for Inactive)
REMARK    1  A    between atoms: C20_8  and  C12_12 
REMARK    2  A    between atoms: C22_10  and  C19_16 
REMARK       I    between atoms: C22_10  and  N25_19 
REMARK    3  A    between atoms: C12_12  and  C18_15 
REMARK    4  A    between atoms: N25_19  and  C37_23 
REMARK    5  A    between atoms: C37_23  and  C38_24 
REMARK    6  A    between atoms: C38_24  and  N4_25 
REMARK    7  A    between atoms: N4_25  and  C39_26 
REMARK    8  A    between atoms: N4_25  and  C40_27 
ROOT
HETATM    1  C4    D T   1      -8.637  -1.710  -9.182  1.00 24.36     0.052 C 
HETATM    2  C13   D T   1      -8.489  -3.700  -6.038  1.00 24.57     0.002 A 
HETATM    3  C3    D T   1      -8.680  -4.022  -4.573  1.00 24.44     0.033 C 
HETATM    4  C14   D T   1      -8.468  -2.682  -8.045  1.00 24.54     0.064 A 
HETATM    5  C18   D T   1      -7.901  -4.538  -6.970  1.00 24.01     0.077 A 
HETATM    6  C19   D T   1      -8.849  -2.510  -6.717  1.00 25.13     0.069 A 
HETATM    7  N23   D T   1      -7.906  -3.894  -8.186  1.00 24.05    -0.250 NA
ENDROOT
BRANCH   5   8
HETATM    8  C12   D T   1      -7.406  -5.831  -6.686  1.00 23.99     0.024 C 
BRANCH   8   9
HETATM    9  C20   D T   1      -6.094  -6.188  -6.424  1.00 22.41     0.061 A 
HETATM   10  C17   D T   1      -5.062  -5.223  -5.990  1.00 22.55     0.025 A 
HETATM   11  C7    D T   1      -5.089  -3.849  -5.751  1.00 22.62     0.031 A 
HETATM   12  C16   D T   1      -3.884  -5.957  -5.787  1.00 22.15     0.085 A 
HETATM   13  C15   D T   1      -3.937  -3.205  -5.327  1.00 22.57     0.140 A 
HETATM   14  C5    D T   1      -2.764  -3.926  -5.137  1.00 22.50     0.031 A 
HETATM   15  F29   D T   1      -3.956  -1.874  -5.099  1.00 23.29    -0.204 F 
HETATM   16  C6    D T   1      -2.734  -5.291  -5.366  1.00 22.36     0.021 A 
HETATM   17  N24   D T   1      -4.125  -7.289  -6.091  1.00 22.12    -0.208 NA
HETATM   18  C21   D T   1      -5.397  -7.490  -6.478  1.00 22.05     0.279 A 
HETATM   19  O27   D T   1      -5.857  -8.570  -6.812  1.00 20.62    -0.265 OA
ENDBRANCH   8   9
ENDBRANCH   5   8
BRANCH   6  20
HETATM   20  C22   D T   1      -9.505  -1.319  -6.116  1.00 26.35     0.276 C 
HETATM   21  N25   D T   1     -10.771  -0.988  -6.462  1.00 28.46    -0.232 NA
HETATM   22  O28   D T   1      -8.896  -0.633  -5.316  1.00 27.15    -0.266 OA
BRANCH  21  23
HETATM   23  C37   D T   1     -11.450   0.183  -5.890  1.00 29.92     0.164 C 
BRANCH  23  24
HETATM   24  C38   D T   1     -11.639   1.248  -6.975  1.00 30.92     0.276 C 
BRANCH  24  25
HETATM   25  N4    D T   1     -10.626   2.305  -6.815  1.00 32.03     0.139 N 
BRANCH  25  26
HETATM   26  C39   D T   1      -9.384   2.129  -7.599  1.00 32.13     0.250 C 
HETATM   27  C42   D T   1      -8.105   2.419  -6.802  1.00 32.46     0.037 C 
ENDBRANCH  25  26
BRANCH  25  28
HETATM   28  C40   D T   1     -11.206   3.647  -6.968  1.00 32.51     0.250 C 
HETATM   29  C41   D T   1     -11.804   4.099  -5.633  1.00 33.01     0.037 C 
ENDBRANCH  25  28
ENDBRANCH  24  25
ENDBRANCH  23  24
ENDBRANCH  21  23
ENDBRANCH   6  20
TORSDOF 8
ENDMDL
MODEL 8
REMARK VINA RESULT:    -6.224      3.121      9.121
REMARK INTER + INTRA:         -10.510
REMARK INTER:                  -9.011
REMARK INTRA:                  -1.499
REMARK UNBOUND:                -1.376
REMARK  8 active torsions:
REMARK  status: ('A' for Active; 'I' for Inactive)
REMARK    1  A    between atoms: C20_8  and  C12_12 
REMARK    2  A    between atoms: C22_10  and  C19_16 
REMARK       I    between atoms: C22_10  and  N25_19 
REMARK    3  A    between atoms: C12_12  and  C18_15 
REMARK    4  A    between atoms: N25_19  and  C37_23 
REMARK    5  A    between atoms: C37_23  and  C38_24 
REMARK    6  A    between atoms: C38_24  and  N4_25 
REMARK    7  A    between atoms: N4_25  and  C39_26 
REMARK    8  A    between atoms: N4_25  and  C40_27 
ROOT
HETATM    1  C4    D T   1      -8.489  -9.879  -8.711  1.00 24.36     0.052 C 
HETATM    2  C13   D T   1      -5.924  -7.968  -6.802  1.00 24.57     0.002 A 
HETATM    3  C3    D T   1      -4.586  -7.670  -6.165  1.00 24.44     0.033 C 
HETATM    4  C14   D T   1      -7.626  -8.942  -7.909  1.00 24.54     0.064 A 
HETATM    5  C18   D T   1      -7.034  -7.141  -6.756  1.00 24.01     0.077 A 
HETATM    6  C19   D T   1      -6.297  -9.123  -7.533  1.00 25.13     0.069 A 
HETATM    7  N23   D T   1      -8.054  -7.757  -7.443  1.00 24.05    -0.250 NA
ENDROOT
BRANCH   5   8
HETATM    8  C12   D T   1      -7.068  -5.881  -6.117  1.00 23.99     0.024 C 
BRANCH   8   9
HETATM    9  C20   D T   1      -6.875  -4.639  -6.701  1.00 22.41     0.061 A 
HETATM   10  C17   D T   1      -5.686  -3.800  -6.448  1.00 22.55     0.025 A 
HETATM   11  C7    D T   1      -4.554  -3.973  -5.651  1.00 22.62     0.031 A 
HETATM   12  C16   D T   1      -5.829  -2.650  -7.239  1.00 22.15     0.085 A 
HETATM   13  C15   D T   1      -3.576  -2.993  -5.630  1.00 22.57     0.140 A 
HETATM   14  C5    D T   1      -3.719  -1.846  -6.403  1.00 22.50     0.031 A 
HETATM   15  F29   D T   1      -2.480  -3.153  -4.856  1.00 23.29    -0.204 F 
HETATM   16  C6    D T   1      -4.836  -1.672  -7.201  1.00 22.36     0.021 A 
HETATM   17  N24   D T   1      -7.029  -2.725  -7.931  1.00 22.12    -0.208 NA
HETATM   18  C21   D T   1      -7.694  -3.861  -7.654  1.00 22.05     0.279 A 
HETATM   19  O27   D T   1      -8.781  -4.160  -8.123  1.00 20.62    -0.265 OA
ENDBRANCH   8   9
ENDBRANCH   5   8
BRANCH   6  20
HETATM   20  C22   D T   1      -5.429 -10.292  -7.831  1.00 26.35     0.276 C 
HETATM   21  N25   D T   1      -5.603 -11.460  -7.170  1.00 28.46    -0.232 NA
HETATM   22  O28   D T   1      -4.551 -10.196  -8.669  1.00 27.15    -0.266 OA
BRANCH  21  23
HETATM   23  C37   D T   1      -4.763 -12.636  -7.436  1.00 29.92     0.164 C 
BRANCH  23  24
HETATM   24  C38   D T   1      -5.654 -13.853  -7.703  1.00 30.92     0.276 C 
BRANCH  24  25
HETATM   25  N4    D T   1      -5.759 -14.083  -9.155  1.00 32.03     0.139 N 
BRANCH  25  26
HETATM   26  C39   D T   1      -5.334 -15.418  -9.627  1.00 32.13     0.250 C 
HETATM   27  C42   D T   1      -4.300 -15.370 -10.761  1.00 32.46     0.037 C 
ENDBRANCH  25  26
BRANCH  25  28
HETATM   28  C40   D T   1      -7.077 -13.692  -9.677  1.00 32.51     0.250 C 
HETATM   29  C41   D T   1      -6.901 -12.613 -10.750  1.00 33.01     0.037 C 
ENDBRANCH  25  28
ENDBRANCH  24  25
ENDBRANCH  23  24
ENDBRANCH  21  23
ENDBRANCH   6  20
TORSDOF 8
ENDMDL
MODEL 9
REMARK VINA RESULT:    -6.122      2.630      3.900
REMARK INTER + INTRA:         -10.360
REMARK INTER:                  -9.265
REMARK INTRA:                  -1.095
REMARK UNBOUND:                -1.376
REMARK  8 active torsions:
REMARK  status: ('A' for Active; 'I' for Inactive)
REMARK    1  A    between atoms: C20_8  and  C12_12 
REMARK    2  A    between atoms: C22_10  and  C19_16 
REMARK       I    between atoms: C22_10  and  N25_19 
REMARK    3  A    between atoms: C12_12  and  C18_15 
REMARK    4  A    between atoms: N25_19  and  C37_23 
REMARK    5  A    between atoms: C37_23  and  C38_24 
REMARK    6  A    between atoms: C38_24  and  N4_25 
REMARK    7  A    between atoms: N4_25  and  C39_26 
REMARK    8  A    between atoms: N4_25  and  C40_27 
ROOT
HETATM    1  C4    D T   1      -5.136  -1.178  -6.594  1.00 24.36     0.052 C 
HETATM    2  C13   D T   1      -7.766  -3.742  -5.974  1.00 24.57     0.002 A 
HETATM    3  C3    D T   1      -9.156  -4.307  -5.792  1.00 24.44     0.033 C 
HETATM    4  C14   D T   1      -6.015  -2.369  -6.318  1.00 24.54     0.064 A 
HETATM    5  C18   D T   1      -6.590  -4.468  -5.888  1.00 24.01     0.077 A 
HETATM    6  C19   D T   1      -7.405  -2.398  -6.244  1.00 25.13     0.069 A 
HETATM    7  N23   D T   1      -5.539  -3.607  -6.108  1.00 24.05    -0.250 NA
ENDROOT
BRANCH   5   8
HETATM    8  C12   D T   1      -6.523  -5.857  -5.634  1.00 23.99     0.024 C 
BRANCH   8   9
HETATM    9  C20   D T   1      -5.481  -6.716  -5.944  1.00 22.41     0.061 A 
HETATM   10  C17   D T   1      -5.656  -7.949  -6.739  1.00 22.55     0.025 A 
HETATM   11  C7    D T   1      -6.769  -8.545  -7.332  1.00 22.62     0.031 A 
HETATM   12  C16   D T   1      -4.384  -8.524  -6.876  1.00 22.15     0.085 A 
HETATM   13  C15   D T   1      -6.616  -9.723  -8.046  1.00 22.57     0.140 A 
HETATM   14  C5    D T   1      -5.359 -10.304  -8.174  1.00 22.50     0.031 A 
HETATM   15  F29   D T   1      -7.690 -10.307  -8.619  1.00 23.29    -0.204 F 
HETATM   16  C6    D T   1      -4.250  -9.712  -7.593  1.00 22.36     0.021 A 
HETATM   17  N24   D T   1      -3.460  -7.741  -6.200  1.00 22.12    -0.208 NA
HETATM   18  C21   D T   1      -4.038  -6.671  -5.626  1.00 22.05     0.279 A 
HETATM   19  O27   D T   1      -3.445  -5.835  -4.963  1.00 20.62    -0.265 OA
ENDBRANCH   8   9
ENDBRANCH   5   8
BRANCH   6  20
HETATM   20  C22   D T   1      -8.340  -1.255  -6.410  1.00 26.35     0.276 C 
HETATM   21  N25   D T   1      -8.766  -0.894  -7.643  1.00 28.46    -0.232 NA
HETATM   22  O28   D T   1      -8.716  -0.633  -5.433  1.00 27.15    -0.266 OA
BRANCH  21  23
HETATM   23  C37   D T   1      -9.688   0.233  -7.847  1.00 29.92     0.164 C 
BRANCH  23  24
HETATM   24  C38   D T   1      -8.895   1.476  -8.262  1.00 30.92     0.276 C 
BRANCH  24  25
HETATM   25  N4    D T   1      -9.171   2.577  -7.322  1.00 32.03     0.139 N 
BRANCH  25  26
HETATM   26  C39   D T   1     -10.506   2.560  -6.686  1.00 32.13     0.250 C 
HETATM   27  C42   D T   1     -11.431   3.688  -7.164  1.00 32.46     0.037 C 
ENDBRANCH  25  26
BRANCH  25  28
HETATM   28  C40   D T   1      -8.083   2.751  -6.349  1.00 32.51     0.250 C 
HETATM   29  C41   D T   1      -7.861   4.244  -6.095  1.00 33.01     0.037 C 
ENDBRANCH  25  28
ENDBRANCH  24  25
ENDBRANCH  23  24
ENDBRANCH  21  23
ENDBRANCH   6  20
TORSDOF 8
ENDMDL
