MODEL 1
REMARK VINA RESULT:    -9.744      0.000      0.000
REMARK INTER + INTRA:         -11.359
REMARK INTER:                 -10.883
REMARK INTRA:                  -0.476
REMARK UNBOUND:                -0.476
REMARK  2 active torsions:
REMARK  status: ('A' for Active; 'I' for Inactive)
REMARK    1  A    between atoms: CAX_24  and  NBD_30 
REMARK    2  A    between atoms: CAY_25  and  CAZ_26 
ROOT
HETATM    1  CAE   D T 600     -12.989   3.236  -4.890  1.00 46.04     0.002 A 
HETATM    2  CAF   D T 600     -11.438   4.916  -4.102  1.00 45.69     0.002 A 
HETATM    3  CAG   D T 600     -12.031   2.788  -5.788  1.00 45.75     0.017 A 
HETATM    4  CAH   D T 600     -10.479   4.451  -4.994  1.00 45.50     0.017 A 
HETATM    5  CAK   D T 600     -15.029   4.691  -3.325  1.00 35.53     0.102 A 
HETATM    6  CAL   D T 600     -15.039   6.808   0.617  1.00 33.49     0.124 A 
HETATM    7  CAM   D T 600     -13.163   5.419  -1.979  1.00 37.51     0.104 A 
HETATM    8  NAS   D T 600     -15.877   5.181  -2.406  1.00 41.55    -0.225 NA
HETATM    9  NAT   D T 600     -13.867   6.508   0.044  1.00 34.74    -0.162 NA
HETATM   10  CAV   D T 600     -12.706   4.319  -4.046  1.00 43.90     0.003 A 
HETATM   11  CAW   D T 600     -13.649   4.809  -3.135  1.00 37.17     0.038 A 
HETATM   12  CAX   D T 600     -10.777   3.395  -5.843  1.00 47.52     0.056 A 
HETATM   13  CAZ   D T 600     -16.024   6.383  -0.165  1.00 33.41     0.057 A 
HETATM   14  CBC   D T 600     -15.433   5.805  -1.276  1.00 37.64     0.165 A 
HETATM   15  NBE   D T 600     -14.051   5.933  -1.030  1.00 36.80    -0.211 N 
ENDROOT
BRANCH  13  16
HETATM   16  CAY   D T 600     -17.397   6.518   0.071  1.00 35.53     0.007 A 
HETATM   17  CAD   D T 600     -17.996   7.779  -0.102  1.00 33.79     0.021 A 
HETATM   18  CAC   D T 600     -19.357   7.927   0.133  1.00 29.73     0.099 A 
HETATM   19  NAR   D T 600     -20.089   6.897   0.524  1.00 26.72    -0.244 NA
HETATM   20  CBA   D T 600     -19.554   5.687   0.699  1.00 26.75     0.081 A 
HETATM   21  CAI   D T 600     -20.368   4.638   1.099  1.00 28.72     0.019 A 
HETATM   22  CBB   D T 600     -18.206   5.457   0.478  1.00 30.35     0.018 A 
HETATM   23  CAA   D T 600     -19.860   3.363   1.279  1.00 24.81     0.002 A 
HETATM   24  CAB   D T 600     -18.521   3.144   1.059  1.00 24.46     0.000 A 
HETATM   25  CAJ   D T 600     -17.692   4.180   0.655  1.00 27.06     0.002 A 
ENDBRANCH  13  16
BRANCH  12  26
HETATM   26  NBD   D T 600      -9.780   2.911  -6.707  1.00 50.24    -0.344 N 
HETATM   27  CAP   D T 600      -8.356   2.876  -6.236  1.00 48.20     0.140 C 
HETATM   28  CAN   D T 600      -7.848   1.438  -6.250  1.00 44.02     0.314 C 
HETATM   29  NAU   D T 600      -8.195   0.819  -7.542  1.00 42.58     0.343 N 
HETATM   30  CAO   D T 600      -9.657   0.811  -7.750  1.00 41.76     0.314 C 
HETATM   31  CAQ   D T 600     -10.129   2.236  -7.967  1.00 40.50     0.140 C 
ENDBRANCH  12  26
TORSDOF 2
ENDMDL
MODEL 2
REMARK VINA RESULT:    -9.744      0.915      2.067
REMARK INTER + INTRA:         -11.359
REMARK INTER:                 -10.897
REMARK INTRA:                  -0.462
REMARK UNBOUND:                -0.476
REMARK  2 active torsions:
REMARK  status: ('A' for Active; 'I' for Inactive)
REMARK    1  A    between atoms: CAX_24  and  NBD_30 
REMARK    2  A    between atoms: CAY_25  and  CAZ_26 
ROOT
HETATM    1  CAE   D T 600     -13.253   2.719  -4.770  1.00 46.04     0.002 A 
HETATM    2  CAF   D T 600     -11.927   4.570  -3.957  1.00 45.69     0.002 A 
HETATM    3  CAG   D T 600     -12.271   2.441  -5.710  1.00 45.75     0.017 A 
HETATM    4  CAH   D T 600     -10.942   4.275  -4.892  1.00 45.50     0.017 A 
HETATM    5  CAK   D T 600     -15.426   3.817  -3.095  1.00 35.53     0.102 A 
HETATM    6  CAL   D T 600     -15.606   5.770   0.926  1.00 33.49     0.124 A 
HETATM    7  CAM   D T 600     -13.638   4.751  -1.772  1.00 37.51     0.104 A 
HETATM    8  NAS   D T 600     -16.304   4.151  -2.136  1.00 41.55    -0.225 NA
HETATM    9  NAT   D T 600     -14.422   5.658   0.311  1.00 34.74    -0.162 NA
HETATM   10  CAV   D T 600     -13.098   3.799  -3.891  1.00 43.90     0.003 A 
HETATM   11  CAW   D T 600     -14.071   4.121  -2.937  1.00 37.17     0.038 A 
HETATM   12  CAX   D T 600     -11.116   3.219  -5.773  1.00 47.52     0.056 A 
HETATM   13  CAZ   D T 600     -16.547   5.240   0.153  1.00 33.41     0.057 A 
HETATM   14  CBC   D T 600     -15.917   4.790  -0.995  1.00 37.64     0.165 A 
HETATM   15  NBE   D T 600     -14.559   5.102  -0.780  1.00 36.80    -0.211 N 
ENDROOT
BRANCH  13  16
HETATM   16  CAY   D T 600     -17.918   5.174   0.430  1.00 35.53     0.007 A 
HETATM   17  CAD   D T 600     -18.446   3.988   0.970  1.00 33.79     0.021 A 
HETATM   18  CAC   D T 600     -19.805   3.909   1.245  1.00 29.73     0.099 A 
HETATM   19  NAR   D T 600     -20.603   4.934   0.997  1.00 26.72    -0.244 NA
HETATM   20  CBA   D T 600     -20.136   6.074   0.484  1.00 26.75     0.081 A 
HETATM   21  CAI   D T 600     -21.014   7.123   0.254  1.00 28.72     0.019 A 
HETATM   22  CBB   D T 600     -18.793   6.234   0.189  1.00 30.35     0.018 A 
HETATM   23  CAA   D T 600     -20.573   8.328  -0.264  1.00 24.81     0.002 A 
HETATM   24  CAB   D T 600     -19.238   8.477  -0.555  1.00 24.46     0.000 A 
HETATM   25  CAJ   D T 600     -18.344   7.441  -0.327  1.00 27.06     0.002 A 
ENDBRANCH  13  16
BRANCH  12  26
HETATM   26  NBD   D T 600     -10.089   2.910  -6.681  1.00 50.24    -0.344 N 
HETATM   27  CAP   D T 600      -8.660   3.047  -6.245  1.00 48.20     0.140 C 
HETATM   28  CAN   D T 600      -7.967   1.692  -6.337  1.00 44.02     0.314 C 
HETATM   29  NAU   D T 600      -8.265   1.087  -7.647  1.00 42.58     0.343 N 
HETATM   30  CAO   D T 600      -9.719   0.891  -7.822  1.00 41.76     0.314 C 
HETATM   31  CAQ   D T 600     -10.381   2.248  -7.963  1.00 40.50     0.140 C 
ENDBRANCH  12  26
TORSDOF 2
ENDMDL
MODEL 3
REMARK VINA RESULT:    -9.651      2.112     10.359
REMARK INTER + INTRA:         -11.256
REMARK INTER:                 -11.241
REMARK INTRA:                  -0.014
REMARK UNBOUND:                -0.476
REMARK  2 active torsions:
REMARK  status: ('A' for Active; 'I' for Inactive)
REMARK    1  A    between atoms: CAX_24  and  NBD_30 
REMARK    2  A    between atoms: CAY_25  and  CAZ_26 
ROOT
HETATM    1  CAE   D T 600     -16.857   3.239  -1.238  1.00 46.04     0.002 A 
HETATM    2  CAF   D T 600     -15.266   4.573   0.000  1.00 45.69     0.002 A 
HETATM    3  CAG   D T 600     -17.765   3.376  -0.198  1.00 45.75     0.017 A 
HETATM    4  CAH   D T 600     -16.187   4.718   1.031  1.00 45.50     0.017 A 
HETATM    5  CAK   D T 600     -14.606   2.619  -3.049  1.00 35.53     0.102 A 
HETATM    6  CAL   D T 600     -11.135   4.945  -4.649  1.00 33.49     0.124 A 
HETATM    7  CAM   D T 600     -13.706   4.728  -2.297  1.00 37.51     0.104 A 
HETATM    8  NAS   D T 600     -13.668   2.566  -4.008  1.00 41.55    -0.225 NA
HETATM    9  NAT   D T 600     -11.814   5.430  -3.602  1.00 34.74    -0.162 NA
HETATM   10  CAV   D T 600     -15.588   3.825  -1.142  1.00 43.90     0.003 A 
HETATM   11  CAW   D T 600     -14.638   3.700  -2.163  1.00 37.17     0.038 A 
HETATM   12  CAX   D T 600     -17.432   4.113   0.937  1.00 47.52     0.056 A 
HETATM   13  CAZ   D T 600     -11.675   3.789  -5.017  1.00 33.41     0.057 A 
HETATM   14  CBC   D T 600     -12.727   3.545  -4.151  1.00 37.64     0.165 A 
HETATM   15  NBE   D T 600     -12.729   4.664  -3.295  1.00 36.80    -0.211 N 
ENDROOT
BRANCH  13  16
HETATM   16  CAY   D T 600     -11.245   2.960  -6.060  1.00 35.53     0.007 A 
HETATM   17  CAD   D T 600     -12.181   2.535  -7.020  1.00 33.79     0.021 A 
HETATM   18  CAC   D T 600     -11.768   1.709  -8.057  1.00 29.73     0.099 A 
HETATM   19  NAR   D T 600     -10.508   1.315  -8.144  1.00 26.72    -0.244 NA
HETATM   20  CBA   D T 600      -9.594   1.699  -7.251  1.00 26.75     0.081 A 
HETATM   21  CAI   D T 600      -8.284   1.267  -7.394  1.00 28.72     0.019 A 
HETATM   22  CBB   D T 600      -9.925   2.528  -6.192  1.00 30.35     0.018 A 
HETATM   23  CAA   D T 600      -7.299   1.650  -6.500  1.00 24.81     0.002 A 
HETATM   24  CAB   D T 600      -7.637   2.471  -5.451  1.00 24.46     0.000 A 
HETATM   25  CAJ   D T 600      -8.942   2.917  -5.293  1.00 27.06     0.002 A 
ENDBRANCH  13  16
BRANCH  12  26
HETATM   26  NBD   D T 600     -18.365   4.307   1.970  1.00 50.24    -0.344 N 
HETATM   27  CAP   D T 600     -19.759   3.777   1.806  1.00 48.20     0.140 C 
HETATM   28  CAN   D T 600     -20.052   2.764   2.907  1.00 44.02     0.314 C 
HETATM   29  NAU   D T 600     -19.646   3.333   4.205  1.00 42.58     0.343 N 
HETATM   30  CAO   D T 600     -18.202   3.646   4.217  1.00 41.76     0.314 C 
HETATM   31  CAQ   D T 600     -17.948   4.816   3.286  1.00 40.50     0.140 C 
ENDBRANCH  12  26
TORSDOF 2
ENDMDL
MODEL 4
REMARK VINA RESULT:    -9.395      1.773      2.775
REMARK INTER + INTRA:         -10.969
REMARK INTER:                 -10.482
REMARK INTRA:                  -0.487
REMARK UNBOUND:                -0.476
REMARK  2 active torsions:
REMARK  status: ('A' for Active; 'I' for Inactive)
REMARK    1  A    between atoms: CAX_24  and  NBD_30 
REMARK    2  A    between atoms: CAY_25  and  CAZ_26 
ROOT
HETATM    1  CAE   D T 600     -12.458   4.175  -4.308  1.00 46.04     0.002 A 
HETATM    2  CAF   D T 600     -13.602   2.547  -5.681  1.00 45.69     0.002 A 
HETATM    3  CAG   D T 600     -11.283   3.920  -5.003  1.00 45.75     0.017 A 
HETATM    4  CAH   D T 600     -12.425   2.309  -6.382  1.00 45.50     0.017 A 
HETATM    5  CAK   D T 600     -14.886   4.146  -2.625  1.00 35.53     0.102 A 
HETATM    6  CAL   D T 600     -19.272   3.845  -3.451  1.00 33.49     0.124 A 
HETATM    7  CAM   D T 600     -16.014   3.464  -4.645  1.00 37.51     0.104 A 
HETATM    8  NAS   D T 600     -16.075   4.338  -2.031  1.00 41.55    -0.225 NA
HETATM    9  NAT   D T 600     -18.406   3.522  -4.419  1.00 34.74    -0.162 NA
HETATM   10  CAV   D T 600     -13.629   3.476  -4.631  1.00 43.90     0.003 A 
HETATM   11  CAW   D T 600     -14.830   3.694  -3.946  1.00 37.17     0.038 A 
HETATM   12  CAX   D T 600     -11.265   2.987  -6.038  1.00 47.52     0.056 A 
HETATM   13  CAZ   D T 600     -18.596   4.212  -2.369  1.00 33.41     0.057 A 
HETATM   14  CBC   D T 600     -17.251   4.100  -2.680  1.00 37.64     0.165 A 
HETATM   15  NBE   D T 600     -17.249   3.660  -4.019  1.00 36.80    -0.211 N 
ENDROOT
BRANCH  13  16
HETATM   16  CAY   D T 600     -19.135   4.607  -1.139  1.00 35.53     0.007 A 
HETATM   17  CAD   D T 600     -19.342   5.976  -0.896  1.00 33.79     0.021 A 
HETATM   18  CAC   D T 600     -19.872   6.381   0.323  1.00 29.73     0.099 A 
HETATM   19  NAR   D T 600     -20.177   5.491   1.253  1.00 26.72    -0.244 NA
HETATM   20  CBA   D T 600     -19.994   4.184   1.056  1.00 26.75     0.081 A 
HETATM   21  CAI   D T 600     -20.340   3.293   2.061  1.00 28.72     0.019 A 
HETATM   22  CBB   D T 600     -19.476   3.701  -0.134  1.00 30.35     0.018 A 
HETATM   23  CAA   D T 600     -20.180   1.928   1.896  1.00 24.81     0.002 A 
HETATM   24  CAB   D T 600     -19.665   1.457   0.712  1.00 24.46     0.000 A 
HETATM   25  CAJ   D T 600     -19.316   2.333  -0.306  1.00 27.06     0.002 A 
ENDBRANCH  13  16
BRANCH  12  26
HETATM   26  NBD   D T 600     -10.097   2.765  -6.787  1.00 50.24    -0.344 N 
HETATM   27  CAP   D T 600      -8.761   2.994  -6.144  1.00 48.20     0.140 C 
HETATM   28  CAN   D T 600      -7.966   1.693  -6.140  1.00 44.02     0.314 C 
HETATM   29  NAU   D T 600      -8.025   1.090  -7.483  1.00 42.58     0.343 N 
HETATM   30  CAO   D T 600      -9.420   0.796  -7.871  1.00 41.76     0.314 C 
HETATM   31  CAQ   D T 600     -10.150   2.105  -8.101  1.00 40.50     0.140 C 
ENDBRANCH  12  26
TORSDOF 2
ENDMDL
MODEL 5
REMARK VINA RESULT:    -9.391      3.602      6.365
REMARK INTER + INTRA:         -10.965
REMARK INTER:                 -10.741
REMARK INTRA:                  -0.223
REMARK UNBOUND:                -0.476
REMARK  2 active torsions:
REMARK  status: ('A' for Active; 'I' for Inactive)
REMARK    1  A    between atoms: CAX_24  and  NBD_30 
REMARK    2  A    between atoms: CAY_25  and  CAZ_26 
ROOT
HETATM    1  CAE   D T 600     -13.858   0.490  -7.187  1.00 46.04     0.002 A 
HETATM    2  CAF   D T 600     -11.705   0.855  -8.225  1.00 45.69     0.002 A 
HETATM    3  CAG   D T 600     -14.097  -0.551  -8.074  1.00 45.75     0.017 A 
HETATM    4  CAH   D T 600     -11.947  -0.198  -9.100  1.00 45.50     0.017 A 
HETATM    5  CAK   D T 600     -13.385   3.054  -5.798  1.00 35.53     0.102 A 
HETATM    6  CAL   D T 600      -9.789   5.052  -4.038  1.00 33.49     0.124 A 
HETATM    7  CAM   D T 600     -11.048   2.545  -6.117  1.00 37.51     0.104 A 
HETATM    8  NAS   D T 600     -13.049   4.058  -4.972  1.00 41.55    -0.225 NA
HETATM    9  NAT   D T 600      -9.615   4.019  -4.872  1.00 34.74    -0.162 NA
HETATM   10  CAV   D T 600     -12.662   1.216  -7.265  1.00 43.90     0.003 A 
HETATM   11  CAW   D T 600     -12.387   2.280  -6.398  1.00 37.17     0.038 A 
HETATM   12  CAX   D T 600     -13.144  -0.895  -9.031  1.00 47.52     0.056 A 
HETATM   13  CAZ   D T 600     -11.089   5.283  -3.901  1.00 33.41     0.057 A 
HETATM   14  CBC   D T 600     -11.747   4.358  -4.695  1.00 37.64     0.165 A 
HETATM   15  NBE   D T 600     -10.705   3.596  -5.261  1.00 36.80    -0.211 N 
ENDROOT
BRANCH  13  16
HETATM   16  CAY   D T 600     -11.683   6.287  -3.128  1.00 35.53     0.007 A 
HETATM   17  CAD   D T 600     -11.431   7.633  -3.449  1.00 33.79     0.021 A 
HETATM   18  CAC   D T 600     -12.012   8.638  -2.686  1.00 29.73     0.099 A 
HETATM   19  NAR   D T 600     -12.790   8.339  -1.660  1.00 26.72    -0.244 NA
HETATM   20  CBA   D T 600     -13.051   7.074  -1.326  1.00 26.75     0.081 A 
HETATM   21  CAI   D T 600     -13.884   6.816  -0.247  1.00 28.72     0.019 A 
HETATM   22  CBB   D T 600     -12.516   6.016  -2.041  1.00 30.35     0.018 A 
HETATM   23  CAA   D T 600     -14.193   5.520   0.127  1.00 24.81     0.002 A 
HETATM   24  CAB   D T 600     -13.656   4.476  -0.588  1.00 24.46     0.000 A 
HETATM   25  CAJ   D T 600     -12.824   4.714  -1.672  1.00 27.06     0.002 A 
ENDBRANCH  13  16
BRANCH  12  26
HETATM   26  NBD   D T 600     -13.351  -1.984  -9.894  1.00 50.24    -0.344 N 
HETATM   27  CAP   D T 600     -14.744  -2.300 -10.353  1.00 48.20     0.140 C 
HETATM   28  CAN   D T 600     -14.818  -2.197 -11.872  1.00 44.02     0.314 C 
HETATM   29  NAU   D T 600     -13.682  -2.930 -12.459  1.00 42.58     0.343 N 
HETATM   30  CAO   D T 600     -12.395  -2.365 -12.005  1.00 41.76     0.314 C 
HETATM   31  CAQ   D T 600     -12.219  -2.675 -10.531  1.00 40.50     0.140 C 
ENDBRANCH  12  26
TORSDOF 2
ENDMDL
MODEL 6
REMARK VINA RESULT:    -8.933      4.849     10.541
REMARK INTER + INTRA:         -10.453
REMARK INTER:                  -9.969
REMARK INTRA:                  -0.484
REMARK UNBOUND:                -0.476
REMARK  2 active torsions:
REMARK  status: ('A' for Active; 'I' for Inactive)
REMARK    1  A    between atoms: CAX_24  and  NBD_30 
REMARK    2  A    between atoms: CAY_25  and  CAZ_26 
ROOT
HETATM    1  CAE   D T 600     -11.371   3.461  -5.512  1.00 46.04     0.002 A 
HETATM    2  CAF   D T 600     -13.452   3.080  -4.342  1.00 45.69     0.002 A 
HETATM    3  CAG   D T 600     -11.091   4.512  -4.651  1.00 45.75     0.017 A 
HETATM    4  CAH   D T 600     -13.157   4.125  -3.474  1.00 45.50     0.017 A 
HETATM    5  CAK   D T 600     -12.416   1.586  -7.543  1.00 35.53     0.102 A 
HETATM    6  CAL   D T 600     -14.835  -2.175  -7.391  1.00 33.49     0.124 A 
HETATM    7  CAM   D T 600     -13.713   0.679  -5.722  1.00 37.51     0.104 A 
HETATM    8  NAS   D T 600     -12.766   0.540  -8.308  1.00 41.55    -0.225 NA
HETATM    9  NAT   D T 600     -14.783  -1.392  -6.306  1.00 34.74    -0.162 NA
HETATM   10  CAV   D T 600     -12.566   2.742  -5.376  1.00 43.90     0.003 A 
HETATM   11  CAW   D T 600     -12.892   1.684  -6.232  1.00 37.17     0.038 A 
HETATM   12  CAX   D T 600     -11.983   4.847  -3.633  1.00 47.52     0.056 A 
HETATM   13  CAZ   D T 600     -14.104  -1.627  -8.355  1.00 33.41     0.057 A 
HETATM   14  CBC   D T 600     -13.587  -0.448  -7.845  1.00 37.64     0.165 A 
HETATM   15  NBE   D T 600     -14.079  -0.405  -6.525  1.00 36.80    -0.211 N 
ENDROOT
BRANCH  13  16
HETATM   16  CAY   D T 600     -13.916  -2.128  -9.648  1.00 35.53     0.007 A 
HETATM   17  CAD   D T 600     -12.878  -3.050  -9.876  1.00 33.79     0.021 A 
HETATM   18  CAC   D T 600     -12.679  -3.550 -11.157  1.00 29.73     0.099 A 
HETATM   19  NAR   D T 600     -13.450  -3.162 -12.159  1.00 26.72    -0.244 NA
HETATM   20  CBA   D T 600     -14.443  -2.290 -11.979  1.00 26.75     0.081 A 
HETATM   21  CAI   D T 600     -15.229  -1.925 -13.062  1.00 28.72     0.019 A 
HETATM   22  CBB   D T 600     -14.710  -1.750 -10.732  1.00 30.35     0.018 A 
HETATM   23  CAA   D T 600     -16.278  -1.034 -12.920  1.00 24.81     0.002 A 
HETATM   24  CAB   D T 600     -16.535  -0.502 -11.679  1.00 24.46     0.000 A 
HETATM   25  CAJ   D T 600     -15.762  -0.858 -10.583  1.00 27.06     0.002 A 
ENDBRANCH  13  16
BRANCH  12  26
HETATM   26  NBD   D T 600     -11.682   5.870  -2.719  1.00 50.24    -0.344 N 
HETATM   27  CAP   D T 600     -11.056   7.138  -3.220  1.00 48.20     0.140 C 
HETATM   28  CAN   D T 600     -11.971   8.317  -2.910  1.00 44.02     0.314 C 
HETATM   29  NAU   D T 600     -12.403   8.233  -1.503  1.00 42.58     0.343 N 
HETATM   30  CAO   D T 600     -13.139   6.978  -1.248  1.00 41.76     0.314 C 
HETATM   31  CAQ   D T 600     -12.167   5.817  -1.330  1.00 40.50     0.140 C 
ENDBRANCH  12  26
TORSDOF 2
ENDMDL
MODEL 7
REMARK VINA RESULT:    -8.876      4.600      8.447
REMARK INTER + INTRA:         -10.390
REMARK INTER:                 -11.217
REMARK INTRA:                   0.827
REMARK UNBOUND:                -0.476
REMARK  2 active torsions:
REMARK  status: ('A' for Active; 'I' for Inactive)
REMARK    1  A    between atoms: CAX_24  and  NBD_30 
REMARK    2  A    between atoms: CAY_25  and  CAZ_26 
ROOT
HETATM    1  CAE   D T 600     -13.428  -1.803  -9.075  1.00 46.04     0.002 A 
HETATM    2  CAF   D T 600     -11.501  -0.920 -10.238  1.00 45.69     0.002 A 
HETATM    3  CAG   D T 600     -13.509  -2.828 -10.008  1.00 45.75     0.017 A 
HETATM    4  CAH   D T 600     -11.580  -1.958 -11.160  1.00 45.50     0.017 A 
HETATM    5  CAK   D T 600     -13.410   0.733  -7.560  1.00 35.53     0.102 A 
HETATM    6  CAL   D T 600     -10.201   3.394  -5.935  1.00 33.49     0.124 A 
HETATM    7  CAM   D T 600     -11.053   0.772  -8.077  1.00 37.51     0.104 A 
HETATM    8  NAS   D T 600     -13.233   1.746  -6.697  1.00 41.55    -0.225 NA
HETATM    9  NAT   D T 600      -9.877   2.466  -6.845  1.00 34.74    -0.162 NA
HETATM   10  CAV   D T 600     -12.430  -0.827  -9.191  1.00 43.90     0.003 A 
HETATM   11  CAW   D T 600     -12.322   0.229  -8.278  1.00 37.17     0.038 A 
HETATM   12  CAX   D T 600     -12.587  -2.905 -11.051  1.00 47.52     0.056 A 
HETATM   13  CAZ   D T 600     -11.504   3.324  -5.691  1.00 33.41     0.057 A 
HETATM   14  CBC   D T 600     -12.008   2.314  -6.494  1.00 37.64     0.165 A 
HETATM   15  NBE   D T 600     -10.877   1.831  -7.181  1.00 36.80    -0.211 N 
ENDROOT
BRANCH  13  16
HETATM   16  CAY   D T 600     -12.236   4.133  -4.814  1.00 35.53     0.007 A 
HETATM   17  CAD   D T 600     -13.630   3.965  -4.736  1.00 33.79     0.021 A 
HETATM   18  CAC   D T 600     -14.367   4.765  -3.872  1.00 29.73     0.099 A 
HETATM   19  NAR   D T 600     -13.770   5.684  -3.131  1.00 26.72    -0.244 NA
HETATM   20  CBA   D T 600     -12.450   5.871  -3.180  1.00 26.75     0.081 A 
HETATM   21  CAI   D T 600     -11.873   6.841  -2.373  1.00 28.72     0.019 A 
HETATM   22  CBB   D T 600     -11.645   5.109  -4.011  1.00 30.35     0.018 A 
HETATM   23  CAA   D T 600     -10.506   7.061  -2.381  1.00 24.81     0.002 A 
HETATM   24  CAB   D T 600      -9.715   6.301  -3.209  1.00 24.46     0.000 A 
HETATM   25  CAJ   D T 600     -10.274   5.323  -4.020  1.00 27.06     0.002 A 
ENDBRANCH  13  16
BRANCH  12  26
HETATM   26  NBD   D T 600     -12.624  -3.971 -11.966  1.00 50.24    -0.344 N 
HETATM   27  CAP   D T 600     -13.812  -4.887 -11.976  1.00 48.20     0.140 C 
HETATM   28  CAN   D T 600     -14.489  -4.831 -13.341  1.00 44.02     0.314 C 
HETATM   29  NAU   D T 600     -13.464  -4.968 -14.392  1.00 42.58     0.343 N 
HETATM   30  CAO   D T 600     -12.470  -3.879 -14.308  1.00 41.76     0.314 C 
HETATM   31  CAQ   D T 600     -11.638  -4.073 -13.055  1.00 40.50     0.140 C 
ENDBRANCH  12  26
TORSDOF 2
ENDMDL
MODEL 8
REMARK VINA RESULT:    -8.743      1.994      3.437
REMARK INTER + INTRA:         -10.241
REMARK INTER:                  -9.752
REMARK INTRA:                  -0.489
REMARK UNBOUND:                -0.476
REMARK  2 active torsions:
REMARK  status: ('A' for Active; 'I' for Inactive)
REMARK    1  A    between atoms: CAX_24  and  NBD_30 
REMARK    2  A    between atoms: CAY_25  and  CAZ_26 
ROOT
HETATM    1  CAE   D T 600     -12.659   4.040  -4.287  1.00 46.04     0.002 A 
HETATM    2  CAF   D T 600     -13.583   2.166  -5.504  1.00 45.69     0.002 A 
HETATM    3  CAG   D T 600     -11.472   3.900  -4.993  1.00 45.75     0.017 A 
HETATM    4  CAH   D T 600     -12.396   2.043  -6.217  1.00 45.50     0.017 A 
HETATM    5  CAK   D T 600     -15.029   3.800  -2.540  1.00 35.53     0.102 A 
HETATM    6  CAL   D T 600     -19.342   2.822  -3.221  1.00 33.49     0.124 A 
HETATM    7  CAM   D T 600     -16.083   2.813  -4.473  1.00 37.51     0.104 A 
HETATM    8  NAS   D T 600     -16.223   3.868  -1.930  1.00 41.55    -0.225 NA
HETATM    9  NAT   D T 600     -18.454   2.551  -4.186  1.00 34.74    -0.162 NA
HETATM   10  CAV   D T 600     -13.724   3.161  -4.525  1.00 43.90     0.003 A 
HETATM   11  CAW   D T 600     -14.932   3.260  -3.825  1.00 37.17     0.038 A 
HETATM   12  CAX   D T 600     -11.338   2.902  -5.957  1.00 47.52     0.056 A 
HETATM   13  CAZ   D T 600     -18.707   3.363  -2.188  1.00 33.41     0.057 A 
HETATM   14  CBC   D T 600     -17.365   3.418  -2.527  1.00 37.64     0.165 A 
HETATM   15  NBE   D T 600     -17.322   2.881  -3.829  1.00 36.80    -0.211 N 
ENDROOT
BRANCH  13  16
HETATM   16  CAY   D T 600     -19.276   3.772  -0.976  1.00 35.53     0.007 A 
HETATM   17  CAD   D T 600     -19.285   2.877   0.108  1.00 33.79     0.021 A 
HETATM   18  CAC   D T 600     -19.851   3.270   1.314  1.00 29.73     0.099 A 
HETATM   19  NAR   D T 600     -20.386   4.472   1.446  1.00 26.72    -0.244 NA
HETATM   20  CBA   D T 600     -20.395   5.347   0.439  1.00 26.75     0.081 A 
HETATM   21  CAI   D T 600     -20.958   6.600   0.634  1.00 28.72     0.019 A 
HETATM   22  CBB   D T 600     -19.844   5.033  -0.792  1.00 30.35     0.018 A 
HETATM   23  CAA   D T 600     -20.979   7.543  -0.378  1.00 24.81     0.002 A 
HETATM   24  CAB   D T 600     -20.431   7.223  -1.597  1.00 24.46     0.000 A 
HETATM   25  CAJ   D T 600     -19.859   5.977  -1.810  1.00 27.06     0.002 A 
ENDBRANCH  13  16
BRANCH  12  26
HETATM   26  NBD   D T 600     -10.163   2.789  -6.718  1.00 50.24    -0.344 N 
HETATM   27  CAP   D T 600      -8.855   3.204  -6.112  1.00 48.20     0.140 C 
HETATM   28  CAN   D T 600      -7.909   2.009  -6.070  1.00 44.02     0.314 C 
HETATM   29  NAU   D T 600      -7.915   1.345  -7.386  1.00 42.58     0.343 N 
HETATM   30  CAO   D T 600      -9.270   0.870  -7.734  1.00 41.76     0.314 C 
HETATM   31  CAQ   D T 600     -10.156   2.071  -8.003  1.00 40.50     0.140 C 
ENDBRANCH  12  26
TORSDOF 2
ENDMDL
MODEL 9
REMARK VINA RESULT:    -8.550      3.453      5.583
REMARK INTER + INTRA:         -10.025
REMARK INTER:                  -9.871
REMARK INTRA:                  -0.154
REMARK UNBOUND:                -0.476
REMARK  2 active torsions:
REMARK  status: ('A' for Active; 'I' for Inactive)
REMARK    1  A    between atoms: CAX_24  and  NBD_30 
REMARK    2  A    between atoms: CAY_25  and  CAZ_26 
ROOT
HETATM    1  CAE   D T 600     -14.158   1.287  -6.526  1.00 46.04     0.002 A 
HETATM    2  CAF   D T 600     -12.001   1.680  -7.545  1.00 45.69     0.002 A 
HETATM    3  CAG   D T 600     -14.391   0.266  -7.437  1.00 45.75     0.017 A 
HETATM    4  CAH   D T 600     -12.236   0.647  -8.444  1.00 45.50     0.017 A 
HETATM    5  CAK   D T 600     -13.698   3.820  -5.077  1.00 35.53     0.102 A 
HETATM    6  CAL   D T 600     -10.115   5.786  -3.255  1.00 33.49     0.124 A 
HETATM    7  CAM   D T 600     -11.358   3.324  -5.395  1.00 37.51     0.104 A 
HETATM    8  NAS   D T 600     -13.368   4.806  -4.227  1.00 41.55    -0.225 NA
HETATM    9  NAT   D T 600      -9.935   4.773  -4.111  1.00 34.74    -0.162 NA
HETATM   10  CAV   D T 600     -12.963   2.017  -6.581  1.00 43.90     0.003 A 
HETATM   11  CAW   D T 600     -12.695   3.062  -5.689  1.00 37.17     0.038 A 
HETATM   12  CAX   D T 600     -13.432  -0.054  -8.397  1.00 47.52     0.056 A 
HETATM   13  CAZ   D T 600     -11.417   6.011  -3.119  1.00 33.41     0.057 A 
HETATM   14  CBC   D T 600     -12.068   5.103  -3.936  1.00 37.64     0.165 A 
HETATM   15  NBE   D T 600     -11.022   4.356  -4.514  1.00 36.80    -0.211 N 
ENDROOT
BRANCH  13  16
HETATM   16  CAY   D T 600     -12.017   6.996  -2.326  1.00 35.53     0.007 A 
HETATM   17  CAD   D T 600     -11.712   8.347  -2.572  1.00 33.79     0.021 A 
HETATM   18  CAC   D T 600     -12.298   9.333  -1.789  1.00 29.73     0.099 A 
HETATM   19  NAR   D T 600     -13.131   9.012  -0.813  1.00 26.72    -0.244 NA
HETATM   20  CBA   D T 600     -13.443   7.741  -0.552  1.00 26.75     0.081 A 
HETATM   21  CAI   D T 600     -14.331   7.459   0.476  1.00 28.72     0.019 A 
HETATM   22  CBB   D T 600     -12.906   6.701  -1.292  1.00 30.35     0.018 A 
HETATM   23  CAA   D T 600     -14.693   6.157   0.774  1.00 24.81     0.002 A 
HETATM   24  CAB   D T 600     -14.155   5.131   0.035  1.00 24.46     0.000 A 
HETATM   25  CAJ   D T 600     -13.267   5.393  -0.998  1.00 27.06     0.002 A 
ENDBRANCH  13  16
BRANCH  12  26
HETATM   26  NBD   D T 600     -13.632  -1.124  -9.286  1.00 50.24    -0.344 N 
HETATM   27  CAP   D T 600     -12.790  -1.214 -10.524  1.00 48.20     0.140 C 
HETATM   28  CAN   D T 600     -11.993  -2.514 -10.506  1.00 44.02     0.314 C 
HETATM   29  NAU   D T 600     -12.896  -3.627 -10.166  1.00 42.58     0.343 N 
HETATM   30  CAO   D T 600     -13.509  -3.425  -8.837  1.00 41.76     0.314 C 
HETATM   31  CAQ   D T 600     -14.484  -2.267  -8.919  1.00 40.50     0.140 C 
ENDBRANCH  12  26
TORSDOF 2
ENDMDL
