MODEL 1
REMARK VINA RESULT:    -8.674      0.000      0.000
REMARK INTER + INTRA:         -10.155
REMARK INTER:                  -9.688
REMARK INTRA:                  -0.467
REMARK UNBOUND:                -0.467
REMARK  2 active torsions:
REMARK  status: ('A' for Active; 'I' for Inactive)
REMARK    1  A    between atoms: CAX_24  and  NBD_30 
REMARK    2  A    between atoms: CAY_25  and  CAZ_26 
ROOT
HETATM    1  CAE   D T 600      55.927 -47.221 -29.388  1.00 46.04     0.002 A 
HETATM    2  CAF   D T 600      57.982 -47.231 -30.660  1.00 45.69     0.002 A 
HETATM    3  CAG   D T 600      55.342 -46.419 -30.357  1.00 45.75     0.017 A 
HETATM    4  CAH   D T 600      57.384 -46.440 -31.634  1.00 45.50     0.017 A 
HETATM    5  CAK   D T 600      57.515 -48.439 -27.215  1.00 35.53     0.102 A 
HETATM    6  CAL   D T 600      60.832 -51.437 -27.055  1.00 33.49     0.124 A 
HETATM    7  CAM   D T 600      58.927 -49.249 -28.996  1.00 37.51     0.104 A 
HETATM    8  NAS   D T 600      58.162 -49.233 -26.347  1.00 41.55    -0.225 NA
HETATM    9  NAT   D T 600      60.529 -50.866 -28.227  1.00 34.74    -0.162 NA
HETATM   10  CAV   D T 600      57.262 -47.623 -29.523  1.00 43.90     0.003 A 
HETATM   11  CAW   D T 600      57.892 -48.422 -28.560  1.00 37.17     0.038 A 
HETATM   12  CAX   D T 600      56.069 -46.026 -31.480  1.00 47.52     0.056 A 
HETATM   13  CAZ   D T 600      60.025 -50.955 -26.117  1.00 33.41     0.057 A 
HETATM   14  CBC   D T 600      59.193 -50.037 -26.737  1.00 37.64     0.165 A 
HETATM   15  NBE   D T 600      59.600 -50.069 -28.086  1.00 36.80    -0.211 N 
ENDROOT
BRANCH  13  16
HETATM   16  CAY   D T 600      60.032 -51.286 -24.757  1.00 35.53     0.007 A 
HETATM   17  CAD   D T 600      61.098 -50.844 -23.954  1.00 33.79     0.021 A 
HETATM   18  CAC   D T 600      61.116 -51.169 -22.603  1.00 29.73     0.099 A 
HETATM   19  NAR   D T 600      60.147 -51.896 -22.072  1.00 26.72    -0.244 NA
HETATM   20  CBA   D T 600      59.120 -52.333 -22.804  1.00 26.75     0.081 A 
HETATM   21  CAI   D T 600      58.125 -53.082 -22.195  1.00 28.72     0.019 A 
HETATM   22  CBB   D T 600      59.026 -52.044 -24.156  1.00 30.35     0.018 A 
HETATM   23  CAA   D T 600      57.035 -53.545 -22.912  1.00 24.81     0.002 A 
HETATM   24  CAB   D T 600      56.949 -53.254 -24.253  1.00 24.46     0.000 A 
HETATM   25  CAJ   D T 600      57.933 -52.504 -24.879  1.00 27.06     0.002 A 
ENDBRANCH  13  16
BRANCH  12  26
HETATM   26  NBD   D T 600      55.469 -45.263 -32.496  1.00 50.24    -0.344 N 
HETATM   27  CAP   D T 600      56.333 -44.651 -33.558  1.00 48.20     0.140 C 
HETATM   28  CAN   D T 600      55.928 -45.196 -34.924  1.00 44.02     0.314 C 
HETATM   29  NAU   D T 600      54.463 -45.121 -35.055  1.00 42.58     0.343 N 
HETATM   30  CAO   D T 600      53.795 -45.918 -34.006  1.00 41.76     0.314 C 
HETATM   31  CAQ   D T 600      54.008 -45.239 -32.667  1.00 40.50     0.140 C 
ENDBRANCH  12  26
TORSDOF 2
ENDMDL
MODEL 2
REMARK VINA RESULT:    -8.232      3.295      4.938
REMARK INTER + INTRA:          -9.661
REMARK INTER:                  -9.148
REMARK INTRA:                  -0.512
REMARK UNBOUND:                -0.467
REMARK  2 active torsions:
REMARK  status: ('A' for Active; 'I' for Inactive)
REMARK    1  A    between atoms: CAX_24  and  NBD_30 
REMARK    2  A    between atoms: CAY_25  and  CAZ_26 
ROOT
HETATM    1  CAE   D T 600      54.329 -47.304 -30.982  1.00 46.04     0.002 A 
HETATM    2  CAF   D T 600      54.356 -46.300 -28.783  1.00 45.69     0.002 A 
HETATM    3  CAG   D T 600      53.047 -46.813 -31.181  1.00 45.75     0.017 A 
HETATM    4  CAH   D T 600      53.077 -45.799 -28.996  1.00 45.50     0.017 A 
HETATM    5  CAK   D T 600      56.794 -48.700 -30.142  1.00 35.53     0.102 A 
HETATM    6  CAL   D T 600      60.353 -47.573 -27.676  1.00 33.49     0.124 A 
HETATM    7  CAM   D T 600      57.083 -46.830 -28.645  1.00 37.51     0.104 A 
HETATM    8  NAS   D T 600      58.041 -49.109 -29.863  1.00 41.55    -0.225 NA
HETATM    9  NAT   D T 600      59.256 -46.808 -27.621  1.00 34.74    -0.162 NA
HETATM   10  CAV   D T 600      54.992 -47.065 -29.771  1.00 43.90     0.003 A 
HETATM   11  CAW   D T 600      56.282 -47.554 -29.528  1.00 37.17     0.038 A 
HETATM   12  CAX   D T 600      52.419 -46.062 -30.188  1.00 47.52     0.056 A 
HETATM   13  CAZ   D T 600      60.136 -48.580 -28.513  1.00 33.41     0.057 A 
HETATM   14  CBC   D T 600      58.842 -48.437 -28.986  1.00 37.64     0.165 A 
HETATM   15  NBE   D T 600      58.379 -47.265 -28.355  1.00 36.80    -0.211 N 
ENDROOT
BRANCH  13  16
HETATM   16  CAY   D T 600      61.030 -49.609 -28.834  1.00 35.53     0.007 A 
HETATM   17  CAD   D T 600      61.822 -49.486 -29.989  1.00 33.79     0.021 A 
HETATM   18  CAC   D T 600      62.710 -50.503 -30.318  1.00 29.73     0.099 A 
HETATM   19  NAR   D T 600      62.809 -51.583 -29.562  1.00 26.72    -0.244 NA
HETATM   20  CBA   D T 600      62.072 -51.733 -28.459  1.00 26.75     0.081 A 
HETATM   21  CAI   D T 600      62.223 -52.880 -27.696  1.00 28.72     0.019 A 
HETATM   22  CBB   D T 600      61.169 -50.761 -28.059  1.00 30.35     0.018 A 
HETATM   23  CAA   D T 600      61.489 -53.073 -26.537  1.00 24.81     0.002 A 
HETATM   24  CAB   D T 600      60.596 -52.104 -26.148  1.00 24.46     0.000 A 
HETATM   25  CAJ   D T 600      60.434 -50.948 -26.897  1.00 27.06     0.002 A 
ENDBRANCH  13  16
BRANCH  12  26
HETATM   26  NBD   D T 600      51.144 -45.510 -30.401  1.00 50.24    -0.344 N 
HETATM   27  CAP   D T 600      50.350 -45.027 -29.224  1.00 48.20     0.140 C 
HETATM   28  CAN   D T 600      50.068 -43.536 -29.375  1.00 44.02     0.314 C 
HETATM   29  NAU   D T 600      49.568 -43.277 -30.736  1.00 42.58     0.343 N 
HETATM   30  CAO   D T 600      50.562 -43.680 -31.752  1.00 41.76     0.314 C 
HETATM   31  CAQ   D T 600      50.670 -45.193 -31.757  1.00 40.50     0.140 C 
ENDBRANCH  12  26
TORSDOF 2
ENDMDL
MODEL 3
REMARK VINA RESULT:    -8.173      2.799     10.717
REMARK INTER + INTRA:          -9.596
REMARK INTER:                  -9.039
REMARK INTRA:                  -0.557
REMARK UNBOUND:                -0.467
REMARK  2 active torsions:
REMARK  status: ('A' for Active; 'I' for Inactive)
REMARK    1  A    between atoms: CAX_24  and  NBD_30 
REMARK    2  A    between atoms: CAY_25  and  CAZ_26 
ROOT
HETATM    1  CAE   D T 600      59.575 -48.551 -30.293  1.00 46.04     0.002 A 
HETATM    2  CAF   D T 600      58.117 -49.103 -28.445  1.00 45.69     0.002 A 
HETATM    3  CAG   D T 600      60.593 -49.280 -29.695  1.00 45.75     0.017 A 
HETATM    4  CAH   D T 600      59.138 -49.843 -27.860  1.00 45.50     0.017 A 
HETATM    5  CAK   D T 600      57.480 -46.627 -31.093  1.00 35.53     0.102 A 
HETATM    6  CAL   D T 600      53.006 -46.653 -31.032  1.00 33.49     0.124 A 
HETATM    7  CAM   D T 600      55.979 -48.105 -29.917  1.00 37.51     0.104 A 
HETATM    8  NAS   D T 600      56.426 -45.968 -31.600  1.00 41.55    -0.225 NA
HETATM    9  NAT   D T 600      53.671 -47.567 -30.316  1.00 34.74    -0.162 NA
HETATM   10  CAV   D T 600      58.327 -48.442 -29.664  1.00 43.90     0.003 A 
HETATM   11  CAW   D T 600      57.278 -47.706 -30.228  1.00 37.17     0.038 A 
HETATM   12  CAX   D T 600      60.377 -49.925 -28.478  1.00 47.52     0.056 A 
HETATM   13  CAZ   D T 600      53.881 -45.873 -31.656  1.00 33.41     0.057 A 
HETATM   14  CBC   D T 600      55.143 -46.319 -31.297  1.00 37.64     0.165 A 
HETATM   15  NBE   D T 600      54.886 -47.411 -30.445  1.00 36.80    -0.211 N 
ENDROOT
BRANCH  13  16
HETATM   16  CAY   D T 600      53.588 -44.788 -32.490  1.00 35.53     0.007 A 
HETATM   17  CAD   D T 600      53.375 -43.524 -31.913  1.00 33.79     0.021 A 
HETATM   18  CAC   D T 600      53.080 -42.440 -32.731  1.00 29.73     0.099 A 
HETATM   19  NAR   D T 600      52.991 -42.591 -34.042  1.00 26.72    -0.244 NA
HETATM   20  CBA   D T 600      53.187 -43.776 -34.624  1.00 26.75     0.081 A 
HETATM   21  CAI   D T 600      53.092 -43.876 -36.004  1.00 28.72     0.019 A 
HETATM   22  CBB   D T 600      53.492 -44.902 -33.877  1.00 30.35     0.018 A 
HETATM   23  CAA   D T 600      53.301 -45.083 -36.651  1.00 24.81     0.002 A 
HETATM   24  CAB   D T 600      53.603 -46.195 -35.903  1.00 24.46     0.000 A 
HETATM   25  CAJ   D T 600      53.705 -46.113 -34.522  1.00 27.06     0.002 A 
ENDBRANCH  13  16
BRANCH  12  26
HETATM   26  NBD   D T 600      61.382 -50.713 -27.893  1.00 50.24    -0.344 N 
HETATM   27  CAP   D T 600      61.191 -51.224 -26.496  1.00 48.20     0.140 C 
HETATM   28  CAN   D T 600      61.206 -52.749 -26.502  1.00 44.02     0.314 C 
HETATM   29  NAU   D T 600      62.363 -53.214 -27.287  1.00 42.58     0.343 N 
HETATM   30  CAO   D T 600      62.286 -52.731 -28.682  1.00 41.76     0.314 C 
HETATM   31  CAQ   D T 600      62.504 -51.231 -28.692  1.00 40.50     0.140 C 
ENDBRANCH  12  26
TORSDOF 2
ENDMDL
MODEL 4
REMARK VINA RESULT:    -8.153      2.327      4.110
REMARK INTER + INTRA:          -9.573
REMARK INTER:                  -9.194
REMARK INTRA:                  -0.379
REMARK UNBOUND:                -0.467
REMARK  2 active torsions:
REMARK  status: ('A' for Active; 'I' for Inactive)
REMARK    1  A    between atoms: CAX_24  and  NBD_30 
REMARK    2  A    between atoms: CAY_25  and  CAZ_26 
ROOT
HETATM    1  CAE   D T 600      54.744 -46.447 -31.953  1.00 46.04     0.002 A 
HETATM    2  CAF   D T 600      53.365 -46.236 -29.979  1.00 45.69     0.002 A 
HETATM    3  CAG   D T 600      53.729 -45.882 -32.711  1.00 45.75     0.017 A 
HETATM    4  CAH   D T 600      52.359 -45.656 -30.742  1.00 45.50     0.017 A 
HETATM    5  CAK   D T 600      56.517 -48.114 -30.277  1.00 35.53     0.102 A 
HETATM    6  CAL   D T 600      57.836 -47.975 -26.004  1.00 33.49     0.124 A 
HETATM    7  CAM   D T 600      55.593 -46.859 -28.434  1.00 37.51     0.104 A 
HETATM    8  NAS   D T 600      57.445 -48.628 -29.455  1.00 41.55    -0.225 NA
HETATM    9  NAT   D T 600      56.783 -47.242 -26.382  1.00 34.74    -0.162 NA
HETATM   10  CAV   D T 600      54.565 -46.645 -30.577  1.00 43.90     0.003 A 
HETATM   11  CAW   D T 600      55.561 -47.224 -29.780  1.00 37.17     0.038 A 
HETATM   12  CAX   D T 600      52.535 -45.487 -32.108  1.00 47.52     0.056 A 
HETATM   13  CAZ   D T 600      58.301 -48.640 -27.056  1.00 33.41     0.057 A 
HETATM   14  CBC   D T 600      57.490 -48.310 -28.129  1.00 37.64     0.165 A 
HETATM   15  NBE   D T 600      56.559 -47.403 -27.583  1.00 36.80    -0.211 N 
ENDROOT
BRANCH  13  16
HETATM   16  CAY   D T 600      59.383 -49.527 -27.073  1.00 35.53     0.007 A 
HETATM   17  CAD   D T 600      60.573 -49.137 -27.712  1.00 33.79     0.021 A 
HETATM   18  CAC   D T 600      61.653 -50.012 -27.738  1.00 29.73     0.099 A 
HETATM   19  NAR   D T 600      61.566 -51.206 -27.176  1.00 26.72    -0.244 NA
HETATM   20  CBA   D T 600      60.453 -51.609 -26.561  1.00 26.75     0.081 A 
HETATM   21  CAI   D T 600      60.419 -52.867 -25.979  1.00 28.72     0.019 A 
HETATM   22  CBB   D T 600      59.336 -50.793 -26.486  1.00 30.35     0.018 A 
HETATM   23  CAA   D T 600      59.289 -53.322 -25.319  1.00 24.81     0.002 A 
HETATM   24  CAB   D T 600      58.186 -52.505 -25.249  1.00 24.46     0.000 A 
HETATM   25  CAJ   D T 600      58.202 -51.243 -25.824  1.00 27.06     0.002 A 
ENDBRANCH  13  16
BRANCH  12  26
HETATM   26  NBD   D T 600      51.524 -44.860 -32.855  1.00 50.24    -0.344 N 
HETATM   27  CAP   D T 600      50.126 -44.827 -32.312  1.00 48.20     0.140 C 
HETATM   28  CAN   D T 600      49.684 -43.380 -32.124  1.00 44.02     0.314 C 
HETATM   29  NAU   D T 600      50.001 -42.619 -33.345  1.00 42.58     0.343 N 
HETATM   30  CAO   D T 600      51.451 -42.643 -33.624  1.00 41.76     0.314 C 
HETATM   31  CAQ   D T 600      51.846 -44.047 -34.038  1.00 40.50     0.140 C 
ENDBRANCH  12  26
TORSDOF 2
ENDMDL
MODEL 5
REMARK VINA RESULT:    -7.921      1.621     10.781
REMARK INTER + INTRA:          -9.313
REMARK INTER:                  -8.871
REMARK INTRA:                  -0.442
REMARK UNBOUND:                -0.467
REMARK  2 active torsions:
REMARK  status: ('A' for Active; 'I' for Inactive)
REMARK    1  A    between atoms: CAX_24  and  NBD_30 
REMARK    2  A    between atoms: CAY_25  and  CAZ_26 
ROOT
HETATM    1  CAE   D T 600      58.981 -49.718 -29.242  1.00 46.04     0.002 A 
HETATM    2  CAF   D T 600      58.016 -48.441 -27.430  1.00 45.69     0.002 A 
HETATM    3  CAG   D T 600      59.505 -50.612 -28.319  1.00 45.75     0.017 A 
HETATM    4  CAH   D T 600      58.532 -49.349 -26.513  1.00 45.50     0.017 A 
HETATM    5  CAK   D T 600      58.260 -47.426 -30.960  1.00 35.53     0.102 A 
HETATM    6  CAL   D T 600      54.797 -44.598 -31.130  1.00 33.49     0.124 A 
HETATM    7  CAM   D T 600      56.552 -47.004 -29.309  1.00 37.51     0.104 A 
HETATM    8  NAS   D T 600      57.692 -46.520 -31.772  1.00 41.55    -0.225 NA
HETATM    9  NAT   D T 600      54.972 -45.346 -30.034  1.00 34.74    -0.162 NA
HETATM   10  CAV   D T 600      58.242 -48.611 -28.804  1.00 43.90     0.003 A 
HETATM   11  CAW   D T 600      57.707 -47.680 -29.702  1.00 37.17     0.038 A 
HETATM   12  CAX   D T 600      59.283 -50.428 -26.955  1.00 47.52     0.056 A 
HETATM   13  CAZ   D T 600      55.762 -44.873 -32.000  1.00 33.41     0.057 A 
HETATM   14  CBC   D T 600      56.575 -45.826 -31.408  1.00 37.64     0.165 A 
HETATM   15  NBE   D T 600      55.969 -46.059 -30.157  1.00 36.80    -0.211 N 
ENDROOT
BRANCH  13  16
HETATM   16  CAY   D T 600      55.943 -44.292 -33.260  1.00 35.53     0.007 A 
HETATM   17  CAD   D T 600      56.950 -43.324 -33.424  1.00 33.79     0.021 A 
HETATM   18  CAC   D T 600      57.136 -42.737 -34.670  1.00 29.73     0.099 A 
HETATM   19  NAR   D T 600      56.372 -43.075 -35.695  1.00 26.72    -0.244 NA
HETATM   20  CBA   D T 600      55.407 -43.989 -35.575  1.00 26.75     0.081 A 
HETATM   21  CAI   D T 600      54.642 -44.315 -36.684  1.00 28.72     0.019 A 
HETATM   22  CBB   D T 600      55.164 -44.625 -34.368  1.00 30.35     0.018 A 
HETATM   23  CAA   D T 600      53.639 -45.267 -36.610  1.00 24.81     0.002 A 
HETATM   24  CAB   D T 600      53.405 -45.893 -35.409  1.00 24.46     0.000 A 
HETATM   25  CAJ   D T 600      54.161 -45.582 -34.289  1.00 27.06     0.002 A 
ENDBRANCH  13  16
BRANCH  12  26
HETATM   26  NBD   D T 600      59.760 -51.359 -26.016  1.00 50.24    -0.344 N 
HETATM   27  CAP   D T 600      60.323 -50.865 -24.717  1.00 48.20     0.140 C 
HETATM   28  CAN   D T 600      59.502 -51.421 -23.558  1.00 44.02     0.314 C 
HETATM   29  NAU   D T 600      59.311 -52.868 -23.757  1.00 42.58     0.343 N 
HETATM   30  CAO   D T 600      58.598 -53.141 -25.022  1.00 41.76     0.314 C 
HETATM   31  CAQ   D T 600      59.513 -52.800 -26.182  1.00 40.50     0.140 C 
ENDBRANCH  12  26
TORSDOF 2
ENDMDL
MODEL 6
REMARK VINA RESULT:    -7.799      2.481      4.513
REMARK INTER + INTRA:          -9.178
REMARK INTER:                  -8.632
REMARK INTRA:                  -0.546
REMARK UNBOUND:                -0.467
REMARK  2 active torsions:
REMARK  status: ('A' for Active; 'I' for Inactive)
REMARK    1  A    between atoms: CAX_24  and  NBD_30 
REMARK    2  A    between atoms: CAY_25  and  CAZ_26 
ROOT
HETATM    1  CAE   D T 600      54.500 -46.760 -32.354  1.00 46.04     0.002 A 
HETATM    2  CAF   D T 600      54.303 -44.652 -31.188  1.00 45.69     0.002 A 
HETATM    3  CAG   D T 600      53.659 -46.279 -33.347  1.00 45.75     0.017 A 
HETATM    4  CAH   D T 600      53.473 -44.172 -32.194  1.00 45.50     0.017 A 
HETATM    5  CAK   D T 600      55.794 -47.758 -29.892  1.00 35.53     0.102 A 
HETATM    6  CAL   D T 600      58.612 -46.000 -26.894  1.00 33.49     0.124 A 
HETATM    7  CAM   D T 600      56.389 -45.448 -29.528  1.00 37.51     0.104 A 
HETATM    8  NAS   D T 600      56.616 -48.121 -28.894  1.00 41.55    -0.225 NA
HETATM    9  NAT   D T 600      57.971 -45.184 -27.740  1.00 34.74    -0.162 NA
HETATM   10  CAV   D T 600      54.819 -45.954 -31.253  1.00 43.90     0.003 A 
HETATM   11  CAW   D T 600      55.653 -46.408 -30.224  1.00 37.17     0.038 A 
HETATM   12  CAX   D T 600      53.144 -44.986 -33.268  1.00 47.52     0.056 A 
HETATM   13  CAZ   D T 600      58.247 -47.252 -27.142  1.00 33.41     0.057 A 
HETATM   14  CBC   D T 600      57.331 -47.205 -28.180  1.00 37.64     0.165 A 
HETATM   15  NBE   D T 600      57.238 -45.833 -28.488  1.00 36.80    -0.211 N 
ENDROOT
BRANCH  13  16
HETATM   16  CAY   D T 600      58.680 -48.399 -26.465  1.00 35.53     0.007 A 
HETATM   17  CAD   D T 600      57.985 -48.814 -25.316  1.00 33.79     0.021 A 
HETATM   18  CAC   D T 600      58.408 -49.948 -24.634  1.00 29.73     0.099 A 
HETATM   19  NAR   D T 600      59.460 -50.632 -25.053  1.00 26.72    -0.244 NA
HETATM   20  CBA   D T 600      60.143 -50.267 -26.139  1.00 26.75     0.081 A 
HETATM   21  CAI   D T 600      61.231 -51.026 -26.541  1.00 28.72     0.019 A 
HETATM   22  CBB   D T 600      59.780 -49.152 -26.877  1.00 30.35     0.018 A 
HETATM   23  CAA   D T 600      61.962 -50.693 -27.669  1.00 24.81     0.002 A 
HETATM   24  CAB   D T 600      61.595 -49.585 -28.395  1.00 24.46     0.000 A 
HETATM   25  CAJ   D T 600      60.507 -48.815 -28.010  1.00 27.06     0.002 A 
ENDBRANCH  13  16
BRANCH  12  26
HETATM   26  NBD   D T 600      52.339 -44.468 -34.297  1.00 50.24    -0.344 N 
HETATM   27  CAP   D T 600      51.380 -43.357 -33.986  1.00 48.20     0.140 C 
HETATM   28  CAN   D T 600      51.729 -42.130 -34.822  1.00 44.02     0.314 C 
HETATM   29  NAU   D T 600      51.924 -42.544 -36.222  1.00 42.58     0.343 N 
HETATM   30  CAO   D T 600      53.020 -43.528 -36.338  1.00 41.76     0.314 C 
HETATM   31  CAQ   D T 600      52.575 -44.831 -35.703  1.00 40.50     0.140 C 
ENDBRANCH  12  26
TORSDOF 2
ENDMDL
MODEL 7
REMARK VINA RESULT:    -7.723      1.946     10.100
REMARK INTER + INTRA:          -9.093
REMARK INTER:                  -8.588
REMARK INTRA:                  -0.505
REMARK UNBOUND:                -0.467
REMARK  2 active torsions:
REMARK  status: ('A' for Active; 'I' for Inactive)
REMARK    1  A    between atoms: CAX_24  and  NBD_30 
REMARK    2  A    between atoms: CAY_25  and  CAZ_26 
ROOT
HETATM    1  CAE   D T 600      58.149 -49.260 -24.928  1.00 46.04     0.002 A 
HETATM    2  CAF   D T 600      58.296 -51.105 -26.483  1.00 45.69     0.002 A 
HETATM    3  CAG   D T 600      58.273 -50.152 -23.872  1.00 45.75     0.017 A 
HETATM    4  CAH   D T 600      58.435 -51.991 -25.420  1.00 45.50     0.017 A 
HETATM    5  CAK   D T 600      57.349 -47.634 -27.262  1.00 35.53     0.102 A 
HETATM    6  CAL   D T 600      58.565 -47.512 -31.566  1.00 33.49     0.124 A 
HETATM    7  CAM   D T 600      58.587 -49.260 -28.544  1.00 37.51     0.104 A 
HETATM    8  NAS   D T 600      57.259 -46.852 -28.349  1.00 41.55    -0.225 NA
HETATM    9  NAT   D T 600      58.902 -48.576 -30.826  1.00 34.74    -0.162 NA
HETATM   10  CAV   D T 600      58.143 -49.731 -26.247  1.00 43.90     0.003 A 
HETATM   11  CAW   D T 600      58.007 -48.865 -27.339  1.00 37.17     0.038 A 
HETATM   12  CAX   D T 600      58.415 -51.517 -24.117  1.00 47.52     0.056 A 
HETATM   13  CAZ   D T 600      57.890 -46.655 -30.809  1.00 33.41     0.057 A 
HETATM   14  CBC   D T 600      57.796 -47.221 -29.548  1.00 37.64     0.165 A 
HETATM   15  NBE   D T 600      58.485 -48.444 -29.673  1.00 36.80    -0.211 N 
ENDROOT
BRANCH  13  16
HETATM   16  CAY   D T 600      57.349 -45.429 -31.213  1.00 35.53     0.007 A 
HETATM   17  CAD   D T 600      58.096 -44.255 -31.008  1.00 33.79     0.021 A 
HETATM   18  CAC   D T 600      57.568 -43.032 -31.402  1.00 29.73     0.099 A 
HETATM   19  NAR   D T 600      56.370 -42.964 -31.959  1.00 26.72    -0.244 NA
HETATM   20  CBA   D T 600      55.634 -44.056 -32.168  1.00 26.75     0.081 A 
HETATM   21  CAI   D T 600      54.388 -43.930 -32.765  1.00 28.72     0.019 A 
HETATM   22  CBB   D T 600      56.093 -45.314 -31.810  1.00 30.35     0.018 A 
HETATM   23  CAA   D T 600      53.596 -45.038 -33.013  1.00 24.81     0.002 A 
HETATM   24  CAB   D T 600      54.059 -46.280 -32.654  1.00 24.46     0.000 A 
HETATM   25  CAJ   D T 600      55.303 -46.427 -32.059  1.00 27.06     0.002 A 
ENDBRANCH  13  16
BRANCH  12  26
HETATM   26  NBD   D T 600      58.601 -52.423 -23.058  1.00 50.24    -0.344 N 
HETATM   27  CAP   D T 600      59.011 -51.901 -21.713  1.00 48.20     0.140 C 
HETATM   28  CAN   D T 600      57.946 -52.254 -20.680  1.00 44.02     0.314 C 
HETATM   29  NAU   D T 600      57.591 -53.676 -20.824  1.00 42.58     0.343 N 
HETATM   30  CAO   D T 600      57.059 -53.957 -22.174  1.00 41.76     0.314 C 
HETATM   31  CAQ   D T 600      58.187 -53.829 -23.179  1.00 40.50     0.140 C 
ENDBRANCH  12  26
TORSDOF 2
ENDMDL
MODEL 8
REMARK VINA RESULT:    -7.679      2.226     10.750
REMARK INTER + INTRA:          -9.043
REMARK INTER:                  -9.206
REMARK INTRA:                   0.163
REMARK UNBOUND:                -0.467
REMARK  2 active torsions:
REMARK  status: ('A' for Active; 'I' for Inactive)
REMARK    1  A    between atoms: CAX_24  and  NBD_30 
REMARK    2  A    between atoms: CAY_25  and  CAZ_26 
ROOT
HETATM    1  CAE   D T 600      57.760 -48.637 -27.916  1.00 46.04     0.002 A 
HETATM    2  CAF   D T 600      59.035 -49.149 -29.905  1.00 45.69     0.002 A 
HETATM    3  CAG   D T 600      58.610 -49.446 -27.175  1.00 45.75     0.017 A 
HETATM    4  CAH   D T 600      59.890 -49.946 -29.153  1.00 45.50     0.017 A 
HETATM    5  CAK   D T 600      55.781 -47.436 -29.752  1.00 35.53     0.102 A 
HETATM    6  CAL   D T 600      56.045 -45.063 -33.536  1.00 33.49     0.124 A 
HETATM    7  CAM   D T 600      57.663 -47.124 -31.229  1.00 37.51     0.104 A 
HETATM    8  NAS   D T 600      55.032 -46.659 -30.550  1.00 41.55    -0.225 NA
HETATM    9  NAT   D T 600      57.128 -45.721 -33.105  1.00 34.74    -0.162 NA
HETATM   10  CAV   D T 600      57.956 -48.493 -29.296  1.00 43.90     0.003 A 
HETATM   11  CAW   D T 600      57.114 -47.695 -30.082  1.00 37.17     0.038 A 
HETATM   12  CAX   D T 600      59.674 -50.102 -27.792  1.00 47.52     0.056 A 
HETATM   13  CAZ   D T 600      55.046 -45.271 -32.686  1.00 33.41     0.057 A 
HETATM   14  CBC   D T 600      55.532 -46.104 -31.692  1.00 37.64     0.165 A 
HETATM   15  NBE   D T 600      56.876 -46.320 -32.058  1.00 36.80    -0.211 N 
ENDROOT
BRANCH  13  16
HETATM   16  CAY   D T 600      53.743 -44.770 -32.788  1.00 35.53     0.007 A 
HETATM   17  CAD   D T 600      53.136 -44.214 -31.649  1.00 33.79     0.021 A 
HETATM   18  CAC   D T 600      51.842 -43.717 -31.738  1.00 29.73     0.099 A 
HETATM   19  NAR   D T 600      51.177 -43.772 -32.881  1.00 26.72    -0.244 NA
HETATM   20  CBA   D T 600      51.721 -44.293 -33.981  1.00 26.75     0.081 A 
HETATM   21  CAI   D T 600      50.984 -44.315 -35.156  1.00 28.72     0.019 A 
HETATM   22  CBB   D T 600      53.010 -44.802 -33.975  1.00 30.35     0.018 A 
HETATM   23  CAA   D T 600      51.514 -44.834 -36.325  1.00 24.81     0.002 A 
HETATM   24  CAB   D T 600      52.793 -45.337 -36.310  1.00 24.46     0.000 A 
HETATM   25  CAJ   D T 600      53.546 -45.321 -35.146  1.00 27.06     0.002 A 
ENDBRANCH  13  16
BRANCH  12  26
HETATM   26  NBD   D T 600      60.574 -50.877 -27.041  1.00 50.24    -0.344 N 
HETATM   27  CAP   D T 600      60.095 -51.547 -25.788  1.00 48.20     0.140 C 
HETATM   28  CAN   D T 600      60.256 -53.057 -25.922  1.00 44.02     0.314 C 
HETATM   29  NAU   D T 600      61.609 -53.353 -26.424  1.00 42.58     0.343 N 
HETATM   30  CAO   D T 600      61.831 -52.730 -27.746  1.00 41.76     0.314 C 
HETATM   31  CAQ   D T 600      61.902 -51.225 -27.571  1.00 40.50     0.140 C 
ENDBRANCH  12  26
TORSDOF 2
ENDMDL
MODEL 9
REMARK VINA RESULT:    -7.599      2.094     10.193
REMARK INTER + INTRA:          -8.954
REMARK INTER:                  -8.430
REMARK INTRA:                  -0.523
REMARK UNBOUND:                -0.467
REMARK  2 active torsions:
REMARK  status: ('A' for Active; 'I' for Inactive)
REMARK    1  A    between atoms: CAX_24  and  NBD_30 
REMARK    2  A    between atoms: CAY_25  and  CAZ_26 
ROOT
HETATM    1  CAE   D T 600      57.926 -49.400 -25.167  1.00 46.04     0.002 A 
HETATM    2  CAF   D T 600      58.573 -51.198 -26.648  1.00 45.69     0.002 A 
HETATM    3  CAG   D T 600      58.074 -50.253 -24.082  1.00 45.75     0.017 A 
HETATM    4  CAH   D T 600      58.733 -52.042 -25.555  1.00 45.50     0.017 A 
HETATM    5  CAK   D T 600      57.147 -47.946 -27.618  1.00 35.53     0.102 A 
HETATM    6  CAL   D T 600      58.833 -47.632 -31.750  1.00 33.49     0.124 A 
HETATM    7  CAM   D T 600      58.790 -49.338 -28.706  1.00 37.51     0.104 A 
HETATM    8  NAS   D T 600      57.056 -47.195 -28.727  1.00 41.55    -0.225 NA
HETATM    9  NAT   D T 600      59.254 -48.618 -30.950  1.00 34.74    -0.162 NA
HETATM   10  CAV   D T 600      58.160 -49.870 -26.466  1.00 43.90     0.003 A 
HETATM   11  CAW   D T 600      58.010 -49.044 -27.587  1.00 37.17     0.038 A 
HETATM   12  CAX   D T 600      58.475 -51.574 -24.275  1.00 47.52     0.056 A 
HETATM   13  CAZ   D T 600      57.935 -46.901 -31.100  1.00 33.41     0.057 A 
HETATM   14  CBC   D T 600      57.788 -47.470 -29.845  1.00 37.64     0.165 A 
HETATM   15  NBE   D T 600      58.686 -48.556 -29.858  1.00 36.80    -0.211 N 
ENDROOT
BRANCH  13  16
HETATM   16  CAY   D T 600      57.245 -45.788 -31.595  1.00 35.53     0.007 A 
HETATM   17  CAD   D T 600      56.144 -45.993 -32.444  1.00 33.79     0.021 A 
HETATM   18  CAC   D T 600      55.454 -44.895 -32.944  1.00 29.73     0.099 A 
HETATM   19  NAR   D T 600      55.830 -43.665 -32.634  1.00 26.72    -0.244 NA
HETATM   20  CBA   D T 600      56.870 -43.434 -31.832  1.00 26.75     0.081 A 
HETATM   21  CAI   D T 600      57.214 -42.125 -31.530  1.00 28.72     0.019 A 
HETATM   22  CBB   D T 600      57.604 -44.475 -31.287  1.00 30.35     0.018 A 
HETATM   23  CAA   D T 600      58.278 -41.838 -30.691  1.00 24.81     0.002 A 
HETATM   24  CAB   D T 600      59.001 -42.877 -30.155  1.00 24.46     0.000 A 
HETATM   25  CAJ   D T 600      58.670 -44.193 -30.443  1.00 27.06     0.002 A 
ENDBRANCH  13  16
BRANCH  12  26
HETATM   26  NBD   D T 600      58.684 -52.430 -23.180  1.00 50.24    -0.344 N 
HETATM   27  CAP   D T 600      59.189 -51.856 -21.889  1.00 48.20     0.140 C 
HETATM   28  CAN   D T 600      58.170 -52.109 -20.783  1.00 44.02     0.314 C 
HETATM   29  NAU   D T 600      57.753 -53.521 -20.830  1.00 42.58     0.343 N 
HETATM   30  CAO   D T 600      57.136 -53.850 -22.132  1.00 41.76     0.314 C 
HETATM   31  CAQ   D T 600      58.210 -53.822 -23.202  1.00 40.50     0.140 C 
ENDBRANCH  12  26
TORSDOF 2
ENDMDL
