MODEL 1
REMARK VINA RESULT:    -7.876      0.000      0.000
REMARK INTER + INTRA:          -9.201
REMARK INTER:                  -8.797
REMARK INTRA:                  -0.405
REMARK UNBOUND:                -0.405
REMARK  2 active torsions:
REMARK  status: ('A' for Active; 'I' for Inactive)
REMARK    1  A    between atoms: CAX_24  and  NBD_30 
REMARK    2  A    between atoms: CAY_25  and  CAZ_26 
ROOT
HETATM    1  CAE   D T 600      61.105 -47.557 -35.359  1.00 46.04     0.002 A 
HETATM    2  CAF   D T 600      63.227 -48.668 -35.028  1.00 45.69     0.002 A 
HETATM    3  CAG   D T 600      61.438 -47.338 -36.688  1.00 45.75     0.017 A 
HETATM    4  CAH   D T 600      63.546 -48.458 -36.365  1.00 45.50     0.017 A 
HETATM    5  CAK   D T 600      60.848 -47.632 -32.416  1.00 35.53     0.102 A 
HETATM    6  CAL   D T 600      61.935 -50.598 -29.247  1.00 33.49     0.124 A 
HETATM    7  CAM   D T 600      62.306 -49.550 -32.556  1.00 37.51     0.104 A 
HETATM    8  NAS   D T 600      60.611 -47.913 -31.126  1.00 41.55    -0.225 NA
HETATM    9  NAT   D T 600      62.460 -50.733 -30.471  1.00 34.74    -0.162 NA
HETATM   10  CAV   D T 600      62.006 -48.212 -34.509  1.00 43.90     0.003 A 
HETATM   11  CAW   D T 600      61.713 -48.441 -33.159  1.00 37.17     0.038 A 
HETATM   12  CAX   D T 600      62.658 -47.787 -37.192  1.00 47.52     0.056 A 
HETATM   13  CAZ   D T 600      61.144 -49.531 -29.232  1.00 33.41     0.057 A 
HETATM   14  CBC   D T 600      61.193 -48.977 -30.500  1.00 37.64     0.165 A 
HETATM   15  NBE   D T 600      62.058 -49.833 -31.210  1.00 36.80    -0.211 N 
ENDROOT
BRANCH  13  16
HETATM   16  CAY   D T 600      60.422 -49.041 -28.137  1.00 35.53     0.007 A 
HETATM   17  CAD   D T 600      61.124 -48.480 -27.056  1.00 33.79     0.021 A 
HETATM   18  CAC   D T 600      60.418 -47.994 -25.962  1.00 29.73     0.099 A 
HETATM   19  NAR   D T 600      59.097 -48.062 -25.929  1.00 26.72    -0.244 NA
HETATM   20  CBA   D T 600      58.399 -48.588 -26.937  1.00 26.75     0.081 A 
HETATM   21  CAI   D T 600      57.015 -48.625 -26.855  1.00 28.72     0.019 A 
HETATM   22  CBB   D T 600      59.029 -49.088 -28.065  1.00 30.35     0.018 A 
HETATM   23  CAA   D T 600      56.250 -49.149 -27.883  1.00 24.81     0.002 A 
HETATM   24  CAB   D T 600      56.883 -49.643 -28.998  1.00 24.46     0.000 A 
HETATM   25  CAJ   D T 600      58.266 -49.612 -29.099  1.00 27.06     0.002 A 
ENDBRANCH  13  16
BRANCH  12  26
HETATM   26  NBD   D T 600      62.980 -47.622 -38.550  1.00 50.24    -0.344 N 
HETATM   27  CAP   D T 600      62.147 -48.314 -39.588  1.00 48.20     0.140 C 
HETATM   28  CAN   D T 600      61.511 -47.277 -40.508  1.00 44.02     0.314 C 
HETATM   29  NAU   D T 600      62.544 -46.317 -40.935  1.00 42.58     0.343 N 
HETATM   30  CAO   D T 600      63.137 -45.624 -39.773  1.00 41.76     0.314 C 
HETATM   31  CAQ   D T 600      63.965 -46.619 -38.982  1.00 40.50     0.140 C 
ENDBRANCH  12  26
TORSDOF 2
ENDMDL
MODEL 2
REMARK VINA RESULT:    -7.861      1.481      1.741
REMARK INTER + INTRA:          -9.185
REMARK INTER:                  -8.691
REMARK INTRA:                  -0.494
REMARK UNBOUND:                -0.405
REMARK  2 active torsions:
REMARK  status: ('A' for Active; 'I' for Inactive)
REMARK    1  A    between atoms: CAX_24  and  NBD_30 
REMARK    2  A    between atoms: CAY_25  and  CAZ_26 
ROOT
HETATM    1  CAE   D T 600      60.630 -45.532 -34.952  1.00 46.04     0.002 A 
HETATM    2  CAF   D T 600      61.941 -47.499 -35.459  1.00 45.69     0.002 A 
HETATM    3  CAG   D T 600      60.931 -45.020 -36.207  1.00 45.75     0.017 A 
HETATM    4  CAH   D T 600      62.225 -46.986 -36.719  1.00 45.50     0.017 A 
HETATM    5  CAK   D T 600      60.583 -46.539 -32.175  1.00 35.53     0.102 A 
HETATM    6  CAL   D T 600      60.284 -50.597 -30.314  1.00 33.49     0.124 A 
HETATM    7  CAM   D T 600      60.886 -48.708 -33.187  1.00 37.51     0.104 A 
HETATM    8  NAS   D T 600      60.331 -47.130 -30.996  1.00 41.55    -0.225 NA
HETATM    9  NAT   D T 600      60.584 -50.499 -31.615  1.00 34.74    -0.162 NA
HETATM   10  CAV   D T 600      61.147 -46.773 -34.559  1.00 43.90     0.003 A 
HETATM   11  CAW   D T 600      60.878 -47.318 -33.297  1.00 37.17     0.038 A 
HETATM   12  CAX   D T 600      61.729 -45.745 -37.090  1.00 47.52     0.056 A 
HETATM   13  CAZ   D T 600      60.128 -49.377 -29.814  1.00 33.41     0.057 A 
HETATM   14  CBC   D T 600      60.353 -48.486 -30.850  1.00 37.64     0.165 A 
HETATM   15  NBE   D T 600      60.628 -49.316 -31.956  1.00 36.80    -0.211 N 
ENDROOT
BRANCH  13  16
HETATM   16  CAY   D T 600      59.824 -49.050 -28.487  1.00 35.53     0.007 A 
HETATM   17  CAD   D T 600      60.878 -48.824 -27.584  1.00 33.79     0.021 A 
HETATM   18  CAC   D T 600      60.588 -48.502 -26.263  1.00 29.73     0.099 A 
HETATM   19  NAR   D T 600      59.335 -48.415 -25.851  1.00 26.72    -0.244 NA
HETATM   20  CBA   D T 600      58.310 -48.622 -26.680  1.00 26.75     0.081 A 
HETATM   21  CAI   D T 600      57.015 -48.507 -26.199  1.00 28.72     0.019 A 
HETATM   22  CBB   D T 600      58.516 -48.940 -28.013  1.00 30.35     0.018 A 
HETATM   23  CAA   D T 600      55.922 -48.700 -27.026  1.00 24.81     0.002 A 
HETATM   24  CAB   D T 600      56.136 -49.015 -28.347  1.00 24.46     0.000 A 
HETATM   25  CAJ   D T 600      57.424 -49.132 -28.847  1.00 27.06     0.002 A 
ENDBRANCH  13  16
BRANCH  12  26
HETATM   26  NBD   D T 600      61.991 -45.263 -38.384  1.00 50.24    -0.344 N 
HETATM   27  CAP   D T 600      61.846 -46.191 -39.554  1.00 48.20     0.140 C 
HETATM   28  CAN   D T 600      60.784 -45.651 -40.506  1.00 44.02     0.314 C 
HETATM   29  NAU   D T 600      61.040 -44.221 -40.749  1.00 42.58     0.343 N 
HETATM   30  CAO   D T 600      60.987 -43.451 -39.489  1.00 41.76     0.314 C 
HETATM   31  CAQ   D T 600      62.183 -43.827 -38.636  1.00 40.50     0.140 C 
ENDBRANCH  12  26
TORSDOF 2
ENDMDL
MODEL 3
REMARK VINA RESULT:    -7.468      2.069     10.481
REMARK INTER + INTRA:          -8.745
REMARK INTER:                  -8.242
REMARK INTRA:                  -0.504
REMARK UNBOUND:                -0.405
REMARK  2 active torsions:
REMARK  status: ('A' for Active; 'I' for Inactive)
REMARK    1  A    between atoms: CAX_24  and  NBD_30 
REMARK    2  A    between atoms: CAY_25  and  CAZ_26 
ROOT
HETATM    1  CAE   D T 600      60.217 -46.880 -31.347  1.00 46.04     0.002 A 
HETATM    2  CAF   D T 600      59.946 -49.172 -32.066  1.00 45.69     0.002 A 
HETATM    3  CAG   D T 600      59.881 -47.256 -30.054  1.00 45.75     0.017 A 
HETATM    4  CAH   D T 600      59.626 -49.543 -30.765  1.00 45.50     0.017 A 
HETATM    5  CAK   D T 600      60.352 -46.217 -34.223  1.00 35.53     0.102 A 
HETATM    6  CAL   D T 600      62.129 -48.199 -37.819  1.00 33.49     0.124 A 
HETATM    7  CAM   D T 600      61.132 -48.485 -34.487  1.00 37.51     0.104 A 
HETATM    8  NAS   D T 600      60.687 -45.960 -35.497  1.00 41.55    -0.225 NA
HETATM    9  NAT   D T 600      61.977 -48.909 -36.695  1.00 34.74    -0.162 NA
HETATM   10  CAV   D T 600      60.237 -47.835 -32.372  1.00 43.90     0.003 A 
HETATM   11  CAW   D T 600      60.558 -47.493 -33.692  1.00 37.17     0.038 A 
HETATM   12  CAX   D T 600      59.584 -48.586 -29.762  1.00 47.52     0.056 A 
HETATM   13  CAZ   D T 600      61.686 -46.964 -37.614  1.00 33.41     0.057 A 
HETATM   14  CBC   D T 600      61.229 -46.914 -36.307  1.00 37.64     0.165 A 
HETATM   15  NBE   D T 600      61.473 -48.211 -35.813  1.00 36.80    -0.211 N 
ENDROOT
BRANCH  13  16
HETATM   16  CAY   D T 600      61.656 -45.920 -38.546  1.00 35.53     0.007 A 
HETATM   17  CAD   D T 600      60.674 -45.935 -39.552  1.00 33.79     0.021 A 
HETATM   18  CAC   D T 600      60.637 -44.905 -40.485  1.00 29.73     0.099 A 
HETATM   19  NAR   D T 600      61.521 -43.922 -40.438  1.00 26.72    -0.244 NA
HETATM   20  CBA   D T 600      62.466 -43.877 -39.499  1.00 26.75     0.081 A 
HETATM   21  CAI   D T 600      63.361 -42.818 -39.489  1.00 28.72     0.019 A 
HETATM   22  CBB   D T 600      62.565 -44.861 -38.529  1.00 30.35     0.018 A 
HETATM   23  CAA   D T 600      64.350 -42.723 -38.525  1.00 24.81     0.002 A 
HETATM   24  CAB   D T 600      64.440 -43.704 -37.566  1.00 24.46     0.000 A 
HETATM   25  CAJ   D T 600      63.553 -44.769 -37.558  1.00 27.06     0.002 A 
ENDBRANCH  13  16
BRANCH  12  26
HETATM   26  NBD   D T 600      59.301 -48.988 -28.445  1.00 50.24    -0.344 N 
HETATM   27  CAP   D T 600      60.179 -48.507 -27.328  1.00 48.20     0.140 C 
HETATM   28  CAN   D T 600      59.349 -47.698 -26.337  1.00 44.02     0.314 C 
HETATM   29  NAU   D T 600      58.121 -48.446 -26.017  1.00 42.58     0.343 N 
HETATM   30  CAO   D T 600      57.314 -48.686 -27.232  1.00 41.76     0.314 C 
HETATM   31  CAQ   D T 600      58.045 -49.679 -28.115  1.00 40.50     0.140 C 
ENDBRANCH  12  26
TORSDOF 2
ENDMDL
MODEL 4
REMARK VINA RESULT:    -7.221      6.037     10.353
REMARK INTER + INTRA:          -8.469
REMARK INTER:                  -7.958
REMARK INTRA:                  -0.512
REMARK UNBOUND:                -0.405
REMARK  2 active torsions:
REMARK  status: ('A' for Active; 'I' for Inactive)
REMARK    1  A    between atoms: CAX_24  and  NBD_30 
REMARK    2  A    between atoms: CAY_25  and  CAZ_26 
ROOT
HETATM    1  CAE   D T 600      60.971 -50.453 -29.490  1.00 46.04     0.002 A 
HETATM    2  CAF   D T 600      62.161 -49.464 -27.633  1.00 45.69     0.002 A 
HETATM    3  CAG   D T 600      59.799 -49.861 -29.042  1.00 45.75     0.017 A 
HETATM    4  CAH   D T 600      60.986 -48.862 -27.199  1.00 45.50     0.017 A 
HETATM    5  CAK   D T 600      63.420 -52.045 -29.937  1.00 35.53     0.102 A 
HETATM    6  CAL   D T 600      67.804 -51.215 -29.611  1.00 33.49     0.124 A 
HETATM    7  CAM   D T 600      64.549 -50.210 -28.850  1.00 37.51     0.104 A 
HETATM    8  NAS   D T 600      64.608 -52.554 -30.301  1.00 41.55    -0.225 NA
HETATM    9  NAT   D T 600      66.939 -50.366 -29.044  1.00 34.74    -0.162 NA
HETATM   10  CAV   D T 600      62.165 -50.273 -28.779  1.00 43.90     0.003 A 
HETATM   11  CAW   D T 600      63.365 -50.864 -29.191  1.00 37.17     0.038 A 
HETATM   12  CAX   D T 600      59.805 -49.066 -27.896  1.00 47.52     0.056 A 
HETATM   13  CAZ   D T 600      67.128 -52.199 -30.191  1.00 33.41     0.057 A 
HETATM   14  CBC   D T 600      65.784 -51.951 -29.963  1.00 37.64     0.165 A 
HETATM   15  NBE   D T 600      65.782 -50.748 -29.228  1.00 36.80    -0.211 N 
ENDROOT
BRANCH  13  16
HETATM   16  CAY   D T 600      67.667 -53.294 -30.877  1.00 35.53     0.007 A 
HETATM   17  CAD   D T 600      67.878 -53.192 -32.263  1.00 33.79     0.021 A 
HETATM   18  CAC   D T 600      68.409 -54.274 -32.954  1.00 29.73     0.099 A 
HETATM   19  NAR   D T 600      68.709 -55.396 -32.321  1.00 26.72    -0.244 NA
HETATM   20  CBA   D T 600      68.521 -55.528 -31.007  1.00 26.75     0.081 A 
HETATM   21  CAI   D T 600      68.862 -56.723 -30.391  1.00 28.72     0.019 A 
HETATM   22  CBB   D T 600      68.002 -54.492 -30.246  1.00 30.35     0.018 A 
HETATM   23  CAA   D T 600      68.697 -56.900 -29.027  1.00 24.81     0.002 A 
HETATM   24  CAB   D T 600      68.182 -55.867 -28.281  1.00 24.46     0.000 A 
HETATM   25  CAJ   D T 600      67.838 -54.664 -28.879  1.00 27.06     0.002 A 
ENDBRANCH  13  16
BRANCH  12  26
HETATM   26  NBD   D T 600      58.636 -48.414 -27.467  1.00 50.24    -0.344 N 
HETATM   27  CAP   D T 600      57.646 -47.939 -28.489  1.00 48.20     0.140 C 
HETATM   28  CAN   D T 600      56.305 -48.628 -28.261  1.00 44.02     0.314 C 
HETATM   29  NAU   D T 600      55.961 -48.547 -26.831  1.00 42.58     0.343 N 
HETATM   30  CAO   D T 600      56.986 -49.211 -25.999  1.00 41.76     0.314 C 
HETATM   31  CAQ   D T 600      58.259 -48.388 -26.045  1.00 40.50     0.140 C 
ENDBRANCH  12  26
TORSDOF 2
ENDMDL
MODEL 5
REMARK VINA RESULT:    -7.129      1.831      2.834
REMARK INTER + INTRA:          -8.367
REMARK INTER:                  -7.880
REMARK INTRA:                  -0.487
REMARK UNBOUND:                -0.405
REMARK  2 active torsions:
REMARK  status: ('A' for Active; 'I' for Inactive)
REMARK    1  A    between atoms: CAX_24  and  NBD_30 
REMARK    2  A    between atoms: CAY_25  and  CAZ_26 
ROOT
HETATM    1  CAE   D T 600      60.460 -45.331 -35.436  1.00 46.04     0.002 A 
HETATM    2  CAF   D T 600      62.334 -46.858 -35.441  1.00 45.69     0.002 A 
HETATM    3  CAG   D T 600      60.974 -44.712 -36.567  1.00 45.75     0.017 A 
HETATM    4  CAH   D T 600      62.834 -46.242 -36.582  1.00 45.50     0.017 A 
HETATM    5  CAK   D T 600      59.856 -46.416 -32.755  1.00 35.53     0.102 A 
HETATM    6  CAL   D T 600      60.102 -50.472 -30.883  1.00 33.49     0.124 A 
HETATM    7  CAM   D T 600      61.010 -48.387 -33.532  1.00 37.51     0.104 A 
HETATM    8  NAS   D T 600      59.431 -47.095 -31.679  1.00 41.55    -0.225 NA
HETATM    9  NAT   D T 600      60.739 -50.251 -32.039  1.00 34.74    -0.162 NA
HETATM   10  CAV   D T 600      61.146 -46.403 -34.851  1.00 43.90     0.003 A 
HETATM   11  CAW   D T 600      60.668 -47.046 -33.703  1.00 37.17     0.038 A 
HETATM   12  CAX   D T 600      62.161 -45.165 -37.140  1.00 47.52     0.056 A 
HETATM   13  CAZ   D T 600      59.487 -49.357 -30.508  1.00 33.41     0.057 A 
HETATM   14  CBC   D T 600      59.767 -48.401 -31.471  1.00 37.64     0.165 A 
HETATM   15  NBE   D T 600      60.568 -49.087 -32.406  1.00 36.80    -0.211 N 
ENDROOT
BRANCH  13  16
HETATM   16  CAY   D T 600      58.727 -49.171 -29.347  1.00 35.53     0.007 A 
HETATM   17  CAD   D T 600      57.334 -49.347 -29.411  1.00 33.79     0.021 A 
HETATM   18  CAC   D T 600      56.569 -49.161 -28.266  1.00 29.73     0.099 A 
HETATM   19  NAR   D T 600      57.139 -48.814 -27.124  1.00 26.72    -0.244 NA
HETATM   20  CBA   D T 600      58.458 -48.638 -27.027  1.00 26.75     0.081 A 
HETATM   21  CAI   D T 600      59.006 -48.285 -25.803  1.00 28.72     0.019 A 
HETATM   22  CBB   D T 600      59.290 -48.811 -28.122  1.00 30.35     0.018 A 
HETATM   23  CAA   D T 600      60.371 -48.105 -25.653  1.00 24.81     0.002 A 
HETATM   24  CAB   D T 600      61.188 -48.279 -26.744  1.00 24.46     0.000 A 
HETATM   25  CAJ   D T 600      60.659 -48.635 -27.976  1.00 27.06     0.002 A 
ENDBRANCH  13  16
BRANCH  12  26
HETATM   26  NBD   D T 600      62.659 -44.584 -38.319  1.00 50.24    -0.344 N 
HETATM   27  CAP   D T 600      62.248 -45.152 -39.645  1.00 48.20     0.140 C 
HETATM   28  CAN   D T 600      61.522 -44.084 -40.456  1.00 44.02     0.314 C 
HETATM   29  NAU   D T 600      62.306 -42.837 -40.417  1.00 42.58     0.343 N 
HETATM   30  CAO   D T 600      62.469 -42.355 -39.030  1.00 41.76     0.314 C 
HETATM   31  CAQ   D T 600      63.387 -43.306 -38.287  1.00 40.50     0.140 C 
ENDBRANCH  12  26
TORSDOF 2
ENDMDL
MODEL 6
REMARK VINA RESULT:    -7.126      5.707      7.884
REMARK INTER + INTRA:          -8.364
REMARK INTER:                  -8.029
REMARK INTRA:                  -0.334
REMARK UNBOUND:                -0.405
REMARK  2 active torsions:
REMARK  status: ('A' for Active; 'I' for Inactive)
REMARK    1  A    between atoms: CAX_24  and  NBD_30 
REMARK    2  A    between atoms: CAY_25  and  CAZ_26 
ROOT
HETATM    1  CAE   D T 600      65.014 -52.204 -30.479  1.00 46.04     0.002 A 
HETATM    2  CAF   D T 600      66.006 -51.709 -28.332  1.00 45.69     0.002 A 
HETATM    3  CAG   D T 600      66.108 -52.998 -30.791  1.00 45.75     0.017 A 
HETATM    4  CAH   D T 600      67.092 -52.518 -28.646  1.00 45.50     0.017 A 
HETATM    5  CAK   D T 600      63.084 -50.059 -29.844  1.00 35.53     0.102 A 
HETATM    6  CAL   D T 600      61.026 -48.695 -26.113  1.00 33.49     0.124 A 
HETATM    7  CAM   D T 600      63.586 -50.588 -27.544  1.00 37.51     0.104 A 
HETATM    8  NAS   D T 600      62.060 -49.291 -29.439  1.00 41.55    -0.225 NA
HETATM    9  NAT   D T 600      62.080 -49.513 -26.011  1.00 34.74    -0.162 NA
HETATM   10  CAV   D T 600      64.959 -51.537 -29.248  1.00 43.90     0.003 A 
HETATM   11  CAW   D T 600      63.878 -50.717 -28.901  1.00 37.17     0.038 A 
HETATM   12  CAX   D T 600      67.149 -53.155 -29.877  1.00 47.52     0.056 A 
HETATM   13  CAZ   D T 600      60.797 -48.441 -27.396  1.00 33.41     0.057 A 
HETATM   14  CBC   D T 600      61.762 -49.125 -28.117  1.00 37.64     0.165 A 
HETATM   15  NBE   D T 600      62.522 -49.782 -27.129  1.00 36.80    -0.211 N 
ENDROOT
BRANCH  13  16
HETATM   16  CAY   D T 600      59.794 -47.618 -27.920  1.00 35.53     0.007 A 
HETATM   17  CAD   D T 600      60.162 -46.414 -28.547  1.00 33.79     0.021 A 
HETATM   18  CAC   D T 600      59.174 -45.586 -29.068  1.00 29.73     0.099 A 
HETATM   19  NAR   D T 600      57.897 -45.918 -28.972  1.00 26.72    -0.244 NA
HETATM   20  CBA   D T 600      57.513 -47.053 -28.384  1.00 26.75     0.081 A 
HETATM   21  CAI   D T 600      56.162 -47.358 -28.320  1.00 28.72     0.019 A 
HETATM   22  CBB   D T 600      58.437 -47.934 -27.846  1.00 30.35     0.018 A 
HETATM   23  CAA   D T 600      55.718 -48.530 -27.731  1.00 24.81     0.002 A 
HETATM   24  CAB   D T 600      56.642 -49.398 -27.200  1.00 24.46     0.000 A 
HETATM   25  CAJ   D T 600      57.998 -49.112 -27.257  1.00 27.06     0.002 A 
ENDBRANCH  13  16
BRANCH  12  26
HETATM   26  NBD   D T 600      68.233 -54.002 -30.159  1.00 50.24    -0.344 N 
HETATM   27  CAP   D T 600      69.549 -53.757 -29.480  1.00 48.20     0.140 C 
HETATM   28  CAN   D T 600      69.930 -54.978 -28.649  1.00 44.02     0.314 C 
HETATM   29  NAU   D T 600      69.757 -56.190 -29.468  1.00 42.58     0.343 N 
HETATM   30  CAO   D T 600      68.355 -56.334 -29.912  1.00 41.76     0.314 C 
HETATM   31  CAQ   D T 600      68.048 -55.246 -30.923  1.00 40.50     0.140 C 
ENDBRANCH  12  26
TORSDOF 2
ENDMDL
MODEL 7
REMARK VINA RESULT:    -7.044      2.884     10.631
REMARK INTER + INTRA:          -8.272
REMARK INTER:                  -7.952
REMARK INTRA:                  -0.320
REMARK UNBOUND:                -0.405
REMARK  2 active torsions:
REMARK  status: ('A' for Active; 'I' for Inactive)
REMARK    1  A    between atoms: CAX_24  and  NBD_30 
REMARK    2  A    between atoms: CAY_25  and  CAZ_26 
ROOT
HETATM    1  CAE   D T 600      60.047 -48.013 -32.258  1.00 46.04     0.002 A 
HETATM    2  CAF   D T 600      60.156 -45.966 -30.977  1.00 45.69     0.002 A 
HETATM    3  CAG   D T 600      59.696 -48.703 -31.106  1.00 45.75     0.017 A 
HETATM    4  CAH   D T 600      59.789 -46.662 -29.831  1.00 45.50     0.017 A 
HETATM    5  CAK   D T 600      61.329 -46.472 -34.429  1.00 35.53     0.102 A 
HETATM    6  CAL   D T 600      60.976 -42.271 -35.926  1.00 33.49     0.124 A 
HETATM    7  CAM   D T 600      60.321 -44.554 -33.368  1.00 37.51     0.104 A 
HETATM    8  NAS   D T 600      61.649 -45.712 -35.488  1.00 41.55    -0.225 NA
HETATM    9  NAT   D T 600      60.474 -42.576 -34.723  1.00 34.74    -0.162 NA
HETATM   10  CAV   D T 600      60.297 -46.635 -32.201  1.00 43.90     0.003 A 
HETATM   11  CAW   D T 600      60.666 -45.905 -33.338  1.00 37.17     0.038 A 
HETATM   12  CAX   D T 600      59.568 -48.030 -29.893  1.00 47.52     0.056 A 
HETATM   13  CAZ   D T 600      61.514 -43.361 -36.459  1.00 33.41     0.057 A 
HETATM   14  CBC   D T 600      61.346 -44.383 -35.539  1.00 37.64     0.165 A 
HETATM   15  NBE   D T 600      60.662 -43.768 -34.472  1.00 36.80    -0.211 N 
ENDROOT
BRANCH  13  16
HETATM   16  CAY   D T 600      62.156 -43.456 -37.700  1.00 35.53     0.007 A 
HETATM   17  CAD   D T 600      63.354 -42.749 -37.902  1.00 33.79     0.021 A 
HETATM   18  CAC   D T 600      63.997 -42.834 -39.131  1.00 29.73     0.099 A 
HETATM   19  NAR   D T 600      63.488 -43.564 -40.109  1.00 26.72    -0.244 NA
HETATM   20  CBA   D T 600      62.353 -44.247 -39.953  1.00 26.75     0.081 A 
HETATM   21  CAI   D T 600      61.869 -45.006 -41.007  1.00 28.72     0.019 A 
HETATM   22  CBB   D T 600      61.656 -44.220 -38.755  1.00 30.35     0.018 A 
HETATM   23  CAA   D T 600      60.702 -45.742 -40.886  1.00 24.81     0.002 A 
HETATM   24  CAB   D T 600      60.017 -45.709 -39.694  1.00 24.46     0.000 A 
HETATM   25  CAJ   D T 600      60.487 -44.958 -38.628  1.00 27.06     0.002 A 
ENDBRANCH  13  16
BRANCH  12  26
HETATM   26  NBD   D T 600      59.156 -48.708 -28.733  1.00 50.24    -0.344 N 
HETATM   27  CAP   D T 600      59.919 -48.506 -27.457  1.00 48.20     0.140 C 
HETATM   28  CAN   D T 600      58.994 -47.920 -26.396  1.00 44.02     0.314 C 
HETATM   29  NAU   D T 600      57.740 -48.694 -26.371  1.00 42.58     0.343 N 
HETATM   30  CAO   D T 600      57.058 -48.641 -27.681  1.00 41.76     0.314 C 
HETATM   31  CAQ   D T 600      57.874 -49.428 -28.688  1.00 40.50     0.140 C 
ENDBRANCH  12  26
TORSDOF 2
ENDMDL
MODEL 8
REMARK VINA RESULT:    -7.044      1.999     10.655
REMARK INTER + INTRA:          -8.272
REMARK INTER:                  -7.747
REMARK INTRA:                  -0.525
REMARK UNBOUND:                -0.405
REMARK  2 active torsions:
REMARK  status: ('A' for Active; 'I' for Inactive)
REMARK    1  A    between atoms: CAX_24  and  NBD_30 
REMARK    2  A    between atoms: CAY_25  and  CAZ_26 
ROOT
HETATM    1  CAE   D T 600      59.740 -49.168 -32.004  1.00 46.04     0.002 A 
HETATM    2  CAF   D T 600      60.448 -47.000 -31.203  1.00 45.69     0.002 A 
HETATM    3  CAG   D T 600      59.483 -49.556 -30.697  1.00 45.75     0.017 A 
HETATM    4  CAH   D T 600      60.174 -47.391 -29.898  1.00 45.50     0.017 A 
HETATM    5  CAK   D T 600      60.868 -48.338 -34.606  1.00 35.53     0.102 A 
HETATM    6  CAL   D T 600      61.021 -44.484 -36.874  1.00 33.49     0.124 A 
HETATM    7  CAM   D T 600      60.433 -46.094 -33.833  1.00 37.51     0.104 A 
HETATM    8  NAS   D T 600      61.125 -47.860 -35.834  1.00 41.55    -0.225 NA
HETATM    9  NAT   D T 600      60.697 -44.462 -35.575  1.00 34.74    -0.162 NA
HETATM   10  CAV   D T 600      60.242 -47.887 -32.269  1.00 43.90     0.003 A 
HETATM   11  CAW   D T 600      60.527 -47.461 -33.573  1.00 37.17     0.038 A 
HETATM   12  CAX   D T 600      59.700 -48.670 -29.643  1.00 47.52     0.056 A 
HETATM   13  CAZ   D T 600      61.246 -45.740 -37.241  1.00 33.41     0.057 A 
HETATM   14  CBC   D T 600      61.065 -46.526 -36.115  1.00 37.64     0.165 A 
HETATM   15  NBE   D T 600      60.707 -45.603 -35.112  1.00 36.80    -0.211 N 
ENDROOT
BRANCH  13  16
HETATM   16  CAY   D T 600      61.626 -46.184 -38.513  1.00 35.53     0.007 A 
HETATM   17  CAD   D T 600      60.631 -46.401 -39.483  1.00 33.79     0.021 A 
HETATM   18  CAC   D T 600      60.996 -46.845 -40.748  1.00 29.73     0.099 A 
HETATM   19  NAR   D T 600      62.265 -47.072 -41.042  1.00 26.72    -0.244 NA
HETATM   20  CBA   D T 600      63.235 -46.878 -40.147  1.00 26.75     0.081 A 
HETATM   21  CAI   D T 600      64.551 -47.120 -40.510  1.00 28.72     0.019 A 
HETATM   22  CBB   D T 600      62.953 -46.429 -38.866  1.00 30.35     0.018 A 
HETATM   23  CAA   D T 600      65.591 -46.920 -39.618  1.00 24.81     0.002 A 
HETATM   24  CAB   D T 600      65.302 -46.474 -38.350  1.00 24.46     0.000 A 
HETATM   25  CAJ   D T 600      63.993 -46.224 -37.969  1.00 27.06     0.002 A 
ENDBRANCH  13  16
BRANCH  12  26
HETATM   26  NBD   D T 600      59.388 -49.033 -28.322  1.00 50.24    -0.344 N 
HETATM   27  CAP   D T 600      60.201 -48.467 -27.196  1.00 48.20     0.140 C 
HETATM   28  CAN   D T 600      59.300 -47.659 -26.268  1.00 44.02     0.314 C 
HETATM   29  NAU   D T 600      58.096 -48.451 -25.961  1.00 42.58     0.343 N 
HETATM   30  CAO   D T 600      57.346 -48.776 -27.191  1.00 41.76     0.314 C 
HETATM   31  CAQ   D T 600      58.153 -49.768 -28.007  1.00 40.50     0.140 C 
ENDBRANCH  12  26
TORSDOF 2
ENDMDL
MODEL 9
REMARK VINA RESULT:    -6.869      3.260     10.955
REMARK INTER + INTRA:          -8.077
REMARK INTER:                  -7.537
REMARK INTRA:                  -0.540
REMARK UNBOUND:                -0.405
REMARK  2 active torsions:
REMARK  status: ('A' for Active; 'I' for Inactive)
REMARK    1  A    between atoms: CAX_24  and  NBD_30 
REMARK    2  A    between atoms: CAY_25  and  CAZ_26 
ROOT
HETATM    1  CAE   D T 600      59.911 -47.715 -32.649  1.00 46.04     0.002 A 
HETATM    2  CAF   D T 600      60.557 -45.852 -31.250  1.00 45.69     0.002 A 
HETATM    3  CAG   D T 600      59.687 -48.479 -31.512  1.00 45.75     0.017 A 
HETATM    4  CAH   D T 600      60.317 -46.619 -30.116  1.00 45.50     0.017 A 
HETATM    5  CAK   D T 600      60.969 -46.117 -34.898  1.00 35.53     0.102 A 
HETATM    6  CAL   D T 600      60.955 -41.764 -35.934  1.00 33.49     0.124 A 
HETATM    7  CAM   D T 600      60.471 -44.216 -33.498  1.00 37.51     0.104 A 
HETATM    8  NAS   D T 600      61.190 -45.290 -35.932  1.00 41.55    -0.225 NA
HETATM    9  NAT   D T 600      60.651 -42.136 -34.685  1.00 34.74    -0.162 NA
HETATM   10  CAV   D T 600      60.365 -46.394 -32.529  1.00 43.90     0.003 A 
HETATM   11  CAW   D T 600      60.614 -45.595 -33.651  1.00 37.17     0.038 A 
HETATM   12  CAX   D T 600      59.891 -47.933 -30.246  1.00 47.52     0.056 A 
HETATM   13  CAZ   D T 600      61.218 -42.848 -36.656  1.00 33.41     0.057 A 
HETATM   14  CBC   D T 600      61.080 -43.936 -35.809  1.00 37.64     0.165 A 
HETATM   15  NBE   D T 600      60.707 -43.362 -34.577  1.00 36.80    -0.211 N 
ENDROOT
BRANCH  13  16
HETATM   16  CAY   D T 600      61.592 -42.885 -38.004  1.00 35.53     0.007 A 
HETATM   17  CAD   D T 600      60.588 -42.902 -38.988  1.00 33.79     0.021 A 
HETATM   18  CAC   D T 600      60.948 -42.942 -40.330  1.00 29.73     0.099 A 
HETATM   19  NAR   D T 600      62.222 -42.973 -40.685  1.00 26.72    -0.244 NA
HETATM   20  CBA   D T 600      63.200 -42.959 -39.778  1.00 26.75     0.081 A 
HETATM   21  CAI   D T 600      64.519 -42.982 -40.205  1.00 28.72     0.019 A 
HETATM   22  CBB   D T 600      62.923 -42.912 -38.421  1.00 30.35     0.018 A 
HETATM   23  CAA   D T 600      65.567 -42.955 -39.299  1.00 24.81     0.002 A 
HETATM   24  CAB   D T 600      65.283 -42.909 -37.956  1.00 24.46     0.000 A 
HETATM   25  CAJ   D T 600      63.970 -42.882 -37.510  1.00 27.06     0.002 A 
ENDBRANCH  13  16
BRANCH  12  26
HETATM   26  NBD   D T 600      59.612 -48.679 -29.088  1.00 50.24    -0.344 N 
HETATM   27  CAP   D T 600      60.200 -48.244 -27.778  1.00 48.20     0.140 C 
HETATM   28  CAN   D T 600      59.079 -47.925 -26.795  1.00 44.02     0.314 C 
HETATM   29  NAU   D T 600      58.096 -49.023 -26.814  1.00 42.58     0.343 N 
HETATM   30  CAO   D T 600      57.515 -49.191 -28.163  1.00 41.76     0.314 C 
HETATM   31  CAQ   D T 600      58.585 -49.732 -29.091  1.00 40.50     0.140 C 
ENDBRANCH  12  26
TORSDOF 2
ENDMDL
