MODEL 1
REMARK VINA RESULT:      -6.9      0.000      0.000
REMARK  2 active torsions:
REMARK  status: ('A' for Active; 'I' for Inactive)
REMARK    1  A    between atoms: CAX_24  and  NBD_30 
REMARK    2  A    between atoms: CAY_25  and  CAZ_26 
ROOT
HETATM    1  CAE   D T 600      64.345 -52.253 -30.497  1.00 46.04     0.002 A 
HETATM    2  CAF   D T 600      65.517 -51.575 -28.493  1.00 45.69     0.002 A 
HETATM    3  CAG   D T 600      65.407 -53.084 -30.825  1.00 45.75     0.017 A 
HETATM    4  CAH   D T 600      66.569 -52.422 -28.822  1.00 45.50     0.017 A 
HETATM    5  CAK   D T 600      62.483 -50.037 -29.901  1.00 35.53     0.102 A 
HETATM    6  CAL   D T 600      60.751 -48.316 -26.152  1.00 33.49     0.124 A 
HETATM    7  CAM   D T 600      63.175 -50.360 -27.612  1.00 37.51     0.104 A 
HETATM    8  NAS   D T 600      61.500 -49.223 -29.484  1.00 41.55    -0.225 NA
HETATM    9  NAT   D T 600      61.808 -49.133 -26.064  1.00 34.74    -0.162 NA
HETATM   10  CAV   D T 600      64.397 -51.476 -29.332  1.00 43.90     0.003 A 
HETATM   11  CAW   D T 600      63.352 -50.615 -28.972  1.00 37.17     0.038 A 
HETATM   12  CAX   D T 600      66.520 -53.168 -29.990  1.00 47.52     0.056 A 
HETATM   13  CAZ   D T 600      60.417 -48.177 -27.430  1.00 33.41     0.057 A 
HETATM   14  CBC   D T 600      61.315 -48.935 -28.164  1.00 37.64     0.165 A 
HETATM   15  NBE   D T 600      62.153 -49.508 -27.186  1.00 36.80    -0.211 N 
ENDROOT
BRANCH  13  16
HETATM   16  CAY   D T 600      59.376 -47.393 -27.942  1.00 35.53     0.007 A 
HETATM   17  CAD   D T 600      59.694 -46.228 -28.661  1.00 33.79     0.021 A 
HETATM   18  CAC   D T 600      58.669 -45.440 -29.171  1.00 29.73     0.099 A 
HETATM   19  NAR   D T 600      57.403 -45.773 -28.978  1.00 26.72    -0.244 NA
HETATM   20  CBA   D T 600      57.066 -46.872 -28.301  1.00 26.75     0.081 A 
HETATM   21  CAI   D T 600      55.724 -47.181 -28.138  1.00 28.72     0.019 A 
HETATM   22  CBB   D T 600      58.029 -47.713 -27.768  1.00 30.35     0.018 A 
HETATM   23  CAA   D T 600      55.328 -48.318 -27.453  1.00 24.81     0.002 A 
HETATM   24  CAB   D T 600      56.290 -49.146 -26.928  1.00 24.46     0.000 A 
HETATM   25  CAJ   D T 600      57.637 -48.855 -27.083  1.00 27.06     0.002 A 
ENDBRANCH  13  16
BRANCH  12  26
HETATM   26  NBD   D T 600      67.574 -54.050 -30.282  1.00 50.24    -0.344 N 
HETATM   27  CAP   D T 600      68.341 -54.673 -29.154  1.00 48.20     0.140 C 
HETATM   28  CAN   D T 600      68.205 -56.191 -29.219  1.00 44.02     0.314 C 
HETATM   29  NAU   D T 600      68.464 -56.637 -30.599  1.00 42.58     0.343 N 
HETATM   30  CAO   D T 600      67.502 -56.030 -31.542  1.00 41.76     0.314 C 
HETATM   31  CAQ   D T 600      67.793 -54.546 -31.650  1.00 40.50     0.140 C 
ENDBRANCH  12  26
TORSDOF 2
ENDMDL
MODEL 2
REMARK VINA RESULT:      -6.9      1.919     10.422
REMARK  2 active torsions:
REMARK  status: ('A' for Active; 'I' for Inactive)
REMARK    1  A    between atoms: CAX_24  and  NBD_30 
REMARK    2  A    between atoms: CAY_25  and  CAZ_26 
ROOT
HETATM    1  CAE   D T 600      60.668 -50.409 -29.380  1.00 46.04     0.002 A 
HETATM    2  CAF   D T 600      61.933 -49.399 -27.584  1.00 45.69     0.002 A 
HETATM    3  CAG   D T 600      59.517 -49.802 -28.897  1.00 45.75     0.017 A 
HETATM    4  CAH   D T 600      60.779 -48.782 -27.117  1.00 45.50     0.017 A 
HETATM    5  CAK   D T 600      63.089 -52.024 -29.892  1.00 35.53     0.102 A 
HETATM    6  CAL   D T 600      67.488 -51.218 -29.743  1.00 33.49     0.124 A 
HETATM    7  CAM   D T 600      64.269 -50.180 -28.877  1.00 37.51     0.104 A 
HETATM    8  NAS   D T 600      64.259 -52.546 -30.292  1.00 41.55    -0.225 NA
HETATM    9  NAT   D T 600      66.649 -50.354 -29.158  1.00 34.74    -0.162 NA
HETATM   10  CAV   D T 600      61.889 -50.226 -28.716  1.00 43.90     0.003 A 
HETATM   11  CAW   D T 600      63.070 -50.831 -29.163  1.00 37.17     0.038 A 
HETATM   12  CAX   D T 600      59.571 -48.990 -27.766  1.00 47.52     0.056 A 
HETATM   13  CAZ   D T 600      66.784 -52.206 -30.282  1.00 33.41     0.057 A 
HETATM   14  CBC   D T 600      65.451 -51.945 -30.008  1.00 37.64     0.165 A 
HETATM   15  NBE   D T 600      65.484 -50.732 -29.292  1.00 36.80    -0.211 N 
ENDROOT
BRANCH  13  16
HETATM   16  CAY   D T 600      67.290 -53.315 -30.970  1.00 35.53     0.007 A 
HETATM   17  CAD   D T 600      67.460 -53.233 -32.363  1.00 33.79     0.021 A 
HETATM   18  CAC   D T 600      67.959 -54.329 -33.056  1.00 29.73     0.099 A 
HETATM   19  NAR   D T 600      68.266 -55.446 -32.418  1.00 26.72    -0.244 NA
HETATM   20  CBA   D T 600      68.117 -55.560 -31.097  1.00 26.75     0.081 A 
HETATM   21  CAI   D T 600      68.464 -56.750 -30.477  1.00 28.72     0.019 A 
HETATM   22  CBB   D T 600      67.633 -54.509 -30.334  1.00 30.35     0.018 A 
HETATM   23  CAA   D T 600      68.339 -56.909 -29.107  1.00 24.81     0.002 A 
HETATM   24  CAB   D T 600      67.858 -55.861 -28.358  1.00 24.46     0.000 A 
HETATM   25  CAJ   D T 600      67.508 -54.662 -28.960  1.00 27.06     0.002 A 
ENDBRANCH  13  16
BRANCH  12  26
HETATM   26  NBD   D T 600      58.423 -48.323 -27.303  1.00 50.24    -0.344 N 
HETATM   27  CAP   D T 600      57.499 -47.682 -28.296  1.00 48.20     0.140 C 
HETATM   28  CAN   D T 600      56.116 -48.315 -28.191  1.00 44.02     0.314 C 
HETATM   29  NAU   D T 600      55.722 -48.372 -26.772  1.00 42.58     0.343 N 
HETATM   30  CAO   D T 600      56.678 -49.181 -25.988  1.00 41.76     0.314 C 
HETATM   31  CAQ   D T 600      57.994 -48.432 -25.901  1.00 40.50     0.140 C 
ENDBRANCH  12  26
TORSDOF 2
ENDMDL
MODEL 3
REMARK VINA RESULT:      -6.8      4.590      5.568
REMARK  2 active torsions:
REMARK  status: ('A' for Active; 'I' for Inactive)
REMARK    1  A    between atoms: CAX_24  and  NBD_30 
REMARK    2  A    between atoms: CAY_25  and  CAZ_26 
ROOT
HETATM    1  CAE   D T 600      62.775 -49.022 -34.806  1.00 46.04     0.002 A 
HETATM    2  CAF   D T 600      64.815 -49.843 -33.803  1.00 45.69     0.002 A 
HETATM    3  CAG   D T 600      63.389 -49.045 -36.050  1.00 45.75     0.017 A 
HETATM    4  CAH   D T 600      65.418 -49.877 -35.055  1.00 45.50     0.017 A 
HETATM    5  CAK   D T 600      61.864 -48.528 -32.039  1.00 35.53     0.102 A 
HETATM    6  CAL   D T 600      62.340 -50.684 -28.147  1.00 33.49     0.124 A 
HETATM    7  CAM   D T 600      63.402 -50.292 -31.450  1.00 37.51     0.104 A 
HETATM    8  NAS   D T 600      61.354 -48.565 -30.798  1.00 41.55    -0.225 NA
HETATM    9  NAT   D T 600      63.134 -51.013 -29.173  1.00 34.74    -0.162 NA
HETATM   10  CAV   D T 600      63.490 -49.407 -33.664  1.00 43.90     0.003 A 
HETATM   11  CAW   D T 600      62.910 -49.386 -32.389  1.00 37.17     0.038 A 
HETATM   12  CAX   D T 600      64.710 -49.470 -36.176  1.00 47.52     0.056 A 
HETATM   13  CAZ   D T 600      61.518 -49.714 -28.530  1.00 33.41     0.057 A 
HETATM   14  CBC   D T 600      61.827 -49.424 -29.849  1.00 37.64     0.165 A 
HETATM   15  NBE   D T 600      62.869 -50.321 -30.158  1.00 36.80    -0.211 N 
ENDROOT
BRANCH  13  16
HETATM   16  CAY   D T 600      60.546 -49.083 -27.745  1.00 35.53     0.007 A 
HETATM   17  CAD   D T 600      60.956 -48.320 -26.638  1.00 33.79     0.021 A 
HETATM   18  CAC   D T 600      60.000 -47.692 -25.850  1.00 29.73     0.099 A 
HETATM   19  NAR   D T 600      58.712 -47.813 -26.128  1.00 26.72    -0.244 NA
HETATM   20  CBA   D T 600      58.287 -48.529 -27.170  1.00 26.75     0.081 A 
HETATM   21  CAI   D T 600      56.927 -48.615 -27.423  1.00 28.72     0.019 A 
HETATM   22  CBB   D T 600      59.179 -49.180 -28.008  1.00 30.35     0.018 A 
HETATM   23  CAA   D T 600      56.442 -49.336 -28.501  1.00 24.81     0.002 A 
HETATM   24  CAB   D T 600      57.333 -49.978 -29.327  1.00 24.46     0.000 A 
HETATM   25  CAJ   D T 600      58.698 -49.902 -29.092  1.00 27.06     0.002 A 
ENDBRANCH  13  16
BRANCH  12  26
HETATM   26  NBD   D T 600      65.323 -49.553 -37.438  1.00 50.24    -0.344 N 
HETATM   27  CAP   D T 600      66.365 -48.542 -37.813  1.00 48.20     0.140 C 
HETATM   28  CAN   D T 600      67.689 -49.249 -38.087  1.00 44.02     0.314 C 
HETATM   29  NAU   D T 600      67.445 -50.396 -38.977  1.00 42.58     0.343 N 
HETATM   30  CAO   D T 600      66.509 -51.358 -38.359  1.00 41.76     0.314 C 
HETATM   31  CAQ   D T 600      65.130 -50.729 -38.301  1.00 40.50     0.140 C 
ENDBRANCH  12  26
TORSDOF 2
ENDMDL
MODEL 4
REMARK VINA RESULT:      -6.7      2.123     10.455
REMARK  2 active torsions:
REMARK  status: ('A' for Active; 'I' for Inactive)
REMARK    1  A    between atoms: CAX_24  and  NBD_30 
REMARK    2  A    between atoms: CAY_25  and  CAZ_26 
ROOT
HETATM    1  CAE   D T 600      60.861 -50.477 -29.506  1.00 46.04     0.002 A 
HETATM    2  CAF   D T 600      62.103 -49.518 -27.667  1.00 45.69     0.002 A 
HETATM    3  CAG   D T 600      59.713 -49.848 -29.046  1.00 45.75     0.017 A 
HETATM    4  CAH   D T 600      60.952 -48.879 -27.221  1.00 45.50     0.017 A 
HETATM    5  CAK   D T 600      63.256 -52.143 -29.976  1.00 35.53     0.102 A 
HETATM    6  CAL   D T 600      67.667 -51.443 -29.705  1.00 33.49     0.124 A 
HETATM    7  CAM   D T 600      64.452 -50.339 -28.909  1.00 37.51     0.104 A 
HETATM    8  NAS   D T 600      64.423 -52.688 -30.352  1.00 41.55    -0.225 NA
HETATM    9  NAT   D T 600      66.834 -50.567 -29.132  1.00 34.74    -0.162 NA
HETATM   10  CAV   D T 600      62.068 -50.330 -28.809  1.00 43.90     0.003 A 
HETATM   11  CAW   D T 600      63.245 -50.959 -29.234  1.00 37.17     0.038 A 
HETATM   12  CAX   D T 600      59.756 -49.051 -27.904  1.00 47.52     0.056 A 
HETATM   13  CAZ   D T 600      66.954 -52.408 -30.274  1.00 33.41     0.057 A 
HETATM   14  CBC   D T 600      65.621 -52.119 -30.031  1.00 37.64     0.165 A 
HETATM   15  NBE   D T 600      65.664 -50.915 -29.300  1.00 36.80    -0.211 N 
ENDROOT
BRANCH  13  16
HETATM   16  CAY   D T 600      67.452 -53.521 -30.962  1.00 35.53     0.007 A 
HETATM   17  CAD   D T 600      67.907 -54.629 -30.225  1.00 33.79     0.021 A 
HETATM   18  CAC   D T 600      68.406 -55.737 -30.897  1.00 29.73     0.099 A 
HETATM   19  NAR   D T 600      68.464 -55.755 -32.219  1.00 26.72    -0.244 NA
HETATM   20  CBA   D T 600      68.042 -54.722 -32.949  1.00 26.75     0.081 A 
HETATM   21  CAI   D T 600      68.114 -54.796 -34.332  1.00 28.72     0.019 A 
HETATM   22  CBB   D T 600      67.524 -53.583 -32.354  1.00 30.35     0.018 A 
HETATM   23  CAA   D T 600      67.676 -53.753 -35.131  1.00 24.81     0.002 A 
HETATM   24  CAB   D T 600      67.163 -52.628 -34.532  1.00 24.46     0.000 A 
HETATM   25  CAJ   D T 600      67.080 -52.536 -33.151  1.00 27.06     0.002 A 
ENDBRANCH  13  16
BRANCH  12  26
HETATM   26  NBD   D T 600      58.613 -48.362 -27.463  1.00 50.24    -0.344 N 
HETATM   27  CAP   D T 600      57.675 -47.776 -28.476  1.00 48.20     0.140 C 
HETATM   28  CAN   D T 600      56.295 -48.404 -28.320  1.00 44.02     0.314 C 
HETATM   29  NAU   D T 600      55.918 -48.387 -26.896  1.00 42.58     0.343 N 
HETATM   30  CAO   D T 600      56.886 -49.152 -26.082  1.00 41.76     0.314 C 
HETATM   31  CAQ   D T 600      58.201 -48.398 -26.051  1.00 40.50     0.140 C 
ENDBRANCH  12  26
TORSDOF 2
ENDMDL
MODEL 5
REMARK VINA RESULT:      -6.7      2.175      3.380
REMARK  2 active torsions:
REMARK  status: ('A' for Active; 'I' for Inactive)
REMARK    1  A    between atoms: CAX_24  and  NBD_30 
REMARK    2  A    between atoms: CAY_25  and  CAZ_26 
ROOT
HETATM    1  CAE   D T 600      65.965 -53.112 -30.810  1.00 46.04     0.002 A 
HETATM    2  CAF   D T 600      65.133 -52.322 -32.938  1.00 45.69     0.002 A 
HETATM    3  CAG   D T 600      66.879 -53.916 -31.477  1.00 45.75     0.017 A 
HETATM    4  CAH   D T 600      66.061 -53.119 -33.598  1.00 45.50     0.017 A 
HETATM    5  CAK   D T 600      63.608 -51.774 -29.633  1.00 35.53     0.102 A 
HETATM    6  CAL   D T 600      61.405 -47.975 -30.485  1.00 33.49     0.124 A 
HETATM    7  CAM   D T 600      63.714 -50.353 -31.580  1.00 37.51     0.104 A 
HETATM    8  NAS   D T 600      62.706 -50.946 -29.084  1.00 41.55    -0.225 NA
HETATM    9  NAT   D T 600      62.260 -48.449 -31.400  1.00 34.74    -0.162 NA
HETATM   10  CAV   D T 600      65.070 -52.316 -31.537  1.00 43.90     0.003 A 
HETATM   11  CAW   D T 600      64.125 -51.501 -30.903  1.00 37.17     0.038 A 
HETATM   12  CAX   D T 600      66.927 -53.922 -32.870  1.00 47.52     0.056 A 
HETATM   13  CAZ   D T 600      61.391 -48.794 -29.441  1.00 33.41     0.057 A 
HETATM   14  CBC   D T 600      62.267 -49.827 -29.730  1.00 37.64     0.165 A 
HETATM   15  NBE   D T 600      62.771 -49.498 -31.004  1.00 36.80    -0.211 N 
ENDROOT
BRANCH  13  16
HETATM   16  CAY   D T 600      60.616 -48.659 -28.283  1.00 35.53     0.007 A 
HETATM   17  CAD   D T 600      61.242 -48.262 -27.088  1.00 33.79     0.021 A 
HETATM   18  CAC   D T 600      60.484 -48.129 -25.932  1.00 29.73     0.099 A 
HETATM   19  NAR   D T 600      59.185 -48.379 -25.945  1.00 26.72    -0.244 NA
HETATM   20  CBA   D T 600      58.559 -48.758 -27.060  1.00 26.75     0.081 A 
HETATM   21  CAI   D T 600      57.193 -48.997 -27.021  1.00 28.72     0.019 A 
HETATM   22  CBB   D T 600      59.243 -48.907 -28.255  1.00 30.35     0.018 A 
HETATM   23  CAA   D T 600      56.499 -49.380 -28.157  1.00 24.81     0.002 A 
HETATM   24  CAB   D T 600      57.187 -49.525 -29.338  1.00 24.46     0.000 A 
HETATM   25  CAJ   D T 600      58.551 -49.287 -29.397  1.00 27.06     0.002 A 
ENDBRANCH  13  16
BRANCH  12  26
HETATM   26  NBD   D T 600      67.887 -54.688 -33.554  1.00 50.24    -0.344 N 
HETATM   27  CAP   D T 600      68.387 -55.958 -32.933  1.00 48.20     0.140 C 
HETATM   28  CAN   D T 600      68.062 -57.136 -33.846  1.00 44.02     0.314 C 
HETATM   29  NAU   D T 600      68.464 -56.800 -35.223  1.00 42.58     0.343 N 
HETATM   30  CAO   D T 600      67.743 -55.605 -35.710  1.00 41.76     0.314 C 
HETATM   31  CAQ   D T 600      68.242 -54.391 -34.950  1.00 40.50     0.140 C 
ENDBRANCH  12  26
TORSDOF 2
ENDMDL
MODEL 6
REMARK VINA RESULT:      -6.6      3.260      3.934
REMARK  2 active torsions:
REMARK  status: ('A' for Active; 'I' for Inactive)
REMARK    1  A    between atoms: CAX_24  and  NBD_30 
REMARK    2  A    between atoms: CAY_25  and  CAZ_26 
ROOT
HETATM    1  CAE   D T 600      64.345 -51.418 -34.467  1.00 46.04     0.002 A 
HETATM    2  CAF   D T 600      66.104 -51.530 -32.813  1.00 45.69     0.002 A 
HETATM    3  CAG   D T 600      65.187 -52.024 -35.389  1.00 45.75     0.017 A 
HETATM    4  CAH   D T 600      66.936 -52.150 -33.738  1.00 45.50     0.017 A 
HETATM    5  CAK   D T 600      62.942 -49.664 -32.548  1.00 35.53     0.102 A 
HETATM    6  CAL   D T 600      62.536 -49.580 -28.093  1.00 33.49     0.124 A 
HETATM    7  CAM   D T 600      64.238 -50.824 -30.875  1.00 37.51     0.104 A 
HETATM    8  NAS   D T 600      62.200 -49.107 -31.578  1.00 41.55    -0.225 NA
HETATM    9  NAT   D T 600      63.495 -50.333 -28.643  1.00 34.74    -0.162 NA
HETATM   10  CAV   D T 600      64.802 -51.150 -33.170  1.00 43.90     0.003 A 
HETATM   11  CAW   D T 600      63.988 -50.529 -32.215  1.00 37.17     0.038 A 
HETATM   12  CAX   D T 600      66.482 -52.389 -35.027  1.00 47.52     0.056 A 
HETATM   13  CAZ   D T 600      61.858 -48.970 -29.058  1.00 33.41     0.057 A 
HETATM   14  CBC   D T 600      62.433 -49.356 -30.257  1.00 37.64     0.165 A 
HETATM   15  NBE   D T 600      63.465 -50.235 -29.871  1.00 36.80    -0.211 N 
ENDROOT
BRANCH  13  16
HETATM   16  CAY   D T 600      60.788 -48.082 -28.896  1.00 35.53     0.007 A 
HETATM   17  CAD   D T 600      61.040 -46.699 -28.926  1.00 33.79     0.021 A 
HETATM   18  CAC   D T 600      59.986 -45.809 -28.763  1.00 29.73     0.099 A 
HETATM   19  NAR   D T 600      58.754 -46.252 -28.572  1.00 26.72    -0.244 NA
HETATM   20  CBA   D T 600      58.478 -47.557 -28.537  1.00 26.75     0.081 A 
HETATM   21  CAI   D T 600      57.168 -47.967 -28.344  1.00 28.72     0.019 A 
HETATM   22  CBB   D T 600      59.474 -48.507 -28.699  1.00 30.35     0.018 A 
HETATM   23  CAA   D T 600      56.834 -49.310 -28.314  1.00 24.81     0.002 A 
HETATM   24  CAB   D T 600      57.827 -50.246 -28.476  1.00 24.46     0.000 A 
HETATM   25  CAJ   D T 600      59.143 -49.855 -28.672  1.00 27.06     0.002 A 
ENDBRANCH  13  16
BRANCH  12  26
HETATM   26  NBD   D T 600      67.323 -53.056 -35.935  1.00 50.24    -0.344 N 
HETATM   27  CAP   D T 600      68.307 -54.062 -35.416  1.00 48.20     0.140 C 
HETATM   28  CAN   D T 600      68.011 -55.429 -36.025  1.00 44.02     0.314 C 
HETATM   29  NAU   D T 600      67.833 -55.277 -37.480  1.00 42.58     0.343 N 
HETATM   30  CAO   D T 600      66.711 -54.365 -37.785  1.00 41.76     0.314 C 
HETATM   31  CAQ   D T 600      67.106 -52.956 -37.386  1.00 40.50     0.140 C 
ENDBRANCH  12  26
TORSDOF 2
ENDMDL
MODEL 7
REMARK VINA RESULT:      -6.3      2.245     10.134
REMARK  2 active torsions:
REMARK  status: ('A' for Active; 'I' for Inactive)
REMARK    1  A    between atoms: CAX_24  and  NBD_30 
REMARK    2  A    between atoms: CAY_25  and  CAZ_26 
ROOT
HETATM    1  CAE   D T 600      59.791 -50.406 -28.781  1.00 46.04     0.002 A 
HETATM    2  CAF   D T 600      60.990 -48.927 -27.291  1.00 45.69     0.002 A 
HETATM    3  CAG   D T 600      58.592 -49.961 -28.242  1.00 45.75     0.017 A 
HETATM    4  CAH   D T 600      59.784 -48.475 -26.767  1.00 45.50     0.017 A 
HETATM    5  CAK   D T 600      62.429 -51.597 -29.377  1.00 35.53     0.102 A 
HETATM    6  CAL   D T 600      66.568 -49.970 -29.862  1.00 33.49     0.124 A 
HETATM    7  CAM   D T 600      63.303 -49.437 -28.750  1.00 37.51     0.104 A 
HETATM    8  NAS   D T 600      63.637 -51.944 -29.847  1.00 41.55    -0.225 NA
HETATM    9  NAT   D T 600      65.632 -49.203 -29.292  1.00 34.74    -0.162 NA
HETATM   10  CAV   D T 600      61.006 -49.903 -28.297  1.00 43.90     0.003 A 
HETATM   11  CAW   D T 600      62.238 -50.336 -28.805  1.00 37.17     0.038 A 
HETATM   12  CAX   D T 600      58.587 -48.997 -27.235  1.00 47.52     0.056 A 
HETATM   13  CAZ   D T 600      66.031 -51.140 -30.185  1.00 33.41     0.057 A 
HETATM   14  CBC   D T 600      64.705 -51.096 -29.787  1.00 37.64     0.165 A 
HETATM   15  NBE   D T 600      64.559 -49.807 -29.236  1.00 36.80    -0.211 N 
ENDROOT
BRANCH  13  16
HETATM   16  CAY   D T 600      66.683 -52.223 -30.786  1.00 35.53     0.007 A 
HETATM   17  CAD   D T 600      67.679 -52.904 -30.062  1.00 33.79     0.021 A 
HETATM   18  CAC   D T 600      68.336 -53.978 -30.650  1.00 29.73     0.099 A 
HETATM   19  NAR   D T 600      68.038 -54.358 -31.882  1.00 26.72    -0.244 NA
HETATM   20  CBA   D T 600      67.100 -53.735 -32.597  1.00 26.75     0.081 A 
HETATM   21  CAI   D T 600      66.819 -54.181 -33.880  1.00 28.72     0.019 A 
HETATM   22  CBB   D T 600      66.395 -52.660 -32.079  1.00 30.35     0.018 A 
HETATM   23  CAA   D T 600      65.845 -53.573 -34.653  1.00 24.81     0.002 A 
HETATM   24  CAB   D T 600      65.151 -52.508 -34.132  1.00 24.46     0.000 A 
HETATM   25  CAJ   D T 600      65.415 -52.050 -32.850  1.00 27.06     0.002 A 
ENDBRANCH  13  16
BRANCH  12  26
HETATM   26  NBD   D T 600      57.377 -48.497 -26.724  1.00 50.24    -0.344 N 
HETATM   27  CAP   D T 600      56.428 -47.792 -27.648  1.00 48.20     0.140 C 
HETATM   28  CAN   D T 600      55.100 -48.540 -27.684  1.00 44.02     0.314 C 
HETATM   29  NAU   D T 600      54.677 -48.833 -26.303  1.00 42.58     0.343 N 
HETATM   30  CAO   D T 600      55.677 -49.671 -25.609  1.00 41.76     0.314 C 
HETATM   31  CAQ   D T 600      56.924 -48.842 -25.368  1.00 40.50     0.140 C 
ENDBRANCH  12  26
TORSDOF 2
ENDMDL
MODEL 8
REMARK VINA RESULT:      -6.2      4.311     10.607
REMARK  2 active torsions:
REMARK  status: ('A' for Active; 'I' for Inactive)
REMARK    1  A    between atoms: CAX_24  and  NBD_30 
REMARK    2  A    between atoms: CAY_25  and  CAZ_26 
ROOT
HETATM    1  CAE   D T 600      61.547 -48.464 -31.603  1.00 46.04     0.002 A 
HETATM    2  CAF   D T 600      62.007 -50.266 -30.059  1.00 45.69     0.002 A 
HETATM    3  CAG   D T 600      60.650 -47.925 -30.692  1.00 45.75     0.017 A 
HETATM    4  CAH   D T 600      61.118 -49.712 -29.145  1.00 45.50     0.017 A 
HETATM    5  CAK   D T 600      63.050 -50.061 -33.583  1.00 35.53     0.102 A 
HETATM    6  CAL   D T 600      66.681 -52.669 -33.404  1.00 33.49     0.124 A 
HETATM    7  CAM   D T 600      64.161 -51.000 -31.658  1.00 37.51     0.104 A 
HETATM    8  NAS   D T 600      63.954 -50.647 -34.384  1.00 41.55    -0.225 NA
HETATM    9  NAT   D T 600      66.073 -52.324 -32.263  1.00 34.74    -0.162 NA
HETATM   10  CAV   D T 600      62.225 -49.652 -31.301  1.00 43.90     0.003 A 
HETATM   11  CAW   D T 600      63.128 -50.235 -32.198  1.00 37.17     0.038 A 
HETATM   12  CAX   D T 600      60.433 -48.548 -29.464  1.00 47.52     0.056 A 
HETATM   13  CAZ   D T 600      66.029 -52.123 -34.424  1.00 33.41     0.057 A 
HETATM   14  CBC   D T 600      64.963 -51.420 -33.888  1.00 37.64     0.165 A 
HETATM   15  NBE   D T 600      65.095 -51.612 -32.498  1.00 36.80    -0.211 N 
ENDROOT
BRANCH  13  16
HETATM   16  CAY   D T 600      66.339 -52.257 -35.783  1.00 35.53     0.007 A 
HETATM   17  CAD   D T 600      67.188 -51.312 -36.383  1.00 33.79     0.021 A 
HETATM   18  CAC   D T 600      67.500 -51.433 -37.732  1.00 29.73     0.099 A 
HETATM   19  NAR   D T 600      66.998 -52.422 -38.453  1.00 26.72    -0.244 NA
HETATM   20  CBA   D T 600      66.189 -53.337 -37.916  1.00 26.75     0.081 A 
HETATM   21  CAI   D T 600      65.700 -54.360 -38.714  1.00 28.72     0.019 A 
HETATM   22  CBB   D T 600      65.837 -53.289 -36.577  1.00 30.35     0.018 A 
HETATM   23  CAA   D T 600      64.867 -55.338 -38.196  1.00 24.81     0.002 A 
HETATM   24  CAB   D T 600      64.523 -55.283 -36.867  1.00 24.46     0.000 A 
HETATM   25  CAJ   D T 600      65.005 -54.269 -36.053  1.00 27.06     0.002 A 
ENDBRANCH  13  16
BRANCH  12  26
HETATM   26  NBD   D T 600      59.571 -47.980 -28.510  1.00 50.24    -0.344 N 
HETATM   27  CAP   D T 600      58.141 -48.430 -28.456  1.00 48.20     0.140 C 
HETATM   28  CAN   D T 600      57.847 -49.035 -27.087  1.00 44.02     0.314 C 
HETATM   29  NAU   D T 600      58.358 -48.130 -26.043  1.00 42.58     0.343 N 
HETATM   30  CAO   D T 600      59.817 -47.937 -26.175  1.00 41.76     0.314 C 
HETATM   31  CAQ   D T 600      60.090 -47.128 -27.429  1.00 40.50     0.140 C 
ENDBRANCH  12  26
TORSDOF 2
ENDMDL
MODEL 9
REMARK VINA RESULT:      -6.1      5.562      6.862
REMARK  2 active torsions:
REMARK  status: ('A' for Active; 'I' for Inactive)
REMARK    1  A    between atoms: CAX_24  and  NBD_30 
REMARK    2  A    between atoms: CAY_25  and  CAZ_26 
ROOT
HETATM    1  CAE   D T 600      62.760 -47.966 -35.753  1.00 46.04     0.002 A 
HETATM    2  CAF   D T 600      64.776 -48.429 -34.501  1.00 45.69     0.002 A 
HETATM    3  CAG   D T 600      63.534 -47.636 -36.857  1.00 45.75     0.017 A 
HETATM    4  CAH   D T 600      65.543 -48.111 -35.615  1.00 45.50     0.017 A 
HETATM    5  CAK   D T 600      61.357 -48.169 -33.162  1.00 35.53     0.102 A 
HETATM    6  CAL   D T 600      61.810 -50.761 -29.543  1.00 33.49     0.124 A 
HETATM    7  CAM   D T 600      63.201 -49.586 -32.520  1.00 37.51     0.104 A 
HETATM    8  NAS   D T 600      60.698 -48.532 -32.049  1.00 41.55    -0.225 NA
HETATM    9  NAT   D T 600      62.804 -50.716 -30.438  1.00 34.74    -0.162 NA
HETATM   10  CAV   D T 600      63.376 -48.353 -34.556  1.00 43.90     0.003 A 
HETATM   11  CAW   D T 600      62.632 -48.682 -33.416  1.00 37.17     0.038 A 
HETATM   12  CAX   D T 600      64.925 -47.706 -36.789  1.00 47.52     0.056 A 
HETATM   13  CAZ   D T 600      60.826 -49.966 -29.948  1.00 33.41     0.057 A 
HETATM   14  CBC   D T 600      61.237 -49.396 -31.142  1.00 37.64     0.165 A 
HETATM   15  NBE   D T 600      62.513 -49.955 -31.362  1.00 36.80    -0.211 N 
ENDROOT
BRANCH  13  16
HETATM   16  CAY   D T 600      59.618 -49.724 -29.284  1.00 35.53     0.007 A 
HETATM   17  CAD   D T 600      58.416 -50.139 -29.885  1.00 33.79     0.021 A 
HETATM   18  CAC   D T 600      57.211 -49.901 -29.236  1.00 29.73     0.099 A 
HETATM   19  NAR   D T 600      57.186 -49.283 -28.066  1.00 26.72    -0.244 NA
HETATM   20  CBA   D T 600      58.306 -48.876 -27.467  1.00 26.75     0.081 A 
HETATM   21  CAI   D T 600      58.225 -48.243 -26.236  1.00 28.72     0.019 A 
HETATM   22  CBB   D T 600      59.548 -49.082 -28.046  1.00 30.35     0.018 A 
HETATM   23  CAA   D T 600      59.362 -47.815 -25.572  1.00 24.81     0.002 A 
HETATM   24  CAB   D T 600      60.589 -48.025 -26.154  1.00 24.46     0.000 A 
HETATM   25  CAJ   D T 600      60.692 -48.658 -27.383  1.00 27.06     0.002 A 
ENDBRANCH  13  16
BRANCH  12  26
HETATM   26  NBD   D T 600      65.715 -47.430 -37.918  1.00 50.24    -0.344 N 
HETATM   27  CAP   D T 600      65.896 -46.007 -38.354  1.00 48.20     0.140 C 
HETATM   28  CAN   D T 600      67.375 -45.640 -38.304  1.00 44.02     0.314 C 
HETATM   29  NAU   D T 600      68.155 -46.701 -38.965  1.00 42.58     0.343 N 
HETATM   30  CAO   D T 600      67.962 -48.001 -38.289  1.00 41.76     0.314 C 
HETATM   31  CAQ   D T 600      66.544 -48.475 -38.539  1.00 40.50     0.140 C 
ENDBRANCH  12  26
TORSDOF 2
ENDMDL
