MODEL 1
REMARK VINA RESULT:    -9.765      0.000      0.000
REMARK INTER + INTRA:         -11.410
REMARK INTER:                 -10.907
REMARK INTRA:                  -0.504
REMARK UNBOUND:                -0.504
REMARK  2 active torsions:
REMARK  status: ('A' for Active; 'I' for Inactive)
REMARK    1  A    between atoms: CAX_24  and  NBD_30 
REMARK    2  A    between atoms: CAY_25  and  CAZ_26 
ROOT
HETATM    1  CAE   D T 600       3.292   4.071 -10.791  1.00 46.04     0.002 A 
HETATM    2  CAF   D T 600       2.267   4.997  -8.808  1.00 45.69     0.002 A 
HETATM    3  CAG   D T 600       4.471   4.735 -10.480  1.00 45.75     0.017 A 
HETATM    4  CAH   D T 600       3.455   5.647  -8.495  1.00 45.50     0.017 A 
HETATM    5  CAK   D T 600       0.566   3.217 -11.545  1.00 35.53     0.102 A 
HETATM    6  CAL   D T 600      -2.966   1.650  -9.291  1.00 33.49     0.124 A 
HETATM    7  CAM   D T 600       0.135   3.246  -9.171  1.00 37.51     0.104 A 
HETATM    8  NAS   D T 600      -0.607   2.597 -11.746  1.00 41.55    -0.225 NA
HETATM    9  NAT   D T 600      -1.970   2.233  -8.613  1.00 34.74    -0.162 NA
HETATM   10  CAV   D T 600       2.171   4.209  -9.964  1.00 43.90     0.003 A 
HETATM   11  CAW   D T 600       0.960   3.566 -10.250  1.00 37.17     0.038 A 
HETATM   12  CAX   D T 600       4.553   5.525  -9.334  1.00 47.52     0.056 A 
HETATM   13  CAZ   D T 600      -2.673   1.662 -10.586  1.00 33.41     0.057 A 
HETATM   14  CBC   D T 600      -1.446   2.291 -10.715  1.00 37.64     0.165 A 
HETATM   15  NBE   D T 600      -1.087   2.606  -9.388  1.00 36.80    -0.211 N 
ENDROOT
BRANCH  13  16
HETATM   16  CAY   D T 600      -3.465   1.163 -11.627  1.00 35.53     0.007 A 
HETATM   17  CAD   D T 600      -4.330   2.040 -12.305  1.00 33.79     0.021 A 
HETATM   18  CAC   D T 600      -5.123   1.555 -13.338  1.00 29.73     0.099 A 
HETATM   19  NAR   D T 600      -5.076   0.277 -13.679  1.00 26.72    -0.244 NA
HETATM   20  CBA   D T 600      -4.267  -0.582 -13.058  1.00 26.75     0.081 A 
HETATM   21  CAI   D T 600      -4.248  -1.908 -13.464  1.00 28.72     0.019 A 
HETATM   22  CBB   D T 600      -3.441  -0.174 -12.024  1.00 30.35     0.018 A 
HETATM   23  CAA   D T 600      -3.416  -2.834 -12.856  1.00 24.81     0.002 A 
HETATM   24  CAB   D T 600      -2.599  -2.420 -11.832  1.00 24.46     0.000 A 
HETATM   25  CAJ   D T 600      -2.602  -1.098 -11.414  1.00 27.06     0.002 A 
ENDBRANCH  13  16
BRANCH  12  26
HETATM   26  NBD   D T 600       5.758   6.153  -8.978  1.00 50.24    -0.344 N 
HETATM   27  CAP   D T 600       6.993   5.321  -8.797  1.00 48.20     0.140 C 
HETATM   28  CAN   D T 600       8.061   5.768  -9.789  1.00 44.02     0.314 C 
HETATM   29  NAU   D T 600       8.170   7.237  -9.746  1.00 42.58     0.343 N 
HETATM   30  CAO   D T 600       6.886   7.875 -10.108  1.00 41.76     0.314 C 
HETATM   31  CAQ   D T 600       5.886   7.619  -8.997  1.00 40.50     0.140 C 
ENDBRANCH  12  26
TORSDOF 2
ENDMDL
MODEL 2
REMARK VINA RESULT:    -9.675      2.097     10.312
REMARK INTER + INTRA:         -11.310
REMARK INTER:                 -10.803
REMARK INTRA:                  -0.506
REMARK UNBOUND:                -0.504
REMARK  2 active torsions:
REMARK  status: ('A' for Active; 'I' for Inactive)
REMARK    1  A    between atoms: CAX_24  and  NBD_30 
REMARK    2  A    between atoms: CAY_25  and  CAZ_26 
ROOT
HETATM    1  CAE   D T 600      -1.134  -1.616 -10.832  1.00 46.04     0.002 A 
HETATM    2  CAF   D T 600      -2.717  -0.277 -12.076  1.00 45.69     0.002 A 
HETATM    3  CAG   D T 600      -1.855  -2.756 -11.161  1.00 45.75     0.017 A 
HETATM    4  CAH   D T 600      -3.425  -1.425 -12.413  1.00 45.50     0.017 A 
HETATM    5  CAK   D T 600      -0.092   0.951  -9.805  1.00 35.53     0.102 A 
HETATM    6  CAL   D T 600       0.533   5.014 -11.570  1.00 33.49     0.124 A 
HETATM    7  CAM   D T 600      -0.972   1.878 -11.852  1.00 37.51     0.104 A 
HETATM    8  NAS   D T 600       0.547   2.106  -9.563  1.00 41.55    -0.225 NA
HETATM    9  NAT   D T 600      -0.245   4.138 -12.218  1.00 34.74    -0.162 NA
HETATM   10  CAV   D T 600      -1.569  -0.360 -11.274  1.00 43.90     0.003 A 
HETATM   11  CAW   D T 600      -0.877   0.815 -10.954  1.00 37.17     0.038 A 
HETATM   12  CAX   D T 600      -3.001  -2.662 -11.950  1.00 47.52     0.056 A 
HETATM   13  CAZ   D T 600       0.987   4.450 -10.457  1.00 33.41     0.057 A 
HETATM   14  CBC   D T 600       0.457   3.171 -10.410  1.00 37.64     0.165 A 
HETATM   15  NBE   D T 600      -0.308   3.079 -11.591  1.00 36.80    -0.211 N 
ENDROOT
BRANCH  13  16
HETATM   16  CAY   D T 600       1.818   5.042  -9.498  1.00 35.53     0.007 A 
HETATM   17  CAD   D T 600       1.233   5.662  -8.380  1.00 33.79     0.021 A 
HETATM   18  CAC   D T 600       2.047   6.255  -7.424  1.00 29.73     0.099 A 
HETATM   19  NAR   D T 600       3.363   6.249  -7.563  1.00 26.72    -0.244 NA
HETATM   20  CBA   D T 600       3.952   5.670  -8.610  1.00 26.75     0.081 A 
HETATM   21  CAI   D T 600       5.336   5.682  -8.701  1.00 28.72     0.019 A 
HETATM   22  CBB   D T 600       3.209   5.051  -9.603  1.00 30.35     0.018 A 
HETATM   23  CAA   D T 600       5.991   5.084  -9.765  1.00 24.81     0.002 A 
HETATM   24  CAB   D T 600       5.246   4.471 -10.744  1.00 24.46     0.000 A 
HETATM   25  CAJ   D T 600       3.861   4.447 -10.669  1.00 27.06     0.002 A 
ENDBRANCH  13  16
BRANCH  12  26
HETATM   26  NBD   D T 600      -3.704  -3.815 -12.338  1.00 50.24    -0.344 N 
HETATM   27  CAP   D T 600      -4.538  -3.779 -13.585  1.00 48.20     0.140 C 
HETATM   28  CAN   D T 600      -4.019  -4.815 -14.576  1.00 44.02     0.314 C 
HETATM   29  NAU   D T 600      -3.828  -6.096 -13.874  1.00 42.58     0.343 N 
HETATM   30  CAO   D T 600      -2.850  -5.958 -12.775  1.00 41.76     0.314 C 
HETATM   31  CAQ   D T 600      -3.466  -5.108 -11.680  1.00 40.50     0.140 C 
ENDBRANCH  12  26
TORSDOF 2
ENDMDL
MODEL 3
REMARK VINA RESULT:    -9.589      1.251      2.126
REMARK INTER + INTRA:         -11.214
REMARK INTER:                 -10.688
REMARK INTRA:                  -0.527
REMARK UNBOUND:                -0.504
REMARK  2 active torsions:
REMARK  status: ('A' for Active; 'I' for Inactive)
REMARK    1  A    between atoms: CAX_24  and  NBD_30 
REMARK    2  A    between atoms: CAY_25  and  CAZ_26 
ROOT
HETATM    1  CAE   D T 600       2.218   4.961  -9.111  1.00 46.04     0.002 A 
HETATM    2  CAF   D T 600       3.227   4.291 -11.203  1.00 45.69     0.002 A 
HETATM    3  CAG   D T 600       3.449   5.441  -8.683  1.00 45.75     0.017 A 
HETATM    4  CAH   D T 600       4.452   4.787 -10.773  1.00 45.50     0.017 A 
HETATM    5  CAK   D T 600      -0.130   3.397  -9.987  1.00 35.53     0.102 A 
HETATM    6  CAL   D T 600      -2.153   2.708 -13.917  1.00 33.49     0.124 A 
HETATM    7  CAM   D T 600       0.675   3.845 -12.217  1.00 37.51     0.104 A 
HETATM    8  NAS   D T 600      -1.278   2.927 -10.501  1.00 41.55    -0.225 NA
HETATM    9  NAT   D T 600      -0.921   3.233 -13.904  1.00 34.74    -0.162 NA
HETATM   10  CAV   D T 600       2.099   4.365 -10.373  1.00 43.90     0.003 A 
HETATM   11  CAW   D T 600       0.879   3.858 -10.837  1.00 37.17     0.038 A 
HETATM   12  CAX   D T 600       4.566   5.353  -9.512  1.00 47.52     0.056 A 
HETATM   13  CAZ   D T 600      -2.542   2.485 -12.667  1.00 33.41     0.057 A 
HETATM   14  CBC   D T 600      -1.499   2.880 -11.846  1.00 37.64     0.165 A 
HETATM   15  NBE   D T 600      -0.520   3.349 -12.745  1.00 36.80    -0.211 N 
ENDROOT
BRANCH  13  16
HETATM   16  CAY   D T 600      -3.760   1.929 -12.257  1.00 35.53     0.007 A 
HETATM   17  CAD   D T 600      -4.867   2.775 -12.077  1.00 33.79     0.021 A 
HETATM   18  CAC   D T 600      -6.080   2.235 -11.667  1.00 29.73     0.099 A 
HETATM   19  NAR   D T 600      -6.196   0.936 -11.439  1.00 26.72    -0.244 NA
HETATM   20  CBA   D T 600      -5.166   0.105 -11.600  1.00 26.75     0.081 A 
HETATM   21  CAI   D T 600      -5.344  -1.249 -11.358  1.00 28.72     0.019 A 
HETATM   22  CBB   D T 600      -3.926   0.566 -12.012  1.00 30.35     0.018 A 
HETATM   23  CAA   D T 600      -4.306  -2.151 -11.523  1.00 24.81     0.002 A 
HETATM   24  CAB   D T 600      -3.081  -1.685 -11.934  1.00 24.46     0.000 A 
HETATM   25  CAJ   D T 600      -2.884  -0.336 -12.183  1.00 27.06     0.002 A 
ENDBRANCH  13  16
BRANCH  12  26
HETATM   26  NBD   D T 600       5.802   5.889  -9.113  1.00 50.24    -0.344 N 
HETATM   27  CAP   D T 600       7.013   5.003  -9.096  1.00 48.20     0.140 C 
HETATM   28  CAN   D T 600       8.064   5.557 -10.052  1.00 44.02     0.314 C 
HETATM   29  NAU   D T 600       8.224   7.001  -9.805  1.00 42.58     0.343 N 
HETATM   30  CAO   D T 600       6.953   7.721 -10.026  1.00 41.76     0.314 C 
HETATM   31  CAQ   D T 600       5.979   7.337  -8.928  1.00 40.50     0.140 C 
ENDBRANCH  12  26
TORSDOF 2
ENDMDL
MODEL 4
REMARK VINA RESULT:    -9.193      2.443     10.058
REMARK INTER + INTRA:         -10.772
REMARK INTER:                 -10.248
REMARK INTRA:                  -0.524
REMARK UNBOUND:                -0.504
REMARK  2 active torsions:
REMARK  status: ('A' for Active; 'I' for Inactive)
REMARK    1  A    between atoms: CAX_24  and  NBD_30 
REMARK    2  A    between atoms: CAY_25  and  CAZ_26 
ROOT
HETATM    1  CAE   D T 600      -0.320  -0.858 -10.813  1.00 46.04     0.002 A 
HETATM    2  CAF   D T 600      -2.388   0.239 -11.418  1.00 45.69     0.002 A 
HETATM    3  CAG   D T 600      -0.792  -2.036 -11.375  1.00 45.75     0.017 A 
HETATM    4  CAH   D T 600      -2.847  -0.941 -11.992  1.00 45.50     0.017 A 
HETATM    5  CAK   D T 600       0.244   1.558  -9.208  1.00 35.53     0.102 A 
HETATM    6  CAL   D T 600      -0.483   5.936  -9.766  1.00 33.49     0.124 A 
HETATM    7  CAM   D T 600      -1.208   2.675 -10.778  1.00 37.51     0.104 A 
HETATM    8  NAS   D T 600       0.619   2.748  -8.714  1.00 41.55    -0.225 NA
HETATM    9  NAT   D T 600      -1.134   5.065 -10.547  1.00 34.74    -0.162 NA
HETATM   10  CAV   D T 600      -1.123   0.290 -10.815  1.00 43.90     0.003 A 
HETATM   11  CAW   D T 600      -0.689   1.495 -10.247  1.00 37.17     0.038 A 
HETATM   12  CAX   D T 600      -2.055  -2.079 -11.963  1.00 47.52     0.056 A 
HETATM   13  CAZ   D T 600       0.298   5.265  -8.927  1.00 33.41     0.057 A 
HETATM   14  CBC   D T 600       0.113   3.920  -9.195  1.00 37.64     0.165 A 
HETATM   15  NBE   D T 600      -0.818   3.911 -10.255  1.00 36.80    -0.211 N 
ENDROOT
BRANCH  13  16
HETATM   16  CAY   D T 600       1.127   5.811  -7.940  1.00 35.53     0.007 A 
HETATM   17  CAD   D T 600       0.549   6.272  -6.744  1.00 33.79     0.021 A 
HETATM   18  CAC   D T 600       1.363   6.818  -5.758  1.00 29.73     0.099 A 
HETATM   19  NAR   D T 600       2.670   6.914  -5.942  1.00 26.72    -0.244 NA
HETATM   20  CBA   D T 600       3.251   6.488  -7.063  1.00 26.75     0.081 A 
HETATM   21  CAI   D T 600       4.626   6.602  -7.199  1.00 28.72     0.019 A 
HETATM   22  CBB   D T 600       2.509   5.925  -8.090  1.00 30.35     0.018 A 
HETATM   23  CAA   D T 600       5.275   6.162  -8.342  1.00 24.81     0.002 A 
HETATM   24  CAB   D T 600       4.531   5.604  -9.354  1.00 24.46     0.000 A 
HETATM   25  CAJ   D T 600       3.155   5.479  -9.235  1.00 27.06     0.002 A 
ENDBRANCH  13  16
BRANCH  12  26
HETATM   26  NBD   D T 600      -2.519  -3.250 -12.588  1.00 50.24    -0.344 N 
HETATM   27  CAP   D T 600      -1.545  -4.347 -12.903  1.00 48.20     0.140 C 
HETATM   28  CAN   D T 600      -1.950  -5.618 -12.165  1.00 44.02     0.314 C 
HETATM   29  NAU   D T 600      -3.391  -5.852 -12.369  1.00 42.58     0.343 N 
HETATM   30  CAO   D T 600      -4.191  -4.724 -11.850  1.00 41.76     0.314 C 
HETATM   31  CAQ   D T 600      -3.958  -3.514 -12.735  1.00 40.50     0.140 C 
ENDBRANCH  12  26
TORSDOF 2
ENDMDL
MODEL 5
REMARK VINA RESULT:    -9.153      3.131      4.499
REMARK INTER + INTRA:         -10.726
REMARK INTER:                 -10.213
REMARK INTRA:                  -0.514
REMARK UNBOUND:                -0.504
REMARK  2 active torsions:
REMARK  status: ('A' for Active; 'I' for Inactive)
REMARK    1  A    between atoms: CAX_24  and  NBD_30 
REMARK    2  A    between atoms: CAY_25  and  CAZ_26 
ROOT
HETATM    1  CAE   D T 600      -1.262   3.643  -7.739  1.00 46.04     0.002 A 
HETATM    2  CAF   D T 600      -0.400   4.348  -9.884  1.00 45.69     0.002 A 
HETATM    3  CAG   D T 600      -0.526   4.647  -7.124  1.00 45.75     0.017 A 
HETATM    4  CAH   D T 600       0.322   5.360  -9.263  1.00 45.50     0.017 A 
HETATM    5  CAK   D T 600      -2.284   1.267  -9.168  1.00 35.53     0.102 A 
HETATM    6  CAL   D T 600      -4.066   0.564 -13.211  1.00 33.49     0.124 A 
HETATM    7  CAM   D T 600      -2.280   2.702 -11.108  1.00 37.51     0.104 A 
HETATM    8  NAS   D T 600      -2.975   0.346  -9.857  1.00 41.55    -0.225 NA
HETATM    9  NAT   D T 600      -3.421   1.714 -12.976  1.00 34.74    -0.162 NA
HETATM   10  CAV   D T 600      -1.193   3.474  -9.127  1.00 43.90     0.003 A 
HETATM   11  CAW   D T 600      -1.911   2.466  -9.784  1.00 37.17     0.038 A 
HETATM   12  CAX   D T 600       0.268   5.504  -7.885  1.00 47.52     0.056 A 
HETATM   13  CAZ   D T 600      -4.036  -0.180 -12.112  1.00 33.41     0.057 A 
HETATM   14  CBC   D T 600      -3.332   0.538 -11.159  1.00 37.64     0.165 A 
HETATM   15  NBE   D T 600      -2.995   1.736 -11.821  1.00 36.80    -0.211 N 
ENDROOT
BRANCH  13  16
HETATM   16  CAY   D T 600      -4.583  -1.459 -11.953  1.00 35.53     0.007 A 
HETATM   17  CAD   D T 600      -5.943  -1.580 -11.617  1.00 33.79     0.021 A 
HETATM   18  CAC   D T 600      -6.496  -2.844 -11.454  1.00 29.73     0.099 A 
HETATM   19  NAR   D T 600      -5.753  -3.929 -11.605  1.00 26.72    -0.244 NA
HETATM   20  CBA   D T 600      -4.461  -3.851 -11.924  1.00 26.75     0.081 A 
HETATM   21  CAI   D T 600      -3.730  -5.020 -12.081  1.00 28.72     0.019 A 
HETATM   22  CBB   D T 600      -3.837  -2.628 -12.110  1.00 30.35     0.018 A 
HETATM   23  CAA   D T 600      -2.389  -4.987 -12.423  1.00 24.81     0.002 A 
HETATM   24  CAB   D T 600      -1.779  -3.770 -12.607  1.00 24.46     0.000 A 
HETATM   25  CAJ   D T 600      -2.493  -2.591 -12.456  1.00 27.06     0.002 A 
ENDBRANCH  13  16
BRANCH  12  26
HETATM   26  NBD   D T 600       0.970   6.561  -7.280  1.00 50.24    -0.344 N 
HETATM   27  CAP   D T 600       0.204   7.636  -6.568  1.00 48.20     0.140 C 
HETATM   28  CAN   D T 600       0.618   7.672  -5.100  1.00 44.02     0.314 C 
HETATM   29  NAU   D T 600       2.089   7.658  -5.016  1.00 42.58     0.343 N 
HETATM   30  CAO   D T 600       2.645   6.438  -5.639  1.00 41.76     0.314 C 
HETATM   31  CAQ   D T 600       2.434   6.518  -7.139  1.00 40.50     0.140 C 
ENDBRANCH  12  26
TORSDOF 2
ENDMDL
MODEL 6
REMARK VINA RESULT:    -9.022      1.902      3.018
REMARK INTER + INTRA:         -10.580
REMARK INTER:                 -10.055
REMARK INTRA:                  -0.525
REMARK UNBOUND:                -0.504
REMARK  2 active torsions:
REMARK  status: ('A' for Active; 'I' for Inactive)
REMARK    1  A    between atoms: CAX_24  and  NBD_30 
REMARK    2  A    between atoms: CAY_25  and  CAZ_26 
ROOT
HETATM    1  CAE   D T 600       0.762   5.126  -8.933  1.00 46.04     0.002 A 
HETATM    2  CAF   D T 600       2.213   4.175 -10.616  1.00 45.69     0.002 A 
HETATM    3  CAG   D T 600       1.878   5.561  -8.230  1.00 45.75     0.017 A 
HETATM    4  CAH   D T 600       3.325   4.627  -9.915  1.00 45.50     0.017 A 
HETATM    5  CAK   D T 600      -1.415   3.648 -10.277  1.00 35.53     0.102 A 
HETATM    6  CAL   D T 600      -2.399   2.701 -14.537  1.00 33.49     0.124 A 
HETATM    7  CAM   D T 600      -0.017   3.807 -12.238  1.00 37.51     0.104 A 
HETATM    8  NAS   D T 600      -2.428   3.209 -11.040  1.00 41.55    -0.225 NA
HETATM    9  NAT   D T 600      -1.169   3.137 -14.236  1.00 34.74    -0.162 NA
HETATM   10  CAV   D T 600       0.920   4.413 -10.128  1.00 43.90     0.003 A 
HETATM   11  CAW   D T 600      -0.180   3.947 -10.860  1.00 37.17     0.038 A 
HETATM   12  CAX   D T 600       3.159   5.310  -8.719  1.00 47.52     0.056 A 
HETATM   13  CAZ   D T 600      -3.119   2.636 -13.423  1.00 33.41     0.057 A 
HETATM   14  CBC   D T 600      -2.294   3.039 -12.387  1.00 37.64     0.165 A 
HETATM   15  NBE   D T 600      -1.075   3.344 -13.026  1.00 36.80    -0.211 N 
ENDROOT
BRANCH  13  16
HETATM   16  CAY   D T 600      -4.449   2.211 -13.311  1.00 35.53     0.007 A 
HETATM   17  CAD   D T 600      -5.479   3.159 -13.441  1.00 33.79     0.021 A 
HETATM   18  CAC   D T 600      -6.802   2.750 -13.330  1.00 29.73     0.099 A 
HETATM   19  NAR   D T 600      -7.096   1.481 -13.094  1.00 26.72    -0.244 NA
HETATM   20  CBA   D T 600      -6.145   0.556 -12.965  1.00 26.75     0.081 A 
HETATM   21  CAI   D T 600      -6.509  -0.761 -12.730  1.00 28.72     0.019 A 
HETATM   22  CBB   D T 600      -4.803   0.884 -13.070  1.00 30.35     0.018 A 
HETATM   23  CAA   D T 600      -5.556  -1.758 -12.601  1.00 24.81     0.002 A 
HETATM   24  CAB   D T 600      -4.227  -1.424 -12.708  1.00 24.46     0.000 A 
HETATM   25  CAJ   D T 600      -3.844  -0.113 -12.945  1.00 27.06     0.002 A 
ENDBRANCH  13  16
BRANCH  12  26
HETATM   26  NBD   D T 600       4.294   5.797  -8.047  1.00 50.24    -0.344 N 
HETATM   27  CAP   D T 600       4.124   6.472  -6.719  1.00 48.20     0.140 C 
HETATM   28  CAN   D T 600       4.894   5.701  -5.651  1.00 44.02     0.314 C 
HETATM   29  NAU   D T 600       6.252   5.420  -6.149  1.00 42.58     0.343 N 
HETATM   30  CAO   D T 600       6.208   4.609  -7.384  1.00 41.76     0.314 C 
HETATM   31  CAQ   D T 600       5.651   5.462  -8.507  1.00 40.50     0.140 C 
ENDBRANCH  12  26
TORSDOF 2
ENDMDL
MODEL 7
REMARK VINA RESULT:    -8.823      5.330     11.865
REMARK INTER + INTRA:         -10.358
REMARK INTER:                  -9.927
REMARK INTRA:                  -0.431
REMARK UNBOUND:                -0.504
REMARK  2 active torsions:
REMARK  status: ('A' for Active; 'I' for Inactive)
REMARK    1  A    between atoms: CAX_24  and  NBD_30 
REMARK    2  A    between atoms: CAY_25  and  CAZ_26 
ROOT
HETATM    1  CAE   D T 600      -7.767  -1.944 -12.162  1.00 46.04     0.002 A 
HETATM    2  CAF   D T 600      -7.782   0.415 -12.692  1.00 45.69     0.002 A 
HETATM    3  CAG   D T 600      -9.110  -2.020 -12.506  1.00 45.75     0.017 A 
HETATM    4  CAH   D T 600      -9.123   0.327 -13.049  1.00 45.50     0.017 A 
HETATM    5  CAK   D T 600      -5.111  -1.441 -10.969  1.00 35.53     0.102 A 
HETATM    6  CAL   D T 600      -1.631   1.158 -12.042  1.00 33.49     0.124 A 
HETATM    7  CAM   D T 600      -5.006   0.407 -12.517  1.00 37.51     0.104 A 
HETATM    8  NAS   D T 600      -3.810  -1.270 -10.684  1.00 41.55    -0.225 NA
HETATM    9  NAT   D T 600      -2.815   1.385 -12.624  1.00 34.74    -0.162 NA
HETATM   10  CAV   D T 600      -7.092  -0.718 -12.237  1.00 43.90     0.003 A 
HETATM   11  CAW   D T 600      -5.742  -0.597 -11.887  1.00 37.17     0.038 A 
HETATM   12  CAX   D T 600      -9.789  -0.886 -12.948  1.00 47.52     0.056 A 
HETATM   13  CAZ   D T 600      -1.750   0.133 -11.205  1.00 33.41     0.057 A 
HETATM   14  CBC   D T 600      -3.069  -0.284 -11.266  1.00 37.64     0.165 A 
HETATM   15  NBE   D T 600      -3.654   0.583 -12.212  1.00 36.80    -0.211 N 
ENDROOT
BRANCH  13  16
HETATM   16  CAY   D T 600      -0.743  -0.404 -10.393  1.00 35.53     0.007 A 
HETATM   17  CAD   D T 600      -0.271   0.351  -9.306  1.00 33.79     0.021 A 
HETATM   18  CAC   D T 600       0.730  -0.171  -8.495  1.00 29.73     0.099 A 
HETATM   19  NAR   D T 600       1.244  -1.365  -8.745  1.00 26.72    -0.244 NA
HETATM   20  CBA   D T 600       0.819  -2.108  -9.768  1.00 26.75     0.081 A 
HETATM   21  CAI   D T 600       1.384  -3.357  -9.977  1.00 28.72     0.019 A 
HETATM   22  CBB   D T 600      -0.180  -1.660 -10.617  1.00 30.35     0.018 A 
HETATM   23  CAA   D T 600       0.966  -4.168 -11.020  1.00 24.81     0.002 A 
HETATM   24  CAB   D T 600      -0.026  -3.717 -11.856  1.00 24.46     0.000 A 
HETATM   25  CAJ   D T 600      -0.604  -2.472 -11.661  1.00 27.06     0.002 A 
ENDBRANCH  13  16
BRANCH  12  26
HETATM   26  NBD   D T 600     -11.131  -0.964 -13.355  1.00 50.24    -0.344 N 
HETATM   27  CAP   D T 600     -11.953  -2.150 -12.946  1.00 48.20     0.140 C 
HETATM   28  CAN   D T 600     -13.139  -1.686 -12.107  1.00 44.02     0.314 C 
HETATM   29  NAU   D T 600     -13.795  -0.556 -12.788  1.00 42.58     0.343 N 
HETATM   30  CAO   D T 600     -12.860   0.576 -12.959  1.00 41.76     0.314 C 
HETATM   31  CAQ   D T 600     -11.805   0.186 -13.977  1.00 40.50     0.140 C 
ENDBRANCH  12  26
TORSDOF 2
ENDMDL
MODEL 8
REMARK VINA RESULT:    -8.729      5.514      8.793
REMARK INTER + INTRA:         -10.253
REMARK INTER:                 -10.062
REMARK INTRA:                  -0.191
REMARK UNBOUND:                -0.504
REMARK  2 active torsions:
REMARK  status: ('A' for Active; 'I' for Inactive)
REMARK    1  A    between atoms: CAX_24  and  NBD_30 
REMARK    2  A    between atoms: CAY_25  and  CAZ_26 
ROOT
HETATM    1  CAE   D T 600      -6.334   3.163  -8.881  1.00 46.04     0.002 A 
HETATM    2  CAF   D T 600      -4.308   4.420  -8.486  1.00 45.69     0.002 A 
HETATM    3  CAG   D T 600      -7.070   4.180  -8.287  1.00 45.75     0.017 A 
HETATM    4  CAH   D T 600      -5.052   5.441  -7.906  1.00 45.50     0.017 A 
HETATM    5  CAK   D T 600      -4.551   0.915  -9.586  1.00 35.53     0.102 A 
HETATM    6  CAL   D T 600      -0.639   0.567 -11.728  1.00 33.49     0.124 A 
HETATM    7  CAM   D T 600      -2.957   2.639 -10.142  1.00 37.51     0.104 A 
HETATM    8  NAS   D T 600      -3.756   0.001 -10.163  1.00 41.55    -0.225 NA
HETATM    9  NAT   D T 600      -1.043   1.772 -11.305  1.00 34.74    -0.162 NA
HETATM   10  CAV   D T 600      -4.940   3.267  -8.972  1.00 43.90     0.003 A 
HETATM   11  CAW   D T 600      -4.162   2.258  -9.553  1.00 37.17     0.038 A 
HETATM   12  CAX   D T 600      -6.429   5.318  -7.798  1.00 47.52     0.056 A 
HETATM   13  CAZ   D T 600      -1.553  -0.337 -11.395  1.00 33.41     0.057 A 
HETATM   14  CBC   D T 600      -2.561   0.338 -10.728  1.00 37.64     0.165 A 
HETATM   15  NBE   D T 600      -2.132   1.681 -10.737  1.00 36.80    -0.211 N 
ENDROOT
BRANCH  13  16
HETATM   16  CAY   D T 600      -1.496  -1.714 -11.644  1.00 35.53     0.007 A 
HETATM   17  CAD   D T 600      -2.492  -2.303 -12.442  1.00 33.79     0.021 A 
HETATM   18  CAC   D T 600      -2.447  -3.669 -12.694  1.00 29.73     0.099 A 
HETATM   19  NAR   D T 600      -1.483  -4.416 -12.181  1.00 26.72    -0.244 NA
HETATM   20  CBA   D T 600      -0.522  -3.890 -11.420  1.00 26.75     0.081 A 
HETATM   21  CAI   D T 600       0.472  -4.717 -10.918  1.00 28.72     0.019 A 
HETATM   22  CBB   D T 600      -0.494  -2.536 -11.130  1.00 30.35     0.018 A 
HETATM   23  CAA   D T 600       1.496  -4.213 -10.132  1.00 24.81     0.002 A 
HETATM   24  CAB   D T 600       1.517  -2.869  -9.851  1.00 24.46     0.000 A 
HETATM   25  CAJ   D T 600       0.533  -2.026 -10.346  1.00 27.06     0.002 A 
ENDBRANCH  13  16
BRANCH  12  26
HETATM   26  NBD   D T 600      -7.169   6.379  -7.249  1.00 50.24    -0.344 N 
HETATM   27  CAP   D T 600      -8.234   7.036  -8.077  1.00 48.20     0.140 C 
HETATM   28  CAN   D T 600      -9.585   6.882  -7.387  1.00 44.02     0.314 C 
HETATM   29  NAU   D T 600      -9.444   7.254  -5.968  1.00 42.58     0.343 N 
HETATM   30  CAO   D T 600      -8.460   6.387  -5.287  1.00 41.76     0.314 C 
HETATM   31  CAQ   D T 600      -7.077   6.710  -5.818  1.00 40.50     0.140 C 
ENDBRANCH  12  26
TORSDOF 2
ENDMDL
MODEL 9
REMARK VINA RESULT:    -8.181      6.374     11.797
REMARK INTER + INTRA:          -9.641
REMARK INTER:                  -9.124
REMARK INTRA:                  -0.517
REMARK UNBOUND:                -0.504
REMARK  2 active torsions:
REMARK  status: ('A' for Active; 'I' for Inactive)
REMARK    1  A    between atoms: CAX_24  and  NBD_30 
REMARK    2  A    between atoms: CAY_25  and  CAZ_26 
ROOT
HETATM    1  CAE   D T 600      -7.629   1.517 -13.136  1.00 46.04     0.002 A 
HETATM    2  CAF   D T 600      -8.800  -0.535 -13.648  1.00 45.69     0.002 A 
HETATM    3  CAG   D T 600      -8.784   2.234 -13.417  1.00 45.75     0.017 A 
HETATM    4  CAH   D T 600      -9.957   0.189 -13.913  1.00 45.50     0.017 A 
HETATM    5  CAK   D T 600      -5.177  -0.132 -13.134  1.00 35.53     0.102 A 
HETATM    6  CAL   D T 600      -4.184  -4.276 -11.772  1.00 33.49     0.124 A 
HETATM    7  CAM   D T 600      -6.661  -1.949 -12.570  1.00 37.51     0.104 A 
HETATM    8  NAS   D T 600      -4.122  -0.915 -12.862  1.00 41.55    -0.225 NA
HETATM    9  NAT   D T 600      -5.470  -3.928 -11.911  1.00 34.74    -0.162 NA
HETATM   10  CAV   D T 600      -7.622   0.122 -13.265  1.00 43.90     0.003 A 
HETATM   11  CAW   D T 600      -6.474  -0.637 -13.004  1.00 37.17     0.038 A 
HETATM   12  CAX   D T 600      -9.947   1.572 -13.807  1.00 47.52     0.056 A 
HETATM   13  CAZ   D T 600      -3.419  -3.239 -12.094  1.00 33.41     0.057 A 
HETATM   14  CBC   D T 600      -4.270  -2.209 -12.458  1.00 37.64     0.165 A 
HETATM   15  NBE   D T 600      -5.557  -2.761 -12.294  1.00 36.80    -0.211 N 
ENDROOT
BRANCH  13  16
HETATM   16  CAY   D T 600      -2.019  -3.202 -12.095  1.00 35.53     0.007 A 
HETATM   17  CAD   D T 600      -1.323  -3.854 -13.127  1.00 33.79     0.021 A 
HETATM   18  CAC   D T 600       0.067  -3.827 -13.137  1.00 29.73     0.099 A 
HETATM   19  NAR   D T 600       0.734  -3.201 -12.181  1.00 26.72    -0.244 NA
HETATM   20  CBA   D T 600       0.105  -2.572 -11.187  1.00 26.75     0.081 A 
HETATM   21  CAI   D T 600       0.853  -1.922 -10.217  1.00 28.72     0.019 A 
HETATM   22  CBB   D T 600      -1.278  -2.548 -11.111  1.00 30.35     0.018 A 
HETATM   23  CAA   D T 600       0.243  -1.246  -9.173  1.00 24.81     0.002 A 
HETATM   24  CAB   D T 600      -1.129  -1.227  -9.107  1.00 24.46     0.000 A 
HETATM   25  CAJ   D T 600      -1.894  -1.869 -10.068  1.00 27.06     0.002 A 
ENDBRANCH  13  16
BRANCH  12  26
HETATM   26  NBD   D T 600     -11.138   2.283 -14.036  1.00 50.24    -0.344 N 
HETATM   27  CAP   D T 600     -12.370   1.533 -14.448  1.00 48.20     0.140 C 
HETATM   28  CAN   D T 600     -13.466   1.741 -13.408  1.00 44.02     0.314 C 
HETATM   29  NAU   D T 600     -13.567   3.179 -13.099  1.00 42.58     0.343 N 
HETATM   30  CAO   D T 600     -12.292   3.695 -12.557  1.00 41.76     0.314 C 
HETATM   31  CAQ   D T 600     -11.259   3.702 -13.667  1.00 40.50     0.140 C 
ENDBRANCH  12  26
TORSDOF 2
ENDMDL
