MODEL 1
REMARK VINA RESULT:   -10.748      0.000      0.000
REMARK INTER + INTRA:         -12.540
REMARK INTER:                 -12.005
REMARK INTRA:                  -0.536
REMARK UNBOUND:                -0.536
REMARK  2 active torsions:
REMARK  status: ('A' for Active; 'I' for Inactive)
REMARK    1  A    between atoms: CAX_24  and  NBD_30 
REMARK    2  A    between atoms: CAY_25  and  CAZ_26 
ROOT
HETATM    1  CAE   D T 600      -4.595  -3.809  10.113  1.00 46.04     0.002 A 
HETATM    2  CAF   D T 600      -2.865  -2.632  11.322  1.00 45.69     0.002 A 
HETATM    3  CAG   D T 600      -5.226  -2.600   9.856  1.00 45.75     0.017 A 
HETATM    4  CAH   D T 600      -3.494  -1.423  11.048  1.00 45.50     0.017 A 
HETATM    5  CAK   D T 600      -3.409  -6.272  11.233  1.00 35.53     0.102 A 
HETATM    6  CAL   D T 600       0.766  -7.637  12.083  1.00 33.49     0.124 A 
HETATM    7  CAM   D T 600      -1.374  -4.980  11.344  1.00 37.51     0.104 A 
HETATM    8  NAS   D T 600      -2.712  -7.384  11.513  1.00 41.55    -0.225 NA
HETATM    9  NAT   D T 600       0.542  -6.338  11.851  1.00 34.74    -0.162 NA
HETATM   10  CAV   D T 600      -3.413  -3.838  10.863  1.00 43.90     0.003 A 
HETATM   11  CAW   D T 600      -2.754  -5.039  11.154  1.00 37.17     0.038 A 
HETATM   12  CAX   D T 600      -4.677  -1.407  10.324  1.00 47.52     0.056 A 
HETATM   13  CAZ   D T 600      -0.385  -8.294  12.007  1.00 33.41     0.057 A 
HETATM   14  CBC   D T 600      -1.365  -7.357  11.728  1.00 37.64     0.165 A 
HETATM   15  NBE   D T 600      -0.656  -6.142  11.640  1.00 36.80    -0.211 N 
ENDROOT
BRANCH  13  16
HETATM   16  CAY   D T 600      -0.579  -9.667  12.203  1.00 35.53     0.007 A 
HETATM   17  CAD   D T 600      -0.395 -10.542  11.119  1.00 33.79     0.021 A 
HETATM   18  CAC   D T 600      -0.588 -11.906  11.302  1.00 29.73     0.099 A 
HETATM   19  NAR   D T 600      -0.950 -12.383  12.481  1.00 26.72    -0.244 NA
HETATM   20  CBA   D T 600      -1.133 -11.582  13.532  1.00 26.75     0.081 A 
HETATM   21  CAI   D T 600      -1.501 -12.135  14.749  1.00 28.72     0.019 A 
HETATM   22  CBB   D T 600      -0.953 -10.212  13.432  1.00 30.35     0.018 A 
HETATM   23  CAA   D T 600      -1.689 -11.343  15.869  1.00 24.81     0.002 A 
HETATM   24  CAB   D T 600      -1.509  -9.985  15.761  1.00 24.46     0.000 A 
HETATM   25  CAJ   D T 600      -1.138  -9.415  14.553  1.00 27.06     0.002 A 
ENDBRANCH  13  16
BRANCH  12  26
HETATM   26  NBD   D T 600      -5.275  -0.172  10.021  1.00 50.24    -0.344 N 
HETATM   27  CAP   D T 600      -4.925   1.033  10.845  1.00 48.20     0.140 C 
HETATM   28  CAN   D T 600      -4.299   2.099   9.951  1.00 44.02     0.314 C 
HETATM   29  NAU   D T 600      -5.133   2.266   8.748  1.00 42.58     0.343 N 
HETATM   30  CAO   D T 600      -5.228   1.003   7.989  1.00 41.76     0.314 C 
HETATM   31  CAQ   D T 600      -6.054   0.014   8.787  1.00 40.50     0.140 C 
ENDBRANCH  12  26
TORSDOF 2
ENDMDL
MODEL 2
REMARK VINA RESULT:   -10.626      1.916     10.648
REMARK INTER + INTRA:         -12.404
REMARK INTER:                 -13.219
REMARK INTRA:                   0.816
REMARK UNBOUND:                -0.536
REMARK  2 active torsions:
REMARK  status: ('A' for Active; 'I' for Inactive)
REMARK    1  A    between atoms: CAX_24  and  NBD_30 
REMARK    2  A    between atoms: CAY_25  and  CAZ_26 
ROOT
HETATM    1  CAE   D T 600      -1.231  -7.461  12.407  1.00 46.04     0.002 A 
HETATM    2  CAF   D T 600      -3.614  -7.871  12.401  1.00 45.69     0.002 A 
HETATM    3  CAG   D T 600      -1.019  -8.758  12.854  1.00 45.75     0.017 A 
HETATM    4  CAH   D T 600      -3.392  -9.172  12.834  1.00 45.50     0.017 A 
HETATM    5  CAK   D T 600      -1.932  -4.620  12.001  1.00 35.53     0.102 A 
HETATM    6  CAL   D T 600      -5.084  -2.469   9.665  1.00 33.49     0.124 A 
HETATM    7  CAM   D T 600      -3.953  -5.487  11.008  1.00 37.51     0.104 A 
HETATM    8  NAS   D T 600      -2.239  -3.396  11.546  1.00 41.55    -0.225 NA
HETATM    9  NAT   D T 600      -5.221  -3.782   9.885  1.00 34.74    -0.162 NA
HETATM   10  CAV   D T 600      -2.535  -6.999  12.190  1.00 43.90     0.003 A 
HETATM   11  CAW   D T 600      -2.791  -5.694  11.751  1.00 37.17     0.038 A 
HETATM   12  CAX   D T 600      -2.098  -9.613  13.070  1.00 47.52     0.056 A 
HETATM   13  CAZ   D T 600      -3.958  -2.052  10.231  1.00 33.41     0.057 A 
HETATM   14  CBC   D T 600      -3.380  -3.155  10.837  1.00 37.64     0.165 A 
HETATM   15  NBE   D T 600      -4.270  -4.208  10.542  1.00 36.80    -0.211 N 
ENDROOT
BRANCH  13  16
HETATM   16  CAY   D T 600      -3.463  -0.742  10.242  1.00 35.53     0.007 A 
HETATM   17  CAD   D T 600      -2.312  -0.456  10.995  1.00 33.79     0.021 A 
HETATM   18  CAC   D T 600      -1.814   0.842  11.016  1.00 29.73     0.099 A 
HETATM   19  NAR   D T 600      -2.419   1.806  10.342  1.00 26.72    -0.244 NA
HETATM   20  CBA   D T 600      -3.514   1.570   9.618  1.00 26.75     0.081 A 
HETATM   21  CAI   D T 600      -4.103   2.615   8.921  1.00 28.72     0.019 A 
HETATM   22  CBB   D T 600      -4.067   0.302   9.540  1.00 30.35     0.018 A 
HETATM   23  CAA   D T 600      -5.232   2.413   8.146  1.00 24.81     0.002 A 
HETATM   24  CAB   D T 600      -5.774   1.153   8.075  1.00 24.46     0.000 A 
HETATM   25  CAJ   D T 600      -5.197   0.095   8.762  1.00 27.06     0.002 A 
ENDBRANCH  13  16
BRANCH  12  26
HETATM   26  NBD   D T 600      -1.893 -10.946  13.467  1.00 50.24    -0.344 N 
HETATM   27  CAP   D T 600      -2.997 -11.679  14.170  1.00 48.20     0.140 C 
HETATM   28  CAN   D T 600      -3.406 -12.897  13.348  1.00 44.02     0.314 C 
HETATM   29  NAU   D T 600      -2.194 -13.633  12.946  1.00 42.58     0.343 N 
HETATM   30  CAO   D T 600      -1.304 -12.783  12.129  1.00 41.76     0.314 C 
HETATM   31  CAQ   D T 600      -0.715 -11.701  13.012  1.00 40.50     0.140 C 
ENDBRANCH  12  26
TORSDOF 2
ENDMDL
MODEL 3
REMARK VINA RESULT:   -10.059      1.320      2.133
REMARK INTER + INTRA:         -11.771
REMARK INTER:                 -11.274
REMARK INTRA:                  -0.497
REMARK UNBOUND:                -0.536
REMARK  2 active torsions:
REMARK  status: ('A' for Active; 'I' for Inactive)
REMARK    1  A    between atoms: CAX_24  and  NBD_30 
REMARK    2  A    between atoms: CAY_25  and  CAZ_26 
ROOT
HETATM    1  CAE   D T 600      -2.683  -2.591  11.079  1.00 46.04     0.002 A 
HETATM    2  CAF   D T 600      -4.729  -3.680  10.393  1.00 45.69     0.002 A 
HETATM    3  CAG   D T 600      -3.213  -1.369  10.687  1.00 45.75     0.017 A 
HETATM    4  CAH   D T 600      -5.258  -2.452  10.016  1.00 45.50     0.017 A 
HETATM    5  CAK   D T 600      -1.563  -5.314  11.323  1.00 35.53     0.102 A 
HETATM    6  CAL   D T 600      -3.172  -9.256  12.697  1.00 33.49     0.124 A 
HETATM    7  CAM   D T 600      -3.853  -5.988  11.676  1.00 37.51     0.104 A 
HETATM    8  NAS   D T 600      -1.151  -6.536  11.694  1.00 41.55    -0.225 NA
HETATM    9  NAT   D T 600      -4.028  -8.265  12.422  1.00 34.74    -0.162 NA
HETATM   10  CAV   D T 600      -3.432  -3.763  10.922  1.00 43.90     0.003 A 
HETATM   11  CAW   D T 600      -2.929  -5.016  11.295  1.00 37.17     0.038 A 
HETATM   12  CAX   D T 600      -4.499  -1.299  10.153  1.00 47.52     0.056 A 
HETATM   13  CAZ   D T 600      -1.933  -8.827  12.486  1.00 33.41     0.057 A 
HETATM   14  CBC   D T 600      -2.031  -7.517  12.050  1.00 37.64     0.165 A 
HETATM   15  NBE   D T 600      -3.417  -7.260  12.056  1.00 36.80    -0.211 N 
ENDROOT
BRANCH  13  16
HETATM   16  CAY   D T 600      -0.754  -9.566  12.643  1.00 35.53     0.007 A 
HETATM   17  CAD   D T 600      -0.189 -10.193  11.519  1.00 33.79     0.021 A 
HETATM   18  CAC   D T 600       0.979 -10.932  11.664  1.00 29.73     0.099 A 
HETATM   19  NAR   D T 600       1.555 -11.056  12.848  1.00 26.72    -0.244 NA
HETATM   20  CBA   D T 600       1.046 -10.475  13.936  1.00 26.75     0.081 A 
HETATM   21  CAI   D T 600       1.696 -10.627  15.152  1.00 28.72     0.019 A 
HETATM   22  CBB   D T 600      -0.111  -9.716  13.873  1.00 30.35     0.018 A 
HETATM   23  CAA   D T 600       1.211 -10.031  16.303  1.00 24.81     0.002 A 
HETATM   24  CAB   D T 600       0.063  -9.281  16.232  1.00 24.46     0.000 A 
HETATM   25  CAJ   D T 600      -0.599  -9.115  15.024  1.00 27.06     0.002 A 
ENDBRANCH  13  16
BRANCH  12  26
HETATM   26  NBD   D T 600      -5.067  -0.062   9.806  1.00 50.24    -0.344 N 
HETATM   27  CAP   D T 600      -4.802   1.135  10.671  1.00 48.20     0.140 C 
HETATM   28  CAN   D T 600      -4.095   2.211   9.853  1.00 44.02     0.314 C 
HETATM   29  NAU   D T 600      -4.809   2.389   8.576  1.00 42.58     0.343 N 
HETATM   30  CAO   D T 600      -4.827   1.132   7.799  1.00 41.76     0.314 C 
HETATM   31  CAQ   D T 600      -5.724   0.134   8.504  1.00 40.50     0.140 C 
ENDBRANCH  12  26
TORSDOF 2
ENDMDL
MODEL 4
REMARK VINA RESULT:    -9.986      5.996      9.176
REMARK INTER + INTRA:         -11.689
REMARK INTER:                 -11.674
REMARK INTRA:                  -0.015
REMARK UNBOUND:                -0.536
REMARK  2 active torsions:
REMARK  status: ('A' for Active; 'I' for Inactive)
REMARK    1  A    between atoms: CAX_24  and  NBD_30 
REMARK    2  A    between atoms: CAY_25  and  CAZ_26 
ROOT
HETATM    1  CAE   D T 600       2.457   0.871  10.736  1.00 46.04     0.002 A 
HETATM    2  CAF   D T 600       1.307   2.997  10.687  1.00 45.69     0.002 A 
HETATM    3  CAG   D T 600       3.671   1.541  10.818  1.00 45.75     0.017 A 
HETATM    4  CAH   D T 600       2.524   3.660  10.785  1.00 45.50     0.017 A 
HETATM    5  CAK   D T 600      -0.147  -0.316  10.005  1.00 35.53     0.102 A 
HETATM    6  CAL   D T 600      -4.401   0.532  11.103  1.00 33.49     0.124 A 
HETATM    7  CAM   D T 600      -1.088   1.634  11.069  1.00 37.51     0.104 A 
HETATM    8  NAS   D T 600      -1.368  -0.869   9.949  1.00 41.55    -0.225 NA
HETATM    9  NAT   D T 600      -3.465   1.450  11.372  1.00 34.74    -0.162 NA
HETATM   10  CAV   D T 600       1.261   1.595  10.654  1.00 43.90     0.003 A 
HETATM   11  CAW   D T 600       0.018   0.957  10.558  1.00 37.17     0.038 A 
HETATM   12  CAX   D T 600       3.705   2.934  10.841  1.00 47.52     0.056 A 
HETATM   13  CAZ   D T 600      -3.825  -0.514  10.523  1.00 33.41     0.057 A 
HETATM   14  CBC   D T 600      -2.476  -0.223  10.418  1.00 37.64     0.165 A 
HETATM   15  NBE   D T 600      -2.358   1.055  11.002  1.00 36.80    -0.211 N 
ENDROOT
BRANCH  13  16
HETATM   16  CAY   D T 600      -4.463  -1.676  10.072  1.00 35.53     0.007 A 
HETATM   17  CAD   D T 600      -5.517  -1.560   9.151  1.00 33.79     0.021 A 
HETATM   18  CAC   D T 600      -6.160  -2.707   8.700  1.00 29.73     0.099 A 
HETATM   19  NAR   D T 600      -5.793  -3.901   9.136  1.00 26.72    -0.244 NA
HETATM   20  CBA   D T 600      -4.796  -4.048  10.011  1.00 26.75     0.081 A 
HETATM   21  CAI   D T 600      -4.444  -5.323  10.428  1.00 28.72     0.019 A 
HETATM   22  CBB   D T 600      -4.102  -2.954  10.502  1.00 30.35     0.018 A 
HETATM   23  CAA   D T 600      -3.408  -5.523  11.324  1.00 24.81     0.002 A 
HETATM   24  CAB   D T 600      -2.725  -4.433  11.806  1.00 24.46     0.000 A 
HETATM   25  CAJ   D T 600      -3.061  -3.151  11.398  1.00 27.06     0.002 A 
ENDBRANCH  13  16
BRANCH  12  26
HETATM   26  NBD   D T 600       4.923   3.622  10.982  1.00 50.24    -0.344 N 
HETATM   27  CAP   D T 600       6.047   2.974  11.734  1.00 48.20     0.140 C 
HETATM   28  CAN   D T 600       7.249   2.801  10.810  1.00 44.02     0.314 C 
HETATM   29  NAU   D T 600       7.493   4.069  10.100  1.00 42.58     0.343 N 
HETATM   30  CAO   D T 600       6.320   4.459   9.290  1.00 41.76     0.314 C 
HETATM   31  CAQ   D T 600       5.192   4.853  10.223  1.00 40.50     0.140 C 
ENDBRANCH  12  26
TORSDOF 2
ENDMDL
MODEL 5
REMARK VINA RESULT:    -9.926      6.971     10.414
REMARK INTER + INTRA:         -11.622
REMARK INTER:                 -11.085
REMARK INTRA:                  -0.537
REMARK UNBOUND:                -0.536
REMARK  2 active torsions:
REMARK  status: ('A' for Active; 'I' for Inactive)
REMARK    1  A    between atoms: CAX_24  and  NBD_30 
REMARK    2  A    between atoms: CAY_25  and  CAZ_26 
ROOT
HETATM    1  CAE   D T 600       3.485   1.183   8.723  1.00 46.04     0.002 A 
HETATM    2  CAF   D T 600       2.935   3.253   9.845  1.00 45.69     0.002 A 
HETATM    3  CAG   D T 600       4.791   1.626   8.567  1.00 45.75     0.017 A 
HETATM    4  CAH   D T 600       4.248   3.683   9.698  1.00 45.50     0.017 A 
HETATM    5  CAK   D T 600       0.573   0.685   8.668  1.00 35.53     0.102 A 
HETATM    6  CAL   D T 600      -2.796   1.462  11.507  1.00 33.49     0.124 A 
HETATM    7  CAM   D T 600       0.512   2.119  10.608  1.00 37.51     0.104 A 
HETATM    8  NAS   D T 600      -0.704   0.339   8.890  1.00 41.55    -0.225 NA
HETATM    9  NAT   D T 600      -1.627   2.083  11.701  1.00 34.74    -0.162 NA
HETATM   10  CAV   D T 600       2.538   2.001   9.353  1.00 43.90     0.003 A 
HETATM   11  CAW   D T 600       1.208   1.595   9.519  1.00 37.17     0.038 A 
HETATM   12  CAX   D T 600       5.173   2.876   9.052  1.00 47.52     0.056 A 
HETATM   13  CAZ   D T 600      -2.701   0.689  10.432  1.00 33.41     0.057 A 
HETATM   14  CBC   D T 600      -1.420   0.851   9.933  1.00 37.64     0.165 A 
HETATM   15  NBE   D T 600      -0.820   1.758  10.830  1.00 36.80    -0.211 N 
ENDROOT
BRANCH  13  16
HETATM   16  CAY   D T 600      -3.712  -0.111   9.886  1.00 35.53     0.007 A 
HETATM   17  CAD   D T 600      -4.609   0.458   8.967  1.00 33.79     0.021 A 
HETATM   18  CAC   D T 600      -5.619  -0.326   8.421  1.00 29.73     0.099 A 
HETATM   19  NAR   D T 600      -5.744  -1.597   8.766  1.00 26.72    -0.244 NA
HETATM   20  CBA   D T 600      -4.910  -2.171   9.635  1.00 26.75     0.081 A 
HETATM   21  CAI   D T 600      -5.079  -3.510   9.953  1.00 28.72     0.019 A 
HETATM   22  CBB   D T 600      -3.875  -1.457  10.216  1.00 30.35     0.018 A 
HETATM   23  CAA   D T 600      -4.230  -4.149  10.839  1.00 24.81     0.002 A 
HETATM   24  CAB   D T 600      -3.206  -3.434  11.412  1.00 24.46     0.000 A 
HETATM   25  CAJ   D T 600      -3.019  -2.095  11.104  1.00 27.06     0.002 A 
ENDBRANCH  13  16
BRANCH  12  26
HETATM   26  NBD   D T 600       6.506   3.310   8.950  1.00 50.24    -0.344 N 
HETATM   27  CAP   D T 600       7.606   2.293   8.902  1.00 48.20     0.140 C 
HETATM   28  CAN   D T 600       8.373   2.430   7.590  1.00 44.02     0.314 C 
HETATM   29  NAU   D T 600       8.695   3.851   7.369  1.00 42.58     0.343 N 
HETATM   30  CAO   D T 600       7.466   4.667   7.292  1.00 41.76     0.314 C 
HETATM   31  CAQ   D T 600       6.826   4.718   8.665  1.00 40.50     0.140 C 
ENDBRANCH  12  26
TORSDOF 2
ENDMDL
MODEL 6
REMARK VINA RESULT:    -9.572      7.447     11.265
REMARK INTER + INTRA:         -11.226
REMARK INTER:                 -10.860
REMARK INTRA:                  -0.366
REMARK UNBOUND:                -0.536
REMARK  2 active torsions:
REMARK  status: ('A' for Active; 'I' for Inactive)
REMARK    1  A    between atoms: CAX_24  and  NBD_30 
REMARK    2  A    between atoms: CAY_25  and  CAZ_26 
ROOT
HETATM    1  CAE   D T 600       4.559  -0.145   8.511  1.00 46.04     0.002 A 
HETATM    2  CAF   D T 600       4.260   2.227   8.870  1.00 45.69     0.002 A 
HETATM    3  CAG   D T 600       5.871   0.088   8.124  1.00 45.75     0.017 A 
HETATM    4  CAH   D T 600       5.580   2.451   8.495  1.00 45.50     0.017 A 
HETATM    5  CAK   D T 600       1.628  -0.346   8.825  1.00 35.53     0.102 A 
HETATM    6  CAL   D T 600      -1.395   1.681  11.427  1.00 33.49     0.124 A 
HETATM    7  CAM   D T 600       1.850   1.666  10.139  1.00 37.51     0.104 A 
HETATM    8  NAS   D T 600       0.357  -0.470   9.238  1.00 41.55    -0.225 NA
HETATM    9  NAT   D T 600      -0.173   2.215  11.313  1.00 34.74    -0.162 NA
HETATM   10  CAV   D T 600       3.734   0.927   8.874  1.00 43.90     0.003 A 
HETATM   11  CAW   D T 600       2.401   0.734   9.260  1.00 37.17     0.038 A 
HETATM   12  CAX   D T 600       6.382   1.385   8.114  1.00 47.52     0.056 A 
HETATM   13  CAZ   D T 600      -1.456   0.581  10.686  1.00 33.41     0.057 A 
HETATM   14  CBC   D T 600      -0.220   0.437  10.080  1.00 37.64     0.165 A 
HETATM   15  NBE   D T 600       0.524   1.533  10.560  1.00 36.80    -0.211 N 
ENDROOT
BRANCH  13  16
HETATM   16  CAY   D T 600      -2.566  -0.257  10.523  1.00 35.53     0.007 A 
HETATM   17  CAD   D T 600      -2.546  -1.535  11.107  1.00 33.79     0.021 A 
HETATM   18  CAC   D T 600      -3.641  -2.376  10.948  1.00 29.73     0.099 A 
HETATM   19  NAR   D T 600      -4.693  -1.986  10.248  1.00 26.72    -0.244 NA
HETATM   20  CBA   D T 600      -4.746  -0.781   9.680  1.00 26.75     0.081 A 
HETATM   21  CAI   D T 600      -5.878  -0.417   8.966  1.00 28.72     0.019 A 
HETATM   22  CBB   D T 600      -3.698   0.118   9.798  1.00 30.35     0.018 A 
HETATM   23  CAA   D T 600      -5.982   0.828   8.371  1.00 24.81     0.002 A 
HETATM   24  CAB   D T 600      -4.938   1.713   8.493  1.00 24.46     0.000 A 
HETATM   25  CAJ   D T 600      -3.799   1.369   9.206  1.00 27.06     0.002 A 
ENDBRANCH  13  16
BRANCH  12  26
HETATM   26  NBD   D T 600       7.725   1.628   7.779  1.00 50.24    -0.344 N 
HETATM   27  CAP   D T 600       8.318   2.977   8.059  1.00 48.20     0.140 C 
HETATM   28  CAN   D T 600       9.489   2.831   9.026  1.00 44.02     0.314 C 
HETATM   29  NAU   D T 600      10.364   1.742   8.558  1.00 42.58     0.343 N 
HETATM   30  CAO   D T 600       9.632   0.461   8.498  1.00 41.76     0.314 C 
HETATM   31  CAQ   D T 600       8.617   0.530   7.373  1.00 40.50     0.140 C 
ENDBRANCH  12  26
TORSDOF 2
ENDMDL
MODEL 7
REMARK VINA RESULT:    -9.287      6.624      9.644
REMARK INTER + INTRA:         -10.908
REMARK INTER:                 -10.877
REMARK INTRA:                  -0.031
REMARK UNBOUND:                -0.536
REMARK  2 active torsions:
REMARK  status: ('A' for Active; 'I' for Inactive)
REMARK    1  A    between atoms: CAX_24  and  NBD_30 
REMARK    2  A    between atoms: CAY_25  and  CAZ_26 
ROOT
HETATM    1  CAE   D T 600       2.893   1.548   8.642  1.00 46.04     0.002 A 
HETATM    2  CAF   D T 600       3.095   1.949  11.018  1.00 45.69     0.002 A 
HETATM    3  CAG   D T 600       3.981   2.381   8.419  1.00 45.75     0.017 A 
HETATM    4  CAH   D T 600       4.192   2.770  10.788  1.00 45.50     0.017 A 
HETATM    5  CAK   D T 600       0.302   0.285   9.290  1.00 35.53     0.102 A 
HETATM    6  CAL   D T 600      -1.191  -2.271  12.644  1.00 33.49     0.124 A 
HETATM    7  CAM   D T 600       1.288  -0.121  11.454  1.00 37.51     0.104 A 
HETATM    8  NAS   D T 600      -0.722  -0.520   9.611  1.00 41.55    -0.225 NA
HETATM    9  NAT   D T 600      -0.040  -1.606  12.797  1.00 34.74    -0.162 NA
HETATM   10  CAV   D T 600       2.429   1.335   9.946  1.00 43.90     0.003 A 
HETATM   11  CAW   D T 600       1.328   0.512  10.212  1.00 37.17     0.038 A 
HETATM   12  CAX   D T 600       4.629   2.994   9.490  1.00 47.52     0.056 A 
HETATM   13  CAZ   D T 600      -1.684  -2.010  11.439  1.00 33.41     0.057 A 
HETATM   14  CBC   D T 600      -0.803  -1.136  10.826  1.00 37.64     0.165 A 
HETATM   15  NBE   D T 600       0.216  -0.954  11.783  1.00 36.80    -0.211 N 
ENDROOT
BRANCH  13  16
HETATM   16  CAY   D T 600      -2.881  -2.499  10.901  1.00 35.53     0.007 A 
HETATM   17  CAD   D T 600      -3.063  -3.889  10.799  1.00 33.79     0.021 A 
HETATM   18  CAC   D T 600      -4.246  -4.385  10.264  1.00 29.73     0.099 A 
HETATM   19  NAR   D T 600      -5.193  -3.562   9.844  1.00 26.72    -0.244 NA
HETATM   20  CBA   D T 600      -5.053  -2.237   9.926  1.00 26.75     0.081 A 
HETATM   21  CAI   D T 600      -6.081  -1.419   9.482  1.00 28.72     0.019 A 
HETATM   22  CBB   D T 600      -3.907  -1.666  10.454  1.00 30.35     0.018 A 
HETATM   23  CAA   D T 600      -5.984  -0.041   9.559  1.00 24.81     0.002 A 
HETATM   24  CAB   D T 600      -4.844   0.518  10.084  1.00 24.46     0.000 A 
HETATM   25  CAJ   D T 600      -3.807  -0.284  10.536  1.00 27.06     0.002 A 
ENDBRANCH  13  16
BRANCH  12  26
HETATM   26  NBD   D T 600       5.766   3.793   9.282  1.00 50.24    -0.344 N 
HETATM   27  CAP   D T 600       7.106   3.135   9.133  1.00 48.20     0.140 C 
HETATM   28  CAN   D T 600       7.690   3.467   7.763  1.00 44.02     0.314 C 
HETATM   29  NAU   D T 600       7.568   4.916   7.528  1.00 42.58     0.343 N 
HETATM   30  CAO   D T 600       6.154   5.343   7.561  1.00 41.76     0.314 C 
HETATM   31  CAQ   D T 600       5.642   5.228   8.983  1.00 40.50     0.140 C 
ENDBRANCH  12  26
TORSDOF 2
ENDMDL
MODEL 8
REMARK VINA RESULT:    -9.128      6.972     11.258
REMARK INTER + INTRA:         -10.731
REMARK INTER:                 -10.269
REMARK INTRA:                  -0.462
REMARK UNBOUND:                -0.536
REMARK  2 active torsions:
REMARK  status: ('A' for Active; 'I' for Inactive)
REMARK    1  A    between atoms: CAX_24  and  NBD_30 
REMARK    2  A    between atoms: CAY_25  and  CAZ_26 
ROOT
HETATM    1  CAE   D T 600       3.178  -2.388   9.497  1.00 46.04     0.002 A 
HETATM    2  CAF   D T 600       4.066  -0.537  10.774  1.00 45.69     0.002 A 
HETATM    3  CAG   D T 600       4.428  -2.991   9.521  1.00 45.75     0.017 A 
HETATM    4  CAH   D T 600       5.311  -1.155  10.806  1.00 45.50     0.017 A 
HETATM    5  CAK   D T 600       0.793  -0.692   9.097  1.00 35.53     0.102 A 
HETATM    6  CAL   D T 600      -1.454   2.215  11.650  1.00 33.49     0.124 A 
HETATM    7  CAM   D T 600       1.462   0.359  11.163  1.00 37.51     0.104 A 
HETATM    8  NAS   D T 600      -0.379  -0.040   9.151  1.00 41.55    -0.225 NA
HETATM    9  NAT   D T 600      -0.228   1.833  12.026  1.00 34.74    -0.162 NA
HETATM   10  CAV   D T 600       2.989  -1.144  10.112  1.00 43.90     0.003 A 
HETATM   11  CAW   D T 600       1.747  -0.497  10.100  1.00 37.17     0.038 A 
HETATM   12  CAX   D T 600       5.495  -2.375  10.173  1.00 47.52     0.056 A 
HETATM   13  CAZ   D T 600      -1.767   1.605  10.513  1.00 33.41     0.057 A 
HETATM   14  CBC   D T 600      -0.680   0.822  10.166  1.00 37.64     0.165 A 
HETATM   15  NBE   D T 600       0.241   1.038  11.210  1.00 36.80    -0.211 N 
ENDROOT
BRANCH  13  16
HETATM   16  CAY   D T 600      -2.954   1.751   9.785  1.00 35.53     0.007 A 
HETATM   17  CAD   D T 600      -3.193   2.959   9.108  1.00 33.79     0.021 A 
HETATM   18  CAC   D T 600      -4.370   3.116   8.385  1.00 29.73     0.099 A 
HETATM   19  NAR   D T 600      -5.266   2.143   8.338  1.00 26.72    -0.244 NA
HETATM   20  CBA   D T 600      -5.072   0.984   8.968  1.00 26.75     0.081 A 
HETATM   21  CAI   D T 600      -6.037  -0.007   8.877  1.00 28.72     0.019 A 
HETATM   22  CBB   D T 600      -3.921   0.748   9.703  1.00 30.35     0.018 A 
HETATM   23  CAA   D T 600      -5.872  -1.230   9.504  1.00 24.81     0.002 A 
HETATM   24  CAB   D T 600      -4.728  -1.455  10.231  1.00 24.46     0.000 A 
HETATM   25  CAJ   D T 600      -3.750  -0.478  10.331  1.00 27.06     0.002 A 
ENDBRANCH  13  16
BRANCH  12  26
HETATM   26  NBD   D T 600       6.749  -3.004  10.253  1.00 50.24    -0.344 N 
HETATM   27  CAP   D T 600       7.745  -2.523  11.266  1.00 48.20     0.140 C 
HETATM   28  CAN   D T 600       8.084  -3.657  12.230  1.00 44.02     0.314 C 
HETATM   29  NAU   D T 600       8.376  -4.874  11.453  1.00 42.58     0.343 N 
HETATM   30  CAO   D T 600       7.213  -5.274  10.635  1.00 41.76     0.314 C 
HETATM   31  CAQ   D T 600       7.020  -4.255   9.528  1.00 40.50     0.140 C 
ENDBRANCH  12  26
TORSDOF 2
ENDMDL
MODEL 9
REMARK VINA RESULT:    -9.007      4.282     10.733
REMARK INTER + INTRA:         -10.596
REMARK INTER:                 -10.079
REMARK INTRA:                  -0.517
REMARK UNBOUND:                -0.536
REMARK  2 active torsions:
REMARK  status: ('A' for Active; 'I' for Inactive)
REMARK    1  A    between atoms: CAX_24  and  NBD_30 
REMARK    2  A    between atoms: CAY_25  and  CAZ_26 
ROOT
HETATM    1  CAE   D T 600      -0.230  -5.280  11.646  1.00 46.04     0.002 A 
HETATM    2  CAF   D T 600      -2.594  -4.775  11.685  1.00 45.69     0.002 A 
HETATM    3  CAG   D T 600      -0.528  -6.634  11.723  1.00 45.75     0.017 A 
HETATM    4  CAH   D T 600      -2.885  -6.132  11.747  1.00 45.50     0.017 A 
HETATM    5  CAK   D T 600       0.181  -2.382  12.044  1.00 35.53     0.102 A 
HETATM    6  CAL   D T 600      -1.864   1.310  10.560  1.00 33.49     0.124 A 
HETATM    7  CAM   D T 600      -1.977  -2.152  10.990  1.00 37.51     0.104 A 
HETATM    8  NAS   D T 600       0.364  -1.056  11.947  1.00 41.55    -0.225 NA
HETATM    9  NAT   D T 600      -2.483   0.130  10.435  1.00 34.74    -0.162 NA
HETATM   10  CAV   D T 600      -1.263  -4.334  11.641  1.00 43.90     0.003 A 
HETATM   11  CAW   D T 600      -1.003  -2.959  11.576  1.00 37.17     0.038 A 
HETATM   12  CAX   D T 600      -1.854  -7.061  11.775  1.00 47.52     0.056 A 
HETATM   13  CAZ   D T 600      -0.686   1.120  11.142  1.00 33.41     0.057 A 
HETATM   14  CBC   D T 600      -0.579  -0.236  11.399  1.00 37.64     0.165 A 
HETATM   15  NBE   D T 600      -1.782  -0.772  10.897  1.00 36.80    -0.211 N 
ENDROOT
BRANCH  13  16
HETATM   16  CAY   D T 600       0.255   2.105  11.465  1.00 35.53     0.007 A 
HETATM   17  CAD   D T 600       0.028   2.923  12.585  1.00 33.79     0.021 A 
HETATM   18  CAC   D T 600       0.954   3.907  12.912  1.00 29.73     0.099 A 
HETATM   19  NAR   D T 600       2.038   4.083  12.175  1.00 26.72    -0.244 NA
HETATM   20  CBA   D T 600       2.286   3.325  11.106  1.00 26.75     0.081 A 
HETATM   21  CAI   D T 600       3.444   3.544  10.374  1.00 28.72     0.019 A 
HETATM   22  CBB   D T 600       1.415   2.319  10.719  1.00 30.35     0.018 A 
HETATM   23  CAA   D T 600       3.747   2.774   9.265  1.00 24.81     0.002 A 
HETATM   24  CAB   D T 600       2.878   1.779   8.888  1.00 24.46     0.000 A 
HETATM   25  CAJ   D T 600       1.717   1.543   9.609  1.00 27.06     0.002 A 
ENDBRANCH  13  16
BRANCH  12  26
HETATM   26  NBD   D T 600      -2.169  -8.430  11.795  1.00 50.24    -0.344 N 
HETATM   27  CAP   D T 600      -1.169  -9.419  11.275  1.00 48.20     0.140 C 
HETATM   28  CAN   D T 600      -0.773 -10.381  12.391  1.00 44.02     0.314 C 
HETATM   29  NAU   D T 600      -1.992 -10.871  13.057  1.00 42.58     0.343 N 
HETATM   30  CAO   D T 600      -2.763  -9.754  13.641  1.00 41.76     0.314 C 
HETATM   31  CAQ   D T 600      -3.352  -8.927  12.516  1.00 40.50     0.140 C 
ENDBRANCH  12  26
TORSDOF 2
ENDMDL
