MODEL 1
REMARK VINA RESULT:    -9.733      0.000      0.000
REMARK INTER + INTRA:         -11.395
REMARK INTER:                 -10.871
REMARK INTRA:                  -0.524
REMARK UNBOUND:                -0.524
REMARK  2 active torsions:
REMARK  status: ('A' for Active; 'I' for Inactive)
REMARK    1  A    between atoms: CAX_24  and  NBD_30 
REMARK    2  A    between atoms: CAY_25  and  CAZ_26 
ROOT
HETATM    1  CAE   D T 600      -0.896  -2.889 -10.634  1.00 46.04     0.002 A 
HETATM    2  CAF   D T 600      -2.922  -2.326 -11.829  1.00 45.69     0.002 A 
HETATM    3  CAG   D T 600      -1.228  -4.233 -10.725  1.00 45.75     0.017 A 
HETATM    4  CAH   D T 600      -3.239  -3.676 -11.929  1.00 45.50     0.017 A 
HETATM    5  CAK   D T 600      -0.674   0.005 -10.077  1.00 35.53     0.102 A 
HETATM    6  CAL   D T 600      -1.549   3.724 -12.404  1.00 33.49     0.124 A 
HETATM    7  CAM   D T 600      -1.964   0.272 -12.099  1.00 37.51     0.104 A 
HETATM    8  NAS   D T 600      -0.431   1.324 -10.064  1.00 41.55    -0.225 NA
HETATM    9  NAT   D T 600      -2.046   2.558 -12.834  1.00 34.74    -0.162 NA
HETATM   10  CAV   D T 600      -1.751  -1.918 -11.173  1.00 43.90     0.003 A 
HETATM   11  CAW   D T 600      -1.458  -0.551 -11.092  1.00 37.17     0.038 A 
HETATM   12  CAX   D T 600      -2.400  -4.628 -11.370  1.00 47.52     0.056 A 
HETATM   13  CAZ   D T 600      -0.851   3.515 -11.294  1.00 33.41     0.057 A 
HETATM   14  CBC   D T 600      -0.930   2.159 -11.021  1.00 37.64     0.165 A 
HETATM   15  NBE   D T 600      -1.711   1.645 -12.075  1.00 36.80    -0.211 N 
ENDROOT
BRANCH  13  16
HETATM   16  CAY   D T 600      -0.188   4.481 -10.528  1.00 35.53     0.007 A 
HETATM   17  CAD   D T 600      -0.888   5.129  -9.496  1.00 33.79     0.021 A 
HETATM   18  CAC   D T 600      -0.241   6.092  -8.732  1.00 29.73     0.099 A 
HETATM   19  NAR   D T 600       1.021   6.408  -8.974  1.00 26.72    -0.244 NA
HETATM   20  CBA   D T 600       1.716   5.812  -9.945  1.00 26.75     0.081 A 
HETATM   21  CAI   D T 600       3.039   6.172 -10.149  1.00 28.72     0.019 A 
HETATM   22  CBB   D T 600       1.144   4.837 -10.746  1.00 30.35     0.018 A 
HETATM   23  CAA   D T 600       3.802   5.572 -11.136  1.00 24.81     0.002 A 
HETATM   24  CAB   D T 600       3.226   4.606 -11.925  1.00 24.46     0.000 A 
HETATM   25  CAJ   D T 600       1.906   4.231 -11.735  1.00 27.06     0.002 A 
ENDBRANCH  13  16
BRANCH  12  26
HETATM   26  NBD   D T 600      -2.716  -5.989 -11.518  1.00 50.24    -0.344 N 
HETATM   27  CAP   D T 600      -3.472  -6.436 -12.734  1.00 48.20     0.140 C 
HETATM   28  CAN   D T 600      -2.633  -7.438 -13.520  1.00 44.02     0.314 C 
HETATM   29  NAU   D T 600      -2.099  -8.449 -12.591  1.00 42.58     0.343 N 
HETATM   30  CAO   D T 600      -1.251  -7.824 -11.555  1.00 41.76     0.314 C 
HETATM   31  CAQ   D T 600      -2.133  -7.006 -10.630  1.00 40.50     0.140 C 
ENDBRANCH  12  26
TORSDOF 2
ENDMDL
MODEL 2
REMARK VINA RESULT:    -8.821      5.356      8.758
REMARK INTER + INTRA:         -10.376
REMARK INTER:                 -10.728
REMARK INTRA:                   0.352
REMARK UNBOUND:                -0.524
REMARK  2 active torsions:
REMARK  status: ('A' for Active; 'I' for Inactive)
REMARK    1  A    between atoms: CAX_24  and  NBD_30 
REMARK    2  A    between atoms: CAY_25  and  CAZ_26 
ROOT
HETATM    1  CAE   D T 600      -8.155  -6.329 -11.882  1.00 46.04     0.002 A 
HETATM    2  CAF   D T 600      -8.479  -4.004 -11.303  1.00 45.69     0.002 A 
HETATM    3  CAG   D T 600      -9.532  -6.501 -11.920  1.00 45.75     0.017 A 
HETATM    4  CAH   D T 600      -9.857  -4.181 -11.359  1.00 45.50     0.017 A 
HETATM    5  CAK   D T 600      -5.314  -5.881 -11.207  1.00 35.53     0.102 A 
HETATM    6  CAL   D T 600      -2.455  -2.485 -11.764  1.00 33.49     0.124 A 
HETATM    7  CAM   D T 600      -5.769  -3.578 -11.766  1.00 37.51     0.104 A 
HETATM    8  NAS   D T 600      -4.001  -5.606 -11.169  1.00 41.55    -0.225 NA
HETATM    9  NAT   D T 600      -3.765  -2.260 -11.911  1.00 34.74    -0.162 NA
HETATM   10  CAV   D T 600      -7.614  -5.078 -11.557  1.00 43.90     0.003 A 
HETATM   11  CAW   D T 600      -6.231  -4.866 -11.496  1.00 37.17     0.038 A 
HETATM   12  CAX   D T 600     -10.383  -5.428 -11.657  1.00 47.52     0.056 A 
HETATM   13  CAZ   D T 600      -2.266  -3.764 -11.459  1.00 33.41     0.057 A 
HETATM   14  CBC   D T 600      -3.519  -4.352 -11.405  1.00 37.64     0.165 A 
HETATM   15  NBE   D T 600      -4.401  -3.299 -11.719  1.00 36.80    -0.211 N 
ENDROOT
BRANCH  13  16
HETATM   16  CAY   D T 600      -1.040  -4.392 -11.210  1.00 35.53     0.007 A 
HETATM   17  CAD   D T 600      -0.843  -5.706 -11.669  1.00 33.79     0.021 A 
HETATM   18  CAC   D T 600       0.369  -6.340 -11.425  1.00 29.73     0.099 A 
HETATM   19  NAR   D T 600       1.330  -5.722 -10.758  1.00 26.72    -0.244 NA
HETATM   20  CBA   D T 600       1.178  -4.475 -10.309  1.00 26.75     0.081 A 
HETATM   21  CAI   D T 600       2.221  -3.870  -9.626  1.00 28.72     0.019 A 
HETATM   22  CBB   D T 600       0.002  -3.773 -10.518  1.00 30.35     0.018 A 
HETATM   23  CAA   D T 600       2.113  -2.573  -9.152  1.00 24.81     0.002 A 
HETATM   24  CAB   D T 600       0.943  -1.884  -9.365  1.00 24.46     0.000 A 
HETATM   25  CAJ   D T 600      -0.111  -2.472 -10.047  1.00 27.06     0.002 A 
ENDBRANCH  13  16
BRANCH  12  26
HETATM   26  NBD   D T 600     -11.778  -5.578 -11.749  1.00 50.24    -0.344 N 
HETATM   27  CAP   D T 600     -12.574  -4.554 -12.503  1.00 48.20     0.140 C 
HETATM   28  CAN   D T 600     -13.297  -5.223 -13.668  1.00 44.02     0.314 C 
HETATM   29  NAU   D T 600     -13.966  -6.442 -13.181  1.00 42.58     0.343 N 
HETATM   30  CAO   D T 600     -12.989  -7.394 -12.614  1.00 41.76     0.314 C 
HETATM   31  CAQ   D T 600     -12.440  -6.820 -11.322  1.00 40.50     0.140 C 
ENDBRANCH  12  26
TORSDOF 2
ENDMDL
MODEL 3
REMARK VINA RESULT:    -8.628      4.843      7.502
REMARK INTER + INTRA:         -10.160
REMARK INTER:                  -9.886
REMARK INTRA:                  -0.274
REMARK UNBOUND:                -0.524
REMARK  2 active torsions:
REMARK  status: ('A' for Active; 'I' for Inactive)
REMARK    1  A    between atoms: CAX_24  and  NBD_30 
REMARK    2  A    between atoms: CAY_25  and  CAZ_26 
ROOT
HETATM    1  CAE   D T 600      -7.132  -5.400 -11.487  1.00 46.04     0.002 A 
HETATM    2  CAF   D T 600      -7.875  -3.267 -12.349  1.00 45.69     0.002 A 
HETATM    3  CAG   D T 600      -8.393  -5.927 -11.731  1.00 45.75     0.017 A 
HETATM    4  CAH   D T 600      -9.131  -3.806 -12.604  1.00 45.50     0.017 A 
HETATM    5  CAK   D T 600      -4.736  -3.947 -10.551  1.00 35.53     0.102 A 
HETATM    6  CAL   D T 600      -2.233  -0.629 -12.206  1.00 33.49     0.124 A 
HETATM    7  CAM   D T 600      -5.226  -2.418 -12.353  1.00 37.51     0.104 A 
HETATM    8  NAS   D T 600      -3.545  -3.352 -10.377  1.00 41.55    -0.225 NA
HETATM    9  NAT   D T 600      -3.439  -0.860 -12.738  1.00 34.74    -0.162 NA
HETATM   10  CAV   D T 600      -6.865  -4.057 -11.780  1.00 43.90     0.003 A 
HETATM   11  CAW   D T 600      -5.610  -3.484 -11.538  1.00 37.17     0.038 A 
HETATM   12  CAX   D T 600      -9.393  -5.131 -12.287  1.00 47.52     0.056 A 
HETATM   13  CAZ   D T 600      -2.020  -1.497 -11.225  1.00 33.41     0.057 A 
HETATM   14  CBC   D T 600      -3.150  -2.293 -11.141  1.00 37.64     0.165 A 
HETATM   15  NBE   D T 600      -3.987  -1.801 -12.162  1.00 36.80    -0.211 N 
ENDROOT
BRANCH  13  16
HETATM   16  CAY   D T 600      -0.884  -1.576 -10.410  1.00 35.53     0.007 A 
HETATM   17  CAD   D T 600      -0.577  -0.495  -9.565  1.00 33.79     0.021 A 
HETATM   18  CAC   D T 600       0.550  -0.561  -8.754  1.00 29.73     0.099 A 
HETATM   19  NAR   D T 600       1.336  -1.625  -8.778  1.00 26.72    -0.244 NA
HETATM   20  CBA   D T 600       1.074  -2.669  -9.566  1.00 26.75     0.081 A 
HETATM   21  CAI   D T 600       1.924  -3.764  -9.544  1.00 28.72     0.019 A 
HETATM   22  CBB   D T 600      -0.034  -2.683 -10.399  1.00 30.35     0.018 A 
HETATM   23  CAA   D T 600       1.684  -4.875 -10.335  1.00 24.81     0.002 A 
HETATM   24  CAB   D T 600       0.583  -4.879 -11.158  1.00 24.46     0.000 A 
HETATM   25  CAJ   D T 600      -0.279  -3.795 -11.192  1.00 27.06     0.002 A 
ENDBRANCH  13  16
BRANCH  12  26
HETATM   26  NBD   D T 600     -10.656  -5.669 -12.591  1.00 50.24    -0.344 N 
HETATM   27  CAP   D T 600     -11.081  -6.950 -11.936  1.00 48.20     0.140 C 
HETATM   28  CAN   D T 600     -12.343  -6.710 -11.114  1.00 44.02     0.314 C 
HETATM   29  NAU   D T 600     -13.313  -5.962 -11.931  1.00 42.58     0.343 N 
HETATM   30  CAO   D T 600     -12.761  -4.657 -12.350  1.00 41.76     0.314 C 
HETATM   31  CAQ   D T 600     -11.648  -4.897 -13.354  1.00 40.50     0.140 C 
ENDBRANCH  12  26
TORSDOF 2
ENDMDL
MODEL 4
REMARK VINA RESULT:    -8.601      5.409      9.019
REMARK INTER + INTRA:         -10.131
REMARK INTER:                  -9.735
REMARK INTRA:                  -0.395
REMARK UNBOUND:                -0.524
REMARK  2 active torsions:
REMARK  status: ('A' for Active; 'I' for Inactive)
REMARK    1  A    between atoms: CAX_24  and  NBD_30 
REMARK    2  A    between atoms: CAY_25  and  CAZ_26 
ROOT
HETATM    1  CAE   D T 600      -7.099   0.206  -9.299  1.00 46.04     0.002 A 
HETATM    2  CAF   D T 600      -5.830   2.227  -9.685  1.00 45.69     0.002 A 
HETATM    3  CAG   D T 600      -8.187   0.975  -8.909  1.00 45.75     0.017 A 
HETATM    4  CAH   D T 600      -6.929   2.991  -9.309  1.00 45.50     0.017 A 
HETATM    5  CAK   D T 600      -4.529  -1.216  -9.622  1.00 35.53     0.102 A 
HETATM    6  CAL   D T 600      -0.955  -0.676 -12.258  1.00 33.49     0.124 A 
HETATM    7  CAM   D T 600      -3.892   0.690 -10.957  1.00 37.51     0.104 A 
HETATM    8  NAS   D T 600      -3.433  -1.868 -10.038  1.00 41.55    -0.225 NA
HETATM    9  NAT   D T 600      -1.836   0.324 -12.146  1.00 34.74    -0.162 NA
HETATM   10  CAV   D T 600      -5.902   0.827  -9.677  1.00 43.90     0.003 A 
HETATM   11  CAW   D T 600      -4.778   0.086 -10.065  1.00 37.17     0.038 A 
HETATM   12  CAX   D T 600      -8.102   2.367  -8.912  1.00 47.52     0.056 A 
HETATM   13  CAZ   D T 600      -1.358  -1.693 -11.505  1.00 33.41     0.057 A 
HETATM   14  CBC   D T 600      -2.535  -1.297 -10.892  1.00 37.64     0.165 A 
HETATM   15  NBE   D T 600      -2.750   0.007 -11.382  1.00 36.80    -0.211 N 
ENDROOT
BRANCH  13  16
HETATM   16  CAY   D T 600      -0.704  -2.920 -11.336  1.00 35.53     0.007 A 
HETATM   17  CAD   D T 600      -1.231  -4.064 -11.960  1.00 33.79     0.021 A 
HETATM   18  CAC   D T 600      -0.592  -5.286 -11.797  1.00 29.73     0.099 A 
HETATM   19  NAR   D T 600       0.500  -5.382 -11.056  1.00 26.72    -0.244 NA
HETATM   20  CBA   D T 600       1.029  -4.317 -10.451  1.00 26.75     0.081 A 
HETATM   21  CAI   D T 600       2.181  -4.471  -9.695  1.00 28.72     0.019 A 
HETATM   22  CBB   D T 600       0.454  -3.062 -10.570  1.00 30.35     0.018 A 
HETATM   23  CAA   D T 600       2.772  -3.392  -9.060  1.00 24.81     0.002 A 
HETATM   24  CAB   D T 600       2.195  -2.151  -9.184  1.00 24.46     0.000 A 
HETATM   25  CAJ   D T 600       1.045  -1.977  -9.937  1.00 27.06     0.002 A 
ENDBRANCH  13  16
BRANCH  12  26
HETATM   26  NBD   D T 600      -9.216   3.156  -8.574  1.00 50.24    -0.344 N 
HETATM   27  CAP   D T 600     -10.485   3.004  -9.360  1.00 48.20     0.140 C 
HETATM   28  CAN   D T 600     -11.610   2.557  -8.432  1.00 44.02     0.314 C 
HETATM   29  NAU   D T 600     -11.605   3.406  -7.228  1.00 42.58     0.343 N 
HETATM   30  CAO   D T 600     -10.320   3.297  -6.507  1.00 41.76     0.314 C 
HETATM   31  CAQ   D T 600      -9.235   3.955  -7.339  1.00 40.50     0.140 C 
ENDBRANCH  12  26
TORSDOF 2
ENDMDL
MODEL 5
REMARK VINA RESULT:    -8.378      5.074      9.738
REMARK INTER + INTRA:          -9.882
REMARK INTER:                 -10.057
REMARK INTRA:                   0.175
REMARK UNBOUND:                -0.524
REMARK  2 active torsions:
REMARK  status: ('A' for Active; 'I' for Inactive)
REMARK    1  A    between atoms: CAX_24  and  NBD_30 
REMARK    2  A    between atoms: CAY_25  and  CAZ_26 
ROOT
HETATM    1  CAE   D T 600      -6.835  -0.075  -9.273  1.00 46.04     0.002 A 
HETATM    2  CAF   D T 600      -5.295   1.787  -9.199  1.00 45.69     0.002 A 
HETATM    3  CAG   D T 600      -7.858   0.767  -8.861  1.00 45.75     0.017 A 
HETATM    4  CAH   D T 600      -6.329   2.628  -8.802  1.00 45.50     0.017 A 
HETATM    5  CAK   D T 600      -4.437  -1.771  -9.593  1.00 35.53     0.102 A 
HETATM    6  CAL   D T 600      -0.551  -1.329 -11.765  1.00 33.49     0.124 A 
HETATM    7  CAM   D T 600      -3.427   0.212 -10.528  1.00 37.51     0.104 A 
HETATM    8  NAS   D T 600      -3.388  -2.496 -10.011  1.00 41.55    -0.225 NA
HETATM    9  NAT   D T 600      -1.310  -0.246 -11.569  1.00 34.74    -0.162 NA
HETATM   10  CAV   D T 600      -5.537   0.426  -9.431  1.00 43.90     0.003 A 
HETATM   11  CAW   D T 600      -4.474  -0.394  -9.833  1.00 37.17     0.038 A 
HETATM   12  CAX   D T 600      -7.606   2.118  -8.623  1.00 47.52     0.056 A 
HETATM   13  CAZ   D T 600      -1.155  -2.385 -11.233  1.00 33.41     0.057 A 
HETATM   14  CBC   D T 600      -2.337  -1.929 -10.672  1.00 37.64     0.165 A 
HETATM   15  NBE   D T 600      -2.336  -0.548 -10.955  1.00 36.80    -0.211 N 
ENDROOT
BRANCH  13  16
HETATM   16  CAY   D T 600      -0.678  -3.701 -11.213  1.00 35.53     0.007 A 
HETATM   17  CAD   D T 600       0.621  -3.946 -10.734  1.00 33.79     0.021 A 
HETATM   18  CAC   D T 600       1.106  -5.247 -10.713  1.00 29.73     0.099 A 
HETATM   19  NAR   D T 600       0.361  -6.251 -11.146  1.00 26.72    -0.244 NA
HETATM   20  CBA   D T 600      -0.875  -6.055 -11.605  1.00 26.75     0.081 A 
HETATM   21  CAI   D T 600      -1.618  -7.144 -12.036  1.00 28.72     0.019 A 
HETATM   22  CBB   D T 600      -1.434  -4.788 -11.652  1.00 30.35     0.018 A 
HETATM   23  CAA   D T 600      -2.910  -6.990 -12.509  1.00 24.81     0.002 A 
HETATM   24  CAB   D T 600      -3.456  -5.729 -12.552  1.00 24.46     0.000 A 
HETATM   25  CAJ   D T 600      -2.730  -4.629 -12.123  1.00 27.06     0.002 A 
ENDBRANCH  13  16
BRANCH  12  26
HETATM   26  NBD   D T 600      -8.647   2.992  -8.262  1.00 50.24    -0.344 N 
HETATM   27  CAP   D T 600      -9.888   3.037  -9.102  1.00 48.20     0.140 C 
HETATM   28  CAN   D T 600     -11.094   2.641  -8.257  1.00 44.02     0.314 C 
HETATM   29  NAU   D T 600     -11.056   3.386  -6.987  1.00 42.58     0.343 N 
HETATM   30  CAO   D T 600      -9.822   3.085  -6.231  1.00 41.76     0.314 C 
HETATM   31  CAQ   D T 600      -8.639   3.687  -6.966  1.00 40.50     0.140 C 
ENDBRANCH  12  26
TORSDOF 2
ENDMDL
MODEL 6
REMARK VINA RESULT:    -8.359      5.307      8.946
REMARK INTER + INTRA:          -9.860
REMARK INTER:                  -9.476
REMARK INTRA:                  -0.384
REMARK UNBOUND:                -0.524
REMARK  2 active torsions:
REMARK  status: ('A' for Active; 'I' for Inactive)
REMARK    1  A    between atoms: CAX_24  and  NBD_30 
REMARK    2  A    between atoms: CAY_25  and  CAZ_26 
ROOT
HETATM    1  CAE   D T 600      -8.395  -3.954 -11.462  1.00 46.04     0.002 A 
HETATM    2  CAF   D T 600      -8.256  -6.328 -11.899  1.00 45.69     0.002 A 
HETATM    3  CAG   D T 600      -9.778  -4.028 -11.550  1.00 45.75     0.017 A 
HETATM    4  CAH   D T 600      -9.643  -6.397 -11.970  1.00 45.50     0.017 A 
HETATM    5  CAK   D T 600      -5.468  -3.924 -11.868  1.00 35.53     0.102 A 
HETATM    6  CAL   D T 600      -2.130  -6.718 -10.837  1.00 33.49     0.124 A 
HETATM    7  CAM   D T 600      -5.569  -6.237 -11.186  1.00 37.51     0.104 A 
HETATM    8  NAS   D T 600      -4.129  -3.961 -11.778  1.00 41.55    -0.225 NA
HETATM    9  NAT   D T 600      -3.389  -7.165 -10.783  1.00 34.74    -0.162 NA
HETATM   10  CAV   D T 600      -7.618  -5.104 -11.652  1.00 43.90     0.003 A 
HETATM   11  CAW   D T 600      -6.219  -5.068 -11.584  1.00 37.17     0.038 A 
HETATM   12  CAX   D T 600     -10.402  -5.249 -11.806  1.00 47.52     0.056 A 
HETATM   13  CAZ   D T 600      -2.137  -5.445 -11.216  1.00 33.41     0.057 A 
HETATM   14  CBC   D T 600      -3.462  -5.095 -11.414  1.00 37.64     0.165 A 
HETATM   15  NBE   D T 600      -4.175  -6.269 -11.100  1.00 36.80    -0.211 N 
ENDROOT
BRANCH  13  16
HETATM   16  CAY   D T 600      -1.021  -4.623 -11.407  1.00 35.53     0.007 A 
HETATM   17  CAD   D T 600      -0.172  -4.871 -12.500  1.00 33.79     0.021 A 
HETATM   18  CAC   D T 600       0.941  -4.064 -12.698  1.00 29.73     0.099 A 
HETATM   19  NAR   D T 600       1.210  -3.072 -11.864  1.00 26.72    -0.244 NA
HETATM   20  CBA   D T 600       0.426  -2.807 -10.818  1.00 26.75     0.081 A 
HETATM   21  CAI   D T 600       0.748  -1.749  -9.982  1.00 28.72     0.019 A 
HETATM   22  CBB   D T 600      -0.705  -3.563 -10.556  1.00 30.35     0.018 A 
HETATM   23  CAA   D T 600      -0.043  -1.430  -8.891  1.00 24.81     0.002 A 
HETATM   24  CAB   D T 600      -1.164  -2.184  -8.640  1.00 24.46     0.000 A 
HETATM   25  CAJ   D T 600      -1.503  -3.244  -9.466  1.00 27.06     0.002 A 
ENDBRANCH  13  16
BRANCH  12  26
HETATM   26  NBD   D T 600     -11.805  -5.346 -11.840  1.00 50.24    -0.344 N 
HETATM   27  CAP   D T 600     -12.583  -4.390 -12.694  1.00 48.20     0.140 C 
HETATM   28  CAN   D T 600     -13.370  -5.166 -13.745  1.00 44.02     0.314 C 
HETATM   29  NAU   D T 600     -14.072  -6.284 -13.090  1.00 42.58     0.343 N 
HETATM   30  CAO   D T 600     -13.116  -7.200 -12.435  1.00 41.76     0.314 C 
HETATM   31  CAQ   D T 600     -12.502  -6.494 -11.241  1.00 40.50     0.140 C 
ENDBRANCH  12  26
TORSDOF 2
ENDMDL
MODEL 7
REMARK VINA RESULT:    -8.350      5.001      8.105
REMARK INTER + INTRA:          -9.850
REMARK INTER:                 -10.414
REMARK INTRA:                   0.564
REMARK UNBOUND:                -0.524
REMARK  2 active torsions:
REMARK  status: ('A' for Active; 'I' for Inactive)
REMARK    1  A    between atoms: CAX_24  and  NBD_30 
REMARK    2  A    between atoms: CAY_25  and  CAZ_26 
ROOT
HETATM    1  CAE   D T 600      -8.324  -4.925 -10.706  1.00 46.04     0.002 A 
HETATM    2  CAF   D T 600      -7.553  -6.357 -12.496  1.00 45.69     0.002 A 
HETATM    3  CAG   D T 600      -9.615  -5.396 -10.899  1.00 45.75     0.017 A 
HETATM    4  CAH   D T 600      -8.847  -6.835 -12.672  1.00 45.50     0.017 A 
HETATM    5  CAK   D T 600      -5.651  -3.673 -10.844  1.00 35.53     0.102 A 
HETATM    6  CAL   D T 600      -1.505  -5.198 -11.554  1.00 33.49     0.124 A 
HETATM    7  CAM   D T 600      -4.938  -5.804 -11.727  1.00 37.51     0.104 A 
HETATM    8  NAS   D T 600      -4.368  -3.301 -10.721  1.00 41.55    -0.225 NA
HETATM    9  NAT   D T 600      -2.546  -5.983 -11.855  1.00 34.74    -0.162 NA
HETATM   10  CAV   D T 600      -7.280  -5.392 -11.517  1.00 43.90     0.003 A 
HETATM   11  CAW   D T 600      -5.966  -4.933 -11.362  1.00 37.17     0.038 A 
HETATM   12  CAX   D T 600      -9.878  -6.350 -11.882  1.00 47.52     0.056 A 
HETATM   13  CAZ   D T 600      -1.957  -4.045 -11.074  1.00 33.41     0.057 A 
HETATM   14  CBC   D T 600      -3.340  -4.120 -11.090  1.00 37.64     0.165 A 
HETATM   15  NBE   D T 600      -3.605  -5.406 -11.601  1.00 36.80    -0.211 N 
ENDROOT
BRANCH  13  16
HETATM   16  CAY   D T 600      -1.187  -2.952 -10.660  1.00 35.53     0.007 A 
HETATM   17  CAD   D T 600      -1.744  -1.663 -10.725  1.00 33.79     0.021 A 
HETATM   18  CAC   D T 600      -0.988  -0.571 -10.319  1.00 29.73     0.099 A 
HETATM   19  NAR   D T 600       0.250  -0.734  -9.882  1.00 26.72    -0.244 NA
HETATM   20  CBA   D T 600       0.810  -1.942  -9.805  1.00 26.75     0.081 A 
HETATM   21  CAI   D T 600       2.107  -2.059  -9.329  1.00 28.72     0.019 A 
HETATM   22  CBB   D T 600       0.119  -3.082 -10.185  1.00 30.35     0.018 A 
HETATM   23  CAA   D T 600       2.724  -3.294  -9.221  1.00 24.81     0.002 A 
HETATM   24  CAB   D T 600       2.030  -4.418  -9.599  1.00 24.46     0.000 A 
HETATM   25  CAJ   D T 600       0.732  -4.322 -10.075  1.00 27.06     0.002 A 
ENDBRANCH  13  16
BRANCH  12  26
HETATM   26  NBD   D T 600     -11.172  -6.875 -12.047  1.00 50.24    -0.344 N 
HETATM   27  CAP   D T 600     -11.332  -8.270 -12.575  1.00 48.20     0.140 C 
HETATM   28  CAN   D T 600     -12.053  -9.129 -11.542  1.00 44.02     0.314 C 
HETATM   29  NAU   D T 600     -13.239  -8.402 -11.056  1.00 42.58     0.343 N 
HETATM   30  CAO   D T 600     -12.855  -7.120 -10.428  1.00 41.76     0.314 C 
HETATM   31  CAQ   D T 600     -12.350  -6.180 -11.506  1.00 40.50     0.140 C 
ENDBRANCH  12  26
TORSDOF 2
ENDMDL
MODEL 8
REMARK VINA RESULT:    -7.963      5.587      9.060
REMARK INTER + INTRA:          -9.418
REMARK INTER:                  -9.128
REMARK INTRA:                  -0.289
REMARK UNBOUND:                -0.524
REMARK  2 active torsions:
REMARK  status: ('A' for Active; 'I' for Inactive)
REMARK    1  A    between atoms: CAX_24  and  NBD_30 
REMARK    2  A    between atoms: CAY_25  and  CAZ_26 
ROOT
HETATM    1  CAE   D T 600      -8.243  -1.962 -11.633  1.00 46.04     0.002 A 
HETATM    2  CAF   D T 600      -8.661  -4.253 -12.280  1.00 45.69     0.002 A 
HETATM    3  CAG   D T 600      -9.597  -1.688 -11.761  1.00 45.75     0.017 A 
HETATM    4  CAH   D T 600     -10.019  -3.975 -12.390  1.00 45.50     0.017 A 
HETATM    5  CAK   D T 600      -5.380  -2.615 -11.963  1.00 35.53     0.102 A 
HETATM    6  CAL   D T 600      -2.866  -6.216 -11.110  1.00 33.49     0.124 A 
HETATM    7  CAM   D T 600      -6.067  -4.881 -11.497  1.00 37.51     0.104 A 
HETATM    8  NAS   D T 600      -4.096  -2.986 -11.845  1.00 41.55    -0.225 NA
HETATM    9  NAT   D T 600      -4.197  -6.344 -11.127  1.00 34.74    -0.162 NA
HETATM   10  CAV   D T 600      -7.758  -3.247 -11.908  1.00 43.90     0.003 A 
HETATM   11  CAW   D T 600      -6.397  -3.560 -11.803  1.00 37.17     0.038 A 
HETATM   12  CAX   D T 600     -10.486  -2.694 -12.141  1.00 47.52     0.056 A 
HETATM   13  CAZ   D T 600      -2.548  -4.953 -11.371  1.00 33.41     0.057 A 
HETATM   14  CBC   D T 600      -3.739  -4.274 -11.569  1.00 37.64     0.165 A 
HETATM   15  NBE   D T 600      -4.728  -5.260 -11.380  1.00 36.80    -0.211 N 
ENDROOT
BRANCH  13  16
HETATM   16  CAY   D T 600      -1.259  -4.416 -11.461  1.00 35.53     0.007 A 
HETATM   17  CAD   D T 600      -0.399  -4.875 -12.474  1.00 33.79     0.021 A 
HETATM   18  CAC   D T 600       0.884  -4.351 -12.569  1.00 29.73     0.099 A 
HETATM   19  NAR   D T 600       1.303  -3.433 -11.713  1.00 26.72    -0.244 NA
HETATM   20  CBA   D T 600       0.514  -2.974 -10.741  1.00 26.75     0.081 A 
HETATM   21  CAI   D T 600       0.998  -2.004  -9.877  1.00 28.72     0.019 A 
HETATM   22  CBB   D T 600      -0.781  -3.441 -10.583  1.00 30.35     0.018 A 
HETATM   23  CAA   D T 600       0.210  -1.488  -8.861  1.00 24.81     0.002 A 
HETATM   24  CAB   D T 600      -1.072  -1.958  -8.713  1.00 24.46     0.000 A 
HETATM   25  CAJ   D T 600      -1.575  -2.926  -9.568  1.00 27.06     0.002 A 
ENDBRANCH  13  16
BRANCH  12  26
HETATM   26  NBD   D T 600     -11.867  -2.442 -12.217  1.00 50.24    -0.344 N 
HETATM   27  CAP   D T 600     -12.354  -1.024 -12.183  1.00 48.20     0.140 C 
HETATM   28  CAN   D T 600     -13.105  -0.709 -13.473  1.00 44.02     0.314 C 
HETATM   29  NAU   D T 600     -14.063  -1.793 -13.748  1.00 42.58     0.343 N 
HETATM   30  CAO   D T 600     -13.368  -3.088 -13.903  1.00 41.76     0.314 C 
HETATM   31  CAQ   D T 600     -12.817  -3.513 -12.555  1.00 40.50     0.140 C 
ENDBRANCH  12  26
TORSDOF 2
ENDMDL
MODEL 9
REMARK VINA RESULT:    -7.816      5.398      8.692
REMARK INTER + INTRA:          -9.254
REMARK INTER:                  -9.546
REMARK INTRA:                   0.292
REMARK UNBOUND:                -0.524
REMARK  2 active torsions:
REMARK  status: ('A' for Active; 'I' for Inactive)
REMARK    1  A    between atoms: CAX_24  and  NBD_30 
REMARK    2  A    between atoms: CAY_25  and  CAZ_26 
ROOT
HETATM    1  CAE   D T 600      -8.041  -2.630 -12.239  1.00 46.04     0.002 A 
HETATM    2  CAF   D T 600      -7.558  -0.382 -11.494  1.00 45.69     0.002 A 
HETATM    3  CAG   D T 600      -9.387  -2.304 -12.319  1.00 45.75     0.017 A 
HETATM    4  CAH   D T 600      -8.907  -0.058 -11.592  1.00 45.50     0.017 A 
HETATM    5  CAK   D T 600      -5.256  -3.254 -11.471  1.00 35.53     0.102 A 
HETATM    6  CAL   D T 600      -1.368  -1.054 -11.710  1.00 33.49     0.124 A 
HETATM    7  CAM   D T 600      -4.852  -0.908 -11.865  1.00 37.51     0.104 A 
HETATM    8  NAS   D T 600      -3.933  -3.462 -11.385  1.00 41.55    -0.225 NA
HETATM    9  NAT   D T 600      -2.509  -0.374 -11.867  1.00 34.74    -0.162 NA
HETATM   10  CAV   D T 600      -7.112  -1.673 -11.809  1.00 43.90     0.003 A 
HETATM   11  CAW   D T 600      -5.747  -1.966 -11.703  1.00 37.17     0.038 A 
HETATM   12  CAX   D T 600      -9.821  -1.020 -11.995  1.00 47.52     0.056 A 
HETATM   13  CAZ   D T 600      -1.653  -2.334 -11.498  1.00 33.41     0.057 A 
HETATM   14  CBC   D T 600      -3.033  -2.445 -11.515  1.00 37.64     0.165 A 
HETATM   15  NBE   D T 600      -3.476  -1.131 -11.768  1.00 36.80    -0.211 N 
ENDROOT
BRANCH  13  16
HETATM   16  CAY   D T 600      -0.737  -3.368 -11.270  1.00 35.53     0.007 A 
HETATM   17  CAD   D T 600      -0.977  -4.628 -11.844  1.00 33.79     0.021 A 
HETATM   18  CAC   D T 600      -0.076  -5.662 -11.622  1.00 29.73     0.099 A 
HETATM   19  NAR   D T 600       0.997  -5.472 -10.871  1.00 26.72    -0.244 NA
HETATM   20  CBA   D T 600       1.257  -4.288 -10.313  1.00 26.75     0.081 A 
HETATM   21  CAI   D T 600       2.401  -4.139  -9.545  1.00 28.72     0.019 A 
HETATM   22  CBB   D T 600       0.410  -3.206 -10.492  1.00 30.35     0.018 A 
HETATM   23  CAA   D T 600       2.718  -2.926  -8.956  1.00 24.81     0.002 A 
HETATM   24  CAB   D T 600       1.873  -1.859  -9.140  1.00 24.46     0.000 A 
HETATM   25  CAJ   D T 600       0.725  -1.987  -9.906  1.00 27.06     0.002 A 
ENDBRANCH  13  16
BRANCH  12  26
HETATM   26  NBD   D T 600     -11.175  -0.663 -12.127  1.00 50.24    -0.344 N 
HETATM   27  CAP   D T 600     -11.797   0.238 -11.102  1.00 48.20     0.140 C 
HETATM   28  CAN   D T 600     -12.292   1.515 -11.774  1.00 44.02     0.314 C 
HETATM   29  NAU   D T 600     -13.059   1.156 -12.979  1.00 42.58     0.343 N 
HETATM   30  CAO   D T 600     -12.222   0.404 -13.938  1.00 41.76     0.314 C 
HETATM   31  CAQ   D T 600     -11.924  -0.965 -13.357  1.00 40.50     0.140 C 
ENDBRANCH  12  26
TORSDOF 2
ENDMDL
