MODEL 1
REMARK VINA RESULT:      -8.1      0.000      0.000
REMARK  2 active torsions:
REMARK  status: ('A' for Active; 'I' for Inactive)
REMARK    1  A    between atoms: CAX_24  and  NBD_30 
REMARK    2  A    between atoms: CAY_25  and  CAZ_26 
ROOT
HETATM    1  CAE   D T 600      59.602 -48.535 -30.371  1.00 46.04     0.002 A 
HETATM    2  CAF   D T 600      58.179 -49.082 -28.495  1.00 45.69     0.002 A 
HETATM    3  CAG   D T 600      60.632 -49.260 -29.788  1.00 45.75     0.017 A 
HETATM    4  CAH   D T 600      59.211 -49.818 -27.925  1.00 45.50     0.017 A 
HETATM    5  CAK   D T 600      57.490 -46.618 -31.142  1.00 35.53     0.102 A 
HETATM    6  CAL   D T 600      53.018 -46.653 -31.002  1.00 33.49     0.124 A 
HETATM    7  CAM   D T 600      56.012 -48.094 -29.934  1.00 37.51     0.104 A 
HETATM    8  NAS   D T 600      56.426 -45.964 -31.634  1.00 41.55    -0.225 NA
HETATM    9  NAT   D T 600      53.697 -47.562 -30.293  1.00 34.74    -0.162 NA
HETATM   10  CAV   D T 600      58.366 -48.426 -29.720  1.00 43.90     0.003 A 
HETATM   11  CAW   D T 600      57.306 -47.694 -30.270  1.00 37.17     0.038 A 
HETATM   12  CAX   D T 600      60.439 -49.900 -28.565  1.00 47.52     0.056 A 
HETATM   13  CAZ   D T 600      53.881 -45.873 -31.644  1.00 33.41     0.057 A 
HETATM   14  CBC   D T 600      55.149 -46.315 -31.307  1.00 37.64     0.165 A 
HETATM   15  NBE   D T 600      54.910 -47.405 -30.445  1.00 36.80    -0.211 N 
ENDROOT
BRANCH  13  16
HETATM   16  CAY   D T 600      53.571 -44.792 -32.478  1.00 35.53     0.007 A 
HETATM   17  CAD   D T 600      53.377 -43.524 -31.904  1.00 33.79     0.021 A 
HETATM   18  CAC   D T 600      53.066 -42.444 -32.721  1.00 29.73     0.099 A 
HETATM   19  NAR   D T 600      52.943 -42.603 -34.029  1.00 26.72    -0.244 NA
HETATM   20  CBA   D T 600      53.119 -43.792 -34.607  1.00 26.75     0.081 A 
HETATM   21  CAI   D T 600      52.989 -43.901 -35.984  1.00 28.72     0.019 A 
HETATM   22  CBB   D T 600      53.439 -44.916 -33.862  1.00 30.35     0.018 A 
HETATM   23  CAA   D T 600      53.176 -45.113 -36.628  1.00 24.81     0.002 A 
HETATM   24  CAB   D T 600      53.493 -46.221 -35.881  1.00 24.46     0.000 A 
HETATM   25  CAJ   D T 600      53.630 -46.131 -34.504  1.00 27.06     0.002 A 
ENDBRANCH  13  16
BRANCH  12  26
HETATM   26  NBD   D T 600      61.456 -50.684 -27.994  1.00 50.24    -0.344 N 
HETATM   27  CAP   D T 600      61.293 -51.184 -26.590  1.00 48.20     0.140 C 
HETATM   28  CAN   D T 600      61.308 -52.709 -26.584  1.00 44.02     0.314 C 
HETATM   29  NAU   D T 600      62.449 -53.180 -27.389  1.00 42.58     0.343 N 
HETATM   30  CAO   D T 600      62.344 -52.709 -28.786  1.00 41.76     0.314 C 
HETATM   31  CAQ   D T 600      62.561 -51.208 -28.812  1.00 40.50     0.140 C 
ENDBRANCH  12  26
TORSDOF 2
ENDMDL
MODEL 2
REMARK VINA RESULT:      -8.1      2.188     10.386
REMARK  2 active torsions:
REMARK  status: ('A' for Active; 'I' for Inactive)
REMARK    1  A    between atoms: CAX_24  and  NBD_30 
REMARK    2  A    between atoms: CAY_25  and  CAZ_26 
ROOT
HETATM    1  CAE   D T 600      54.675 -46.970 -31.771  1.00 46.04     0.002 A 
HETATM    2  CAF   D T 600      56.308 -45.187 -31.717  1.00 45.69     0.002 A 
HETATM    3  CAG   D T 600      53.994 -46.302 -32.779  1.00 45.75     0.017 A 
HETATM    4  CAH   D T 600      55.628 -44.533 -32.738  1.00 45.50     0.017 A 
HETATM    5  CAK   D T 600      55.947 -47.922 -29.280  1.00 35.53     0.102 A 
HETATM    6  CAL   D T 600      60.157 -48.094 -27.773  1.00 33.49     0.124 A 
HETATM    7  CAM   D T 600      57.912 -46.792 -30.108  1.00 37.51     0.104 A 
HETATM    8  NAS   D T 600      56.689 -48.499 -28.321  1.00 41.55    -0.225 NA
HETATM    9  NAT   D T 600      59.876 -47.322 -28.830  1.00 34.74    -0.162 NA
HETATM   10  CAV   D T 600      55.834 -46.409 -31.217  1.00 43.90     0.003 A 
HETATM   11  CAW   D T 600      56.543 -47.044 -30.190  1.00 37.17     0.038 A 
HETATM   12  CAX   D T 600      54.468 -45.084 -33.263  1.00 47.52     0.056 A 
HETATM   13  CAZ   D T 600      59.042 -48.689 -27.364  1.00 33.41     0.057 A 
HETATM   14  CBC   D T 600      58.026 -48.255 -28.200  1.00 37.64     0.165 A 
HETATM   15  NBE   D T 600      58.677 -47.392 -29.104  1.00 36.80    -0.211 N 
ENDROOT
BRANCH  13  16
HETATM   16  CAY   D T 600      58.911 -49.562 -26.278  1.00 35.53     0.007 A 
HETATM   17  CAD   D T 600      58.251 -49.114 -25.121  1.00 33.79     0.021 A 
HETATM   18  CAC   D T 600      58.118 -49.972 -24.036  1.00 29.73     0.099 A 
HETATM   19  NAR   D T 600      58.612 -51.198 -24.081  1.00 26.72    -0.244 NA
HETATM   20  CBA   D T 600      59.244 -51.656 -25.163  1.00 26.75     0.081 A 
HETATM   21  CAI   D T 600      59.733 -52.953 -25.162  1.00 28.72     0.019 A 
HETATM   22  CBB   D T 600      59.411 -50.865 -26.288  1.00 30.35     0.018 A 
HETATM   23  CAA   D T 600      60.384 -53.475 -26.268  1.00 24.81     0.002 A 
HETATM   24  CAB   D T 600      60.545 -52.684 -27.379  1.00 24.46     0.000 A 
HETATM   25  CAJ   D T 600      60.060 -51.385 -27.400  1.00 27.06     0.002 A 
ENDBRANCH  13  16
BRANCH  12  26
HETATM   26  NBD   D T 600      53.820 -44.429 -34.323  1.00 50.24    -0.344 N 
HETATM   27  CAP   D T 600      54.071 -44.887 -35.729  1.00 48.20     0.140 C 
HETATM   28  CAN   D T 600      52.761 -45.349 -36.358  1.00 44.02     0.314 C 
HETATM   29  NAU   D T 600      51.723 -44.334 -36.106  1.00 42.58     0.343 N 
HETATM   30  CAO   D T 600      51.514 -44.139 -34.656  1.00 41.76     0.314 C 
HETATM   31  CAQ   D T 600      52.739 -43.462 -34.073  1.00 40.50     0.140 C 
ENDBRANCH  12  26
TORSDOF 2
ENDMDL
MODEL 3
REMARK VINA RESULT:      -8.0      2.011     10.358
REMARK  2 active torsions:
REMARK  status: ('A' for Active; 'I' for Inactive)
REMARK    1  A    between atoms: CAX_24  and  NBD_30 
REMARK    2  A    between atoms: CAY_25  and  CAZ_26 
ROOT
HETATM    1  CAE   D T 600      56.771 -45.952 -32.864  1.00 46.04     0.002 A 
HETATM    2  CAF   D T 600      54.816 -45.976 -31.442  1.00 45.69     0.002 A 
HETATM    3  CAG   D T 600      56.047 -45.269 -33.831  1.00 45.75     0.017 A 
HETATM    4  CAH   D T 600      54.102 -45.279 -32.410  1.00 45.50     0.017 A 
HETATM    5  CAK   D T 600      57.935 -47.864 -30.936  1.00 35.53     0.102 A 
HETATM    6  CAL   D T 600      57.776 -48.323 -26.488  1.00 33.49     0.124 A 
HETATM    7  CAM   D T 600      56.429 -46.847 -29.349  1.00 37.51     0.104 A 
HETATM    8  NAS   D T 600      58.554 -48.503 -29.930  1.00 41.55    -0.225 NA
HETATM    9  NAT   D T 600      56.888 -47.524 -27.090  1.00 34.74    -0.162 NA
HETATM   10  CAV   D T 600      56.156 -46.327 -31.662  1.00 43.90     0.003 A 
HETATM   11  CAW   D T 600      56.848 -47.028 -30.667  1.00 37.17     0.038 A 
HETATM   12  CAX   D T 600      54.713 -44.933 -33.606  1.00 47.52     0.056 A 
HETATM   13  CAZ   D T 600      58.576 -48.851 -27.407  1.00 33.41     0.057 A 
HETATM   14  CBC   D T 600      58.154 -48.364 -28.633  1.00 37.64     0.165 A 
HETATM   15  NBE   D T 600      57.074 -47.519 -28.308  1.00 36.80    -0.211 N 
ENDROOT
BRANCH  13  16
HETATM   16  CAY   D T 600      59.625 -49.752 -27.186  1.00 35.53     0.007 A 
HETATM   17  CAD   D T 600      60.889 -49.472 -27.734  1.00 33.79     0.021 A 
HETATM   18  CAC   D T 600      61.936 -50.360 -27.524  1.00 29.73     0.099 A 
HETATM   19  NAR   D T 600      61.751 -51.466 -26.821  1.00 26.72    -0.244 NA
HETATM   20  CBA   D T 600      60.565 -51.763 -26.287  1.00 26.75     0.081 A 
HETATM   21  CAI   D T 600      60.428 -52.930 -25.550  1.00 28.72     0.019 A 
HETATM   22  CBB   D T 600      59.474 -50.925 -26.445  1.00 30.35     0.018 A 
HETATM   23  CAA   D T 600      59.220 -53.272 -24.966  1.00 24.81     0.002 A 
HETATM   24  CAB   D T 600      58.143 -52.434 -25.128  1.00 24.46     0.000 A 
HETATM   25  CAJ   D T 600      58.261 -51.262 -25.859  1.00 27.06     0.002 A 
ENDBRANCH  13  16
BRANCH  12  26
HETATM   26  NBD   D T 600      53.988 -44.191 -34.554  1.00 50.24    -0.344 N 
HETATM   27  CAP   D T 600      54.730 -43.323 -35.527  1.00 48.20     0.140 C 
HETATM   28  CAN   D T 600      54.441 -43.787 -36.950  1.00 44.02     0.314 C 
HETATM   29  NAU   D T 600      52.987 -43.968 -37.110  1.00 42.58     0.343 N 
HETATM   30  CAO   D T 600      52.472 -44.980 -36.164  1.00 41.76     0.314 C 
HETATM   31  CAQ   D T 600      52.549 -44.418 -34.758  1.00 40.50     0.140 C 
ENDBRANCH  12  26
TORSDOF 2
ENDMDL
MODEL 4
REMARK VINA RESULT:      -7.8      2.338      2.772
REMARK  2 active torsions:
REMARK  status: ('A' for Active; 'I' for Inactive)
REMARK    1  A    between atoms: CAX_24  and  NBD_30 
REMARK    2  A    between atoms: CAY_25  and  CAZ_26 
ROOT
HETATM    1  CAE   D T 600      58.970 -49.652 -29.034  1.00 46.04     0.002 A 
HETATM    2  CAF   D T 600      58.298 -48.132 -27.278  1.00 45.69     0.002 A 
HETATM    3  CAG   D T 600      59.483 -50.515 -28.076  1.00 45.75     0.017 A 
HETATM    4  CAH   D T 600      58.800 -49.010 -26.324  1.00 45.50     0.017 A 
HETATM    5  CAK   D T 600      58.330 -47.448 -30.895  1.00 35.53     0.102 A 
HETATM    6  CAL   D T 600      55.158 -44.297 -31.053  1.00 33.49     0.124 A 
HETATM    7  CAM   D T 600      56.822 -46.712 -29.161  1.00 37.51     0.104 A 
HETATM    8  NAS   D T 600      57.784 -46.559 -31.740  1.00 41.55    -0.225 NA
HETATM    9  NAT   D T 600      55.354 -44.964 -29.909  1.00 34.74    -0.162 NA
HETATM   10  CAV   D T 600      58.385 -48.440 -28.643  1.00 43.90     0.003 A 
HETATM   11  CAW   D T 600      57.867 -47.536 -29.579  1.00 37.17     0.038 A 
HETATM   12  CAX   D T 600      59.401 -50.195 -26.722  1.00 47.52     0.056 A 
HETATM   13  CAZ   D T 600      56.012 -44.744 -31.966  1.00 33.41     0.057 A 
HETATM   14  CBC   D T 600      56.776 -45.724 -31.355  1.00 37.64     0.165 A 
HETATM   15  NBE   D T 600      56.262 -45.786 -30.044  1.00 36.80    -0.211 N 
ENDROOT
BRANCH  13  16
HETATM   16  CAY   D T 600      56.138 -44.292 -33.285  1.00 35.53     0.007 A 
HETATM   17  CAD   D T 600      57.163 -43.382 -33.597  1.00 33.79     0.021 A 
HETATM   18  CAC   D T 600      57.296 -42.924 -34.902  1.00 29.73     0.099 A 
HETATM   19  NAR   D T 600      56.463 -43.330 -35.846  1.00 26.72    -0.244 NA
HETATM   20  CBA   D T 600      55.479 -44.193 -35.586  1.00 26.75     0.081 A 
HETATM   21  CAI   D T 600      54.641 -44.595 -36.615  1.00 28.72     0.019 A 
HETATM   22  CBB   D T 600      55.286 -44.701 -34.311  1.00 30.35     0.018 A 
HETATM   23  CAA   D T 600      53.615 -45.498 -36.394  1.00 24.81     0.002 A 
HETATM   24  CAB   D T 600      53.431 -45.997 -35.126  1.00 24.46     0.000 A 
HETATM   25  CAJ   D T 600      54.260 -45.609 -34.085  1.00 27.06     0.002 A 
ENDBRANCH  13  16
BRANCH  12  26
HETATM   26  NBD   D T 600      59.864 -51.089 -25.741  1.00 50.24    -0.344 N 
HETATM   27  CAP   D T 600      60.041 -50.603 -24.333  1.00 48.20     0.140 C 
HETATM   28  CAN   D T 600      59.141 -51.403 -23.399  1.00 44.02     0.314 C 
HETATM   29  NAU   D T 600      59.300 -52.838 -23.691  1.00 42.58     0.343 N 
HETATM   30  CAO   D T 600      58.926 -53.140 -25.088  1.00 41.76     0.314 C 
HETATM   31  CAQ   D T 600      59.962 -52.531 -26.013  1.00 40.50     0.140 C 
ENDBRANCH  12  26
TORSDOF 2
ENDMDL
MODEL 5
REMARK VINA RESULT:      -7.6      5.296     10.578
REMARK  2 active torsions:
REMARK  status: ('A' for Active; 'I' for Inactive)
REMARK    1  A    between atoms: CAX_24  and  NBD_30 
REMARK    2  A    between atoms: CAY_25  and  CAZ_26 
ROOT
HETATM    1  CAE   D T 600      55.902 -45.838 -26.950  1.00 46.04     0.002 A 
HETATM    2  CAF   D T 600      55.401 -46.662 -24.734  1.00 45.69     0.002 A 
HETATM    3  CAG   D T 600      54.905 -44.883 -26.810  1.00 45.75     0.017 A 
HETATM    4  CAH   D T 600      54.414 -45.694 -24.595  1.00 45.50     0.017 A 
HETATM    5  CAK   D T 600      57.564 -48.263 -27.246  1.00 35.53     0.102 A 
HETATM    6  CAL   D T 600      60.231 -50.592 -24.511  1.00 33.49     0.124 A 
HETATM    7  CAM   D T 600      57.732 -48.177 -24.841  1.00 37.51     0.104 A 
HETATM    8  NAS   D T 600      58.520 -49.204 -27.274  1.00 41.55    -0.225 NA
HETATM    9  NAT   D T 600      59.377 -49.705 -23.986  1.00 34.74    -0.162 NA
HETATM   10  CAV   D T 600      56.151 -46.750 -25.916  1.00 43.90     0.003 A 
HETATM   11  CAW   D T 600      57.139 -47.735 -26.023  1.00 37.17     0.038 A 
HETATM   12  CAX   D T 600      54.159 -44.811 -25.634  1.00 47.52     0.056 A 
HETATM   13  CAZ   D T 600      60.094 -50.594 -25.832  1.00 33.41     0.057 A 
HETATM   14  CBC   D T 600      59.103 -49.674 -26.134  1.00 37.64     0.165 A 
HETATM   15  NBE   D T 600      58.723 -49.161 -24.877  1.00 36.80    -0.211 N 
ENDROOT
BRANCH  13  16
HETATM   16  CAY   D T 600      60.794 -51.392 -26.744  1.00 35.53     0.007 A 
HETATM   17  CAD   D T 600      60.928 -52.767 -26.482  1.00 33.79     0.021 A 
HETATM   18  CAC   D T 600      61.624 -53.568 -27.379  1.00 29.73     0.099 A 
HETATM   19  NAR   D T 600      62.165 -53.048 -28.468  1.00 26.72    -0.244 NA
HETATM   20  CBA   D T 600      62.058 -51.748 -28.748  1.00 26.75     0.081 A 
HETATM   21  CAI   D T 600      62.634 -51.256 -29.909  1.00 28.72     0.019 A 
HETATM   22  CBB   D T 600      61.374 -50.884 -27.908  1.00 30.35     0.018 A 
HETATM   23  CAA   D T 600      62.536 -49.916 -30.247  1.00 24.81     0.002 A 
HETATM   24  CAB   D T 600      61.856 -49.067 -29.408  1.00 24.46     0.000 A 
HETATM   25  CAJ   D T 600      61.271 -49.541 -28.243  1.00 27.06     0.002 A 
ENDBRANCH  13  16
BRANCH  12  26
HETATM   26  NBD   D T 600      53.187 -43.812 -25.459  1.00 50.24    -0.344 N 
HETATM   27  CAP   D T 600      51.816 -44.199 -24.990  1.00 48.20     0.140 C 
HETATM   28  CAN   D T 600      51.515 -43.510 -23.663  1.00 44.02     0.314 C 
HETATM   29  NAU   D T 600      51.862 -42.082 -23.775  1.00 42.58     0.343 N 
HETATM   30  CAO   D T 600      53.295 -41.907 -24.090  1.00 41.76     0.314 C 
HETATM   31  CAQ   D T 600      53.545 -42.386 -25.507  1.00 40.50     0.140 C 
ENDBRANCH  12  26
TORSDOF 2
ENDMDL
MODEL 6
REMARK VINA RESULT:      -7.6      2.108     10.235
REMARK  2 active torsions:
REMARK  status: ('A' for Active; 'I' for Inactive)
REMARK    1  A    between atoms: CAX_24  and  NBD_30 
REMARK    2  A    between atoms: CAY_25  and  CAZ_26 
ROOT
HETATM    1  CAE   D T 600      57.116 -46.316 -32.204  1.00 46.04     0.002 A 
HETATM    2  CAF   D T 600      55.793 -45.415 -30.393  1.00 45.69     0.002 A 
HETATM    3  CAG   D T 600      56.541 -45.395 -33.069  1.00 45.75     0.017 A 
HETATM    4  CAH   D T 600      55.233 -44.486 -31.263  1.00 45.50     0.017 A 
HETATM    5  CAK   D T 600      57.781 -48.512 -30.343  1.00 35.53     0.102 A 
HETATM    6  CAL   D T 600      58.599 -48.764 -25.952  1.00 33.49     0.124 A 
HETATM    7  CAM   D T 600      57.343 -46.888 -28.614  1.00 37.51     0.104 A 
HETATM    8  NAS   D T 600      58.295 -49.344 -29.424  1.00 41.55    -0.225 NA
HETATM    9  NAT   D T 600      58.028 -47.658 -26.444  1.00 34.74    -0.162 NA
HETATM   10  CAV   D T 600      56.735 -46.345 -30.857  1.00 43.90     0.003 A 
HETATM   11  CAW   D T 600      57.282 -47.266 -29.955  1.00 37.17     0.038 A 
HETATM   12  CAX   D T 600      55.599 -44.481 -32.601  1.00 47.52     0.056 A 
HETATM   13  CAZ   D T 600      58.817 -49.617 -26.946  1.00 33.41     0.057 A 
HETATM   14  CBC   D T 600      58.349 -49.014 -28.102  1.00 37.64     0.165 A 
HETATM   15  NBE   D T 600      57.874 -47.761 -27.662  1.00 36.80    -0.211 N 
ENDROOT
BRANCH  13  16
HETATM   16  CAY   D T 600      59.382 -50.893 -26.844  1.00 35.53     0.007 A 
HETATM   17  CAD   D T 600      58.739 -51.861 -26.052  1.00 33.79     0.021 A 
HETATM   18  CAC   D T 600      59.294 -53.130 -25.941  1.00 29.73     0.099 A 
HETATM   19  NAR   D T 600      60.421 -53.430 -26.565  1.00 26.72    -0.244 NA
HETATM   20  CBA   D T 600      61.058 -52.537 -27.324  1.00 26.75     0.081 A 
HETATM   21  CAI   D T 600      62.230 -52.906 -27.966  1.00 28.72     0.019 A 
HETATM   22  CBB   D T 600      60.565 -51.252 -27.491  1.00 30.35     0.018 A 
HETATM   23  CAA   D T 600      62.918 -52.016 -28.774  1.00 24.81     0.002 A 
HETATM   24  CAB   D T 600      62.422 -50.744 -28.933  1.00 24.46     0.000 A 
HETATM   25  CAJ   D T 600      61.249 -50.357 -28.302  1.00 27.06     0.002 A 
ENDBRANCH  13  16
BRANCH  12  26
HETATM   26  NBD   D T 600      55.054 -43.507 -33.455  1.00 50.24    -0.344 N 
HETATM   27  CAP   D T 600      55.814 -43.103 -34.683  1.00 48.20     0.140 C 
HETATM   28  CAN   D T 600      54.982 -43.409 -35.924  1.00 44.02     0.314 C 
HETATM   29  NAU   D T 600      53.615 -42.899 -35.722  1.00 42.58     0.343 N 
HETATM   30  CAO   D T 600      52.978 -43.536 -34.551  1.00 41.76     0.314 C 
HETATM   31  CAQ   D T 600      53.667 -43.044 -33.293  1.00 40.50     0.140 C 
ENDBRANCH  12  26
TORSDOF 2
ENDMDL
MODEL 7
REMARK VINA RESULT:      -7.5      1.322      2.120
REMARK  2 active torsions:
REMARK  status: ('A' for Active; 'I' for Inactive)
REMARK    1  A    between atoms: CAX_24  and  NBD_30 
REMARK    2  A    between atoms: CAY_25  and  CAZ_26 
ROOT
HETATM    1  CAE   D T 600      57.786 -48.716 -28.193  1.00 46.04     0.002 A 
HETATM    2  CAF   D T 600      59.680 -47.948 -29.483  1.00 45.69     0.002 A 
HETATM    3  CAG   D T 600      58.624 -49.568 -27.487  1.00 45.75     0.017 A 
HETATM    4  CAH   D T 600      60.516 -48.792 -28.761  1.00 45.50     0.017 A 
HETATM    5  CAK   D T 600      56.127 -47.268 -30.163  1.00 35.53     0.102 A 
HETATM    6  CAL   D T 600      56.553 -43.413 -32.393  1.00 33.49     0.124 A 
HETATM    7  CAM   D T 600      58.087 -45.897 -30.481  1.00 37.51     0.104 A 
HETATM    8  NAS   D T 600      55.406 -46.395 -30.884  1.00 41.55    -0.225 NA
HETATM    9  NAT   D T 600      57.628 -43.939 -31.795  1.00 34.74    -0.162 NA
HETATM   10  CAV   D T 600      58.305 -47.906 -29.212  1.00 43.90     0.003 A 
HETATM   11  CAW   D T 600      57.491 -47.043 -29.955  1.00 37.17     0.038 A 
HETATM   12  CAX   D T 600      59.988 -49.609 -27.771  1.00 47.52     0.056 A 
HETATM   13  CAZ   D T 600      55.510 -44.207 -32.184  1.00 33.41     0.057 A 
HETATM   14  CBC   D T 600      55.965 -45.277 -31.432  1.00 37.64     0.165 A 
HETATM   15  NBE   D T 600      57.332 -44.996 -31.235  1.00 36.80    -0.211 N 
ENDROOT
BRANCH  13  16
HETATM   16  CAY   D T 600      54.206 -44.017 -32.657  1.00 35.53     0.007 A 
HETATM   17  CAD   D T 600      53.285 -43.322 -31.853  1.00 33.79     0.021 A 
HETATM   18  CAC   D T 600      51.987 -43.131 -32.312  1.00 29.73     0.099 A 
HETATM   19  NAR   D T 600      51.612 -43.603 -33.489  1.00 26.72    -0.244 NA
HETATM   20  CBA   D T 600      52.459 -44.267 -34.277  1.00 26.75     0.081 A 
HETATM   21  CAI   D T 600      52.018 -44.731 -35.507  1.00 28.72     0.019 A 
HETATM   22  CBB   D T 600      53.772 -44.492 -33.895  1.00 30.35     0.018 A 
HETATM   23  CAA   D T 600      52.865 -45.414 -36.363  1.00 24.81     0.002 A 
HETATM   24  CAB   D T 600      54.166 -45.633 -35.976  1.00 24.46     0.000 A 
HETATM   25  CAJ   D T 600      54.626 -45.174 -34.751  1.00 27.06     0.002 A 
ENDBRANCH  13  16
BRANCH  12  26
HETATM   26  NBD   D T 600      60.855 -50.424 -27.024  1.00 50.24    -0.344 N 
HETATM   27  CAP   D T 600      60.407 -50.936 -25.687  1.00 48.20     0.140 C 
HETATM   28  CAN   D T 600      60.388 -52.461 -25.703  1.00 44.02     0.314 C 
HETATM   29  NAU   D T 600      61.655 -52.950 -26.275  1.00 42.58     0.343 N 
HETATM   30  CAO   D T 600      61.837 -52.460 -27.657  1.00 41.76     0.314 C 
HETATM   31  CAQ   D T 600      62.088 -50.965 -27.616  1.00 40.50     0.140 C 
ENDBRANCH  12  26
TORSDOF 2
ENDMDL
MODEL 8
REMARK VINA RESULT:      -7.4      2.163     10.410
REMARK  2 active torsions:
REMARK  status: ('A' for Active; 'I' for Inactive)
REMARK    1  A    between atoms: CAX_24  and  NBD_30 
REMARK    2  A    between atoms: CAY_25  and  CAZ_26 
ROOT
HETATM    1  CAE   D T 600      56.569 -45.744 -32.275  1.00 46.04     0.002 A 
HETATM    2  CAF   D T 600      54.730 -45.530 -30.721  1.00 45.69     0.002 A 
HETATM    3  CAG   D T 600      55.867 -44.980 -33.197  1.00 45.75     0.017 A 
HETATM    4  CAH   D T 600      54.039 -44.753 -31.644  1.00 45.50     0.017 A 
HETATM    5  CAK   D T 600      57.628 -47.779 -30.413  1.00 35.53     0.102 A 
HETATM    6  CAL   D T 600      57.727 -48.208 -25.960  1.00 33.49     0.124 A 
HETATM    7  CAM   D T 600      56.369 -46.585 -28.736  1.00 37.51     0.104 A 
HETATM    8  NAS   D T 600      58.235 -48.486 -29.446  1.00 41.55    -0.225 NA
HETATM    9  NAT   D T 600      56.901 -47.309 -26.508  1.00 34.74    -0.162 NA
HETATM   10  CAV   D T 600      55.999 -46.040 -31.030  1.00 43.90     0.003 A 
HETATM   11  CAW   D T 600      56.670 -46.818 -30.078  1.00 37.17     0.038 A 
HETATM   12  CAX   D T 600      54.601 -44.486 -32.883  1.00 47.52     0.056 A 
HETATM   13  CAZ   D T 600      58.391 -48.830 -26.927  1.00 33.41     0.057 A 
HETATM   14  CBC   D T 600      57.946 -48.298 -28.126  1.00 37.64     0.165 A 
HETATM   15  NBE   D T 600      57.001 -47.328 -27.736  1.00 36.80    -0.211 N 
ENDROOT
BRANCH  13  16
HETATM   16  CAY   D T 600      59.337 -49.850 -26.770  1.00 35.53     0.007 A 
HETATM   17  CAD   D T 600      60.619 -49.679 -27.321  1.00 33.79     0.021 A 
HETATM   18  CAC   D T 600      61.565 -50.686 -27.174  1.00 29.73     0.099 A 
HETATM   19  NAR   D T 600      61.266 -51.802 -26.530  1.00 26.72    -0.244 NA
HETATM   20  CBA   D T 600      60.060 -51.998 -25.995  1.00 26.75     0.081 A 
HETATM   21  CAI   D T 600      59.803 -53.182 -25.321  1.00 28.72     0.019 A 
HETATM   22  CBB   D T 600      59.065 -51.039 -26.093  1.00 30.35     0.018 A 
HETATM   23  CAA   D T 600      58.569 -53.423 -24.739  1.00 24.81     0.002 A 
HETATM   24  CAB   D T 600      57.588 -52.466 -24.841  1.00 24.46     0.000 A 
HETATM   25  CAJ   D T 600      57.828 -51.275 -25.509  1.00 27.06     0.002 A 
ENDBRANCH  13  16
BRANCH  12  26
HETATM   26  NBD   D T 600      53.906 -43.663 -33.786  1.00 50.24    -0.344 N 
HETATM   27  CAP   D T 600      54.665 -42.974 -34.881  1.00 48.20     0.140 C 
HETATM   28  CAN   D T 600      54.136 -43.431 -36.236  1.00 44.02     0.314 C 
HETATM   29  NAU   D T 600      52.664 -43.362 -36.225  1.00 42.58     0.343 N 
HETATM   30  CAO   D T 600      52.100 -44.233 -35.173  1.00 41.76     0.314 C 
HETATM   31  CAQ   D T 600      52.436 -43.642 -33.818  1.00 40.50     0.140 C 
ENDBRANCH  12  26
TORSDOF 2
ENDMDL
MODEL 9
REMARK VINA RESULT:      -7.3      3.013      3.798
REMARK  2 active torsions:
REMARK  status: ('A' for Active; 'I' for Inactive)
REMARK    1  A    between atoms: CAX_24  and  NBD_30 
REMARK    2  A    between atoms: CAY_25  and  CAZ_26 
ROOT
HETATM    1  CAE   D T 600      59.157 -49.971 -28.907  1.00 46.04     0.002 A 
HETATM    2  CAF   D T 600      57.782 -48.850 -27.264  1.00 45.69     0.002 A 
HETATM    3  CAG   D T 600      59.609 -50.838 -27.923  1.00 45.75     0.017 A 
HETATM    4  CAH   D T 600      58.228 -49.732 -26.287  1.00 45.50     0.017 A 
HETATM    5  CAK   D T 600      58.503 -47.706 -30.688  1.00 35.53     0.102 A 
HETATM    6  CAL   D T 600      54.848 -45.223 -31.394  1.00 33.49     0.124 A 
HETATM    7  CAM   D T 600      56.511 -47.504 -29.341  1.00 37.51     0.104 A 
HETATM    8  NAS   D T 600      57.988 -46.835 -31.570  1.00 41.55    -0.225 NA
HETATM    9  NAT   D T 600      54.913 -45.985 -30.296  1.00 34.74    -0.162 NA
HETATM   10  CAV   D T 600      58.248 -48.955 -28.583  1.00 43.90     0.003 A 
HETATM   11  CAW   D T 600      57.778 -48.052 -29.544  1.00 37.17     0.038 A 
HETATM   12  CAX   D T 600      59.147 -50.720 -26.613  1.00 47.52     0.056 A 
HETATM   13  CAZ   D T 600      55.966 -45.376 -32.093  1.00 33.41     0.057 A 
HETATM   14  CBC   D T 600      56.762 -46.264 -31.388  1.00 37.64     0.165 A 
HETATM   15  NBE   D T 600      55.984 -46.594 -30.260  1.00 36.80    -0.211 N 
ENDROOT
BRANCH  13  16
HETATM   16  CAY   D T 600      56.294 -44.740 -33.297  1.00 35.53     0.007 A 
HETATM   17  CAD   D T 600      55.764 -45.243 -34.498  1.00 33.79     0.021 A 
HETATM   18  CAC   D T 600      56.085 -44.621 -35.699  1.00 29.73     0.099 A 
HETATM   19  NAR   D T 600      56.889 -43.571 -35.720  1.00 26.72    -0.244 NA
HETATM   20  CBA   D T 600      57.410 -43.068 -34.599  1.00 26.75     0.081 A 
HETATM   21  CAI   D T 600      58.238 -41.958 -34.676  1.00 28.72     0.019 A 
HETATM   22  CBB   D T 600      57.132 -43.626 -33.362  1.00 30.35     0.018 A 
HETATM   23  CAA   D T 600      58.790 -41.395 -33.538  1.00 24.81     0.002 A 
HETATM   24  CAB   D T 600      58.509 -41.955 -32.316  1.00 24.46     0.000 A 
HETATM   25  CAJ   D T 600      57.681 -43.063 -32.218  1.00 27.06     0.002 A 
ENDBRANCH  13  16
BRANCH  12  26
HETATM   26  NBD   D T 600      59.553 -51.629 -25.621  1.00 50.24    -0.344 N 
HETATM   27  CAP   D T 600      60.122 -51.104 -24.336  1.00 48.20     0.140 C 
HETATM   28  CAN   D T 600      59.251 -51.556 -23.169  1.00 44.02     0.314 C 
HETATM   29  NAU   D T 600      58.980 -52.998 -23.301  1.00 42.58     0.343 N 
HETATM   30  CAO   D T 600      58.273 -53.291 -24.566  1.00 41.76     0.314 C 
HETATM   31  CAQ   D T 600      59.226 -53.060 -25.722  1.00 40.50     0.140 C 
ENDBRANCH  12  26
TORSDOF 2
ENDMDL
