MODEL 1
REMARK VINA RESULT:    -8.595      0.000      0.000
REMARK INTER + INTRA:          -9.993
REMARK INTER:                  -9.599
REMARK INTRA:                  -0.394
REMARK UNBOUND:                -0.394
REMARK  2 active torsions:
REMARK  status: ('A' for Active; 'I' for Inactive)
REMARK    1  A    between atoms: CAX_24  and  NBD_30 
REMARK    2  A    between atoms: CAY_25  and  CAZ_26 
ROOT
HETATM    1  CAE   D T 600      -9.991   0.959  -5.922  1.00 46.04     0.002 A 
HETATM    2  CAF   D T 600      -8.280   2.416  -6.812  1.00 45.69     0.002 A 
HETATM    3  CAG   D T 600     -10.868   2.033  -5.874  1.00 45.75     0.017 A 
HETATM    4  CAH   D T 600      -9.169   3.484  -6.776  1.00 45.50     0.017 A 
HETATM    5  CAK   D T 600      -7.827  -1.026  -5.588  1.00 35.53     0.102 A 
HETATM    6  CAL   D T 600      -4.216  -2.163  -7.972  1.00 33.49     0.124 A 
HETATM    7  CAM   D T 600      -6.754   0.163  -7.392  1.00 37.51     0.104 A 
HETATM    8  NAS   D T 600      -6.913  -2.003  -5.694  1.00 41.55    -0.225 NA
HETATM    9  NAT   D T 600      -4.838  -1.009  -8.244  1.00 34.74    -0.162 NA
HETATM   10  CAV   D T 600      -8.679   1.143  -6.378  1.00 43.90     0.003 A 
HETATM   11  CAW   D T 600      -7.760   0.088  -6.429  1.00 37.17     0.038 A 
HETATM   12  CAX   D T 600     -10.458   3.296  -6.300  1.00 47.52     0.056 A 
HETATM   13  CAZ   D T 600      -4.851  -2.771  -6.977  1.00 33.41     0.057 A 
HETATM   14  CBC   D T 600      -5.903  -1.949  -6.611  1.00 37.64     0.165 A 
HETATM   15  NBE   D T 600      -5.803  -0.856  -7.494  1.00 36.80    -0.211 N 
ENDROOT
BRANCH  13  16
HETATM   16  CAY   D T 600      -4.505  -3.992  -6.387  1.00 35.53     0.007 A 
HETATM   17  CAD   D T 600      -3.324  -4.072  -5.628  1.00 33.79     0.021 A 
HETATM   18  CAC   D T 600      -2.969  -5.280  -5.042  1.00 29.73     0.099 A 
HETATM   19  NAR   D T 600      -3.727  -6.353  -5.198  1.00 26.72    -0.244 NA
HETATM   20  CBA   D T 600      -4.854  -6.315  -5.911  1.00 26.75     0.081 A 
HETATM   21  CAI   D T 600      -5.617  -7.465  -6.034  1.00 28.72     0.019 A 
HETATM   22  CBB   D T 600      -5.280  -5.145  -6.521  1.00 30.35     0.018 A 
HETATM   23  CAA   D T 600      -6.801  -7.468  -6.753  1.00 24.81     0.002 A 
HETATM   24  CAB   D T 600      -7.215  -6.304  -7.355  1.00 24.46     0.000 A 
HETATM   25  CAJ   D T 600      -6.467  -5.143  -7.241  1.00 27.06     0.002 A 
ENDBRANCH  13  16
BRANCH  12  26
HETATM   26  NBD   D T 600     -11.355   4.378  -6.312  1.00 50.24    -0.344 N 
HETATM   27  CAP   D T 600     -12.510   4.381  -5.356  1.00 48.20     0.140 C 
HETATM   28  CAN   D T 600     -12.411   5.596  -4.438  1.00 44.02     0.314 C 
HETATM   29  NAU   D T 600     -12.148   6.793  -5.254  1.00 42.58     0.343 N 
HETATM   30  CAO   D T 600     -10.881   6.658  -6.004  1.00 41.76     0.314 C 
HETATM   31  CAQ   D T 600     -11.061   5.600  -7.076  1.00 40.50     0.140 C 
ENDBRANCH  12  26
TORSDOF 2
ENDMDL
MODEL 2
REMARK VINA RESULT:    -8.285      1.033      2.115
REMARK INTER + INTRA:          -9.648
REMARK INTER:                  -9.533
REMARK INTRA:                  -0.115
REMARK UNBOUND:                -0.394
REMARK  2 active torsions:
REMARK  status: ('A' for Active; 'I' for Inactive)
REMARK    1  A    between atoms: CAX_24  and  NBD_30 
REMARK    2  A    between atoms: CAY_25  and  CAZ_26 
ROOT
HETATM    1  CAE   D T 600     -10.736   1.634  -5.968  1.00 46.04     0.002 A 
HETATM    2  CAF   D T 600      -8.731   2.942  -6.298  1.00 45.69     0.002 A 
HETATM    3  CAG   D T 600     -11.456   2.804  -5.772  1.00 45.75     0.017 A 
HETATM    4  CAH   D T 600      -9.461   4.110  -6.117  1.00 45.50     0.017 A 
HETATM    5  CAK   D T 600      -8.937  -0.707  -5.859  1.00 35.53     0.102 A 
HETATM    6  CAL   D T 600      -5.204  -1.898  -8.018  1.00 33.49     0.124 A 
HETATM    7  CAM   D T 600      -7.458   0.641  -7.207  1.00 37.51     0.104 A 
HETATM    8  NAS   D T 600      -8.159  -1.777  -6.084  1.00 41.55    -0.225 NA
HETATM    9  NAT   D T 600      -5.616  -0.626  -8.084  1.00 34.74    -0.162 NA
HETATM   10  CAV   D T 600      -9.360   1.691  -6.217  1.00 43.90     0.003 A 
HETATM   11  CAW   D T 600      -8.596   0.532  -6.407  1.00 37.17     0.038 A 
HETATM   12  CAX   D T 600     -10.820   4.043  -5.845  1.00 47.52     0.056 A 
HETATM   13  CAZ   D T 600      -6.055  -2.588  -7.268  1.00 33.41     0.057 A 
HETATM   14  CBC   D T 600      -7.028  -1.699  -6.843  1.00 37.64     0.165 A 
HETATM   15  NBE   D T 600      -6.651  -0.477  -7.433  1.00 36.80    -0.211 N 
ENDROOT
BRANCH  13  16
HETATM   16  CAY   D T 600      -5.970  -3.947  -6.942  1.00 35.53     0.007 A 
HETATM   17  CAD   D T 600      -7.037  -4.796  -7.281  1.00 33.79     0.021 A 
HETATM   18  CAC   D T 600      -6.966  -6.145  -6.958  1.00 29.73     0.099 A 
HETATM   19  NAR   D T 600      -5.909  -6.632  -6.330  1.00 26.72    -0.244 NA
HETATM   20  CBA   D T 600      -4.878  -5.856  -5.991  1.00 26.75     0.081 A 
HETATM   21  CAI   D T 600      -3.790  -6.419  -5.343  1.00 28.72     0.019 A 
HETATM   22  CBB   D T 600      -4.871  -4.502  -6.285  1.00 30.35     0.018 A 
HETATM   23  CAA   D T 600      -2.692  -5.654  -4.985  1.00 24.81     0.002 A 
HETATM   24  CAB   D T 600      -2.694  -4.312  -5.280  1.00 24.46     0.000 A 
HETATM   25  CAJ   D T 600      -3.771  -3.731  -5.931  1.00 27.06     0.002 A 
ENDBRANCH  13  16
BRANCH  12  26
HETATM   26  NBD   D T 600     -11.549   5.236  -5.708  1.00 50.24    -0.344 N 
HETATM   27  CAP   D T 600     -12.822   5.229  -4.915  1.00 48.20     0.140 C 
HETATM   28  CAN   D T 600     -12.695   6.188  -3.736  1.00 44.02     0.314 C 
HETATM   29  NAU   D T 600     -12.154   7.471  -4.217  1.00 42.58     0.343 N 
HETATM   30  CAO   D T 600     -10.821   7.288  -4.828  1.00 41.76     0.314 C 
HETATM   31  CAQ   D T 600     -10.981   6.527  -6.129  1.00 40.50     0.140 C 
ENDBRANCH  12  26
TORSDOF 2
ENDMDL
MODEL 3
REMARK VINA RESULT:    -8.282      2.333     10.361
REMARK INTER + INTRA:          -9.644
REMARK INTER:                  -9.578
REMARK INTRA:                  -0.066
REMARK UNBOUND:                -0.394
REMARK  2 active torsions:
REMARK  status: ('A' for Active; 'I' for Inactive)
REMARK    1  A    between atoms: CAX_24  and  NBD_30 
REMARK    2  A    between atoms: CAY_25  and  CAZ_26 
ROOT
HETATM    1  CAE   D T 600      -6.265  -1.277  -7.093  1.00 46.04     0.002 A 
HETATM    2  CAF   D T 600      -8.548  -2.042  -6.874  1.00 45.69     0.002 A 
HETATM    3  CAG   D T 600      -5.840  -2.595  -7.174  1.00 45.75     0.017 A 
HETATM    4  CAH   D T 600      -8.116  -3.360  -6.972  1.00 45.50     0.017 A 
HETATM    5  CAK   D T 600      -7.310   1.384  -6.346  1.00 35.53     0.102 A 
HETATM    6  CAL   D T 600     -11.065   3.646  -7.245  1.00 33.49     0.124 A 
HETATM    7  CAM   D T 600      -9.395   0.580  -7.257  1.00 37.51     0.104 A 
HETATM    8  NAS   D T 600      -7.822   2.623  -6.282  1.00 41.55    -0.225 NA
HETATM    9  NAT   D T 600     -11.024   2.330  -7.489  1.00 34.74    -0.162 NA
HETATM   10  CAV   D T 600      -7.625  -0.987  -6.926  1.00 43.90     0.003 A 
HETATM   11  CAW   D T 600      -8.092   0.330  -6.826  1.00 37.17     0.038 A 
HETATM   12  CAX   D T 600      -6.765  -3.638  -7.113  1.00 47.52     0.056 A 
HETATM   13  CAZ   D T 600      -9.894   4.029  -6.749  1.00 33.41     0.057 A 
HETATM   14  CBC   D T 600      -9.100   2.897  -6.674  1.00 37.64     0.165 A 
HETATM   15  NBE   D T 600      -9.922   1.872  -7.182  1.00 36.80    -0.211 N 
ENDROOT
BRANCH  13  16
HETATM   16  CAY   D T 600      -9.539   5.322  -6.349  1.00 35.53     0.007 A 
HETATM   17  CAD   D T 600     -10.311   5.967  -5.367  1.00 33.79     0.021 A 
HETATM   18  CAC   D T 600      -9.969   7.253  -4.965  1.00 29.73     0.099 A 
HETATM   19  NAR   D T 600      -8.933   7.874  -5.504  1.00 26.72    -0.244 NA
HETATM   20  CBA   D T 600      -8.179   7.293  -6.438  1.00 26.75     0.081 A 
HETATM   21  CAI   D T 600      -7.097   7.985  -6.962  1.00 28.72     0.019 A 
HETATM   22  CBB   D T 600      -8.450   6.010  -6.887  1.00 30.35     0.018 A 
HETATM   23  CAA   D T 600      -6.279   7.416  -7.924  1.00 24.81     0.002 A 
HETATM   24  CAB   D T 600      -6.556   6.144  -8.362  1.00 24.46     0.000 A 
HETATM   25  CAJ   D T 600      -7.631   5.435  -7.849  1.00 27.06     0.002 A 
ENDBRANCH  13  16
BRANCH  12  26
HETATM   26  NBD   D T 600      -6.353  -4.974  -7.253  1.00 50.24    -0.344 N 
HETATM   27  CAP   D T 600      -4.897  -5.309  -7.125  1.00 48.20     0.140 C 
HETATM   28  CAN   D T 600      -4.695  -6.277  -5.964  1.00 44.02     0.314 C 
HETATM   29  NAU   D T 600      -5.678  -7.369  -6.074  1.00 42.58     0.343 N 
HETATM   30  CAO   D T 600      -7.060  -6.846  -6.024  1.00 41.76     0.314 C 
HETATM   31  CAQ   D T 600      -7.333  -6.070  -7.298  1.00 40.50     0.140 C 
ENDBRANCH  12  26
TORSDOF 2
ENDMDL
MODEL 4
REMARK VINA RESULT:    -8.224      5.011      9.412
REMARK INTER + INTRA:          -9.579
REMARK INTER:                  -9.130
REMARK INTRA:                  -0.449
REMARK UNBOUND:                -0.394
REMARK  2 active torsions:
REMARK  status: ('A' for Active; 'I' for Inactive)
REMARK    1  A    between atoms: CAX_24  and  NBD_30 
REMARK    2  A    between atoms: CAY_25  and  CAZ_26 
ROOT
HETATM    1  CAE   D T 600      -4.180  -6.432  -6.321  1.00 46.04     0.002 A 
HETATM    2  CAF   D T 600      -6.566  -6.085  -6.494  1.00 45.69     0.002 A 
HETATM    3  CAG   D T 600      -3.999  -5.062  -6.195  1.00 45.75     0.017 A 
HETATM    4  CAH   D T 600      -6.378  -4.715  -6.351  1.00 45.50     0.017 A 
HETATM    5  CAK   D T 600      -4.738  -9.210  -7.157  1.00 35.53     0.102 A 
HETATM    6  CAL   D T 600      -8.010 -12.143  -6.315  1.00 33.49     0.124 A 
HETATM    7  CAM   D T 600      -6.921  -8.828  -6.202  1.00 37.51     0.104 A 
HETATM    8  NAS   D T 600      -5.019 -10.518  -7.264  1.00 41.55    -0.225 NA
HETATM    9  NAT   D T 600      -8.204 -10.851  -6.022  1.00 34.74    -0.162 NA
HETATM   10  CAV   D T 600      -5.467  -6.957  -6.489  1.00 43.90     0.003 A 
HETATM   11  CAW   D T 600      -5.690  -8.332  -6.633  1.00 37.17     0.038 A 
HETATM   12  CAX   D T 600      -5.096  -4.202  -6.211  1.00 47.52     0.056 A 
HETATM   13  CAZ   D T 600      -6.797 -12.291  -6.833  1.00 33.41     0.057 A 
HETATM   14  CBC   D T 600      -6.221 -11.032  -6.872  1.00 37.64     0.165 A 
HETATM   15  NBE   D T 600      -7.208 -10.190  -6.321  1.00 36.80    -0.211 N 
ENDROOT
BRANCH  13  16
HETATM   16  CAY   D T 600      -6.220 -13.484  -7.283  1.00 35.53     0.007 A 
HETATM   17  CAD   D T 600      -5.732 -14.403  -6.337  1.00 33.79     0.021 A 
HETATM   18  CAC   D T 600      -5.153 -15.588  -6.772  1.00 29.73     0.099 A 
HETATM   19  NAR   D T 600      -5.051 -15.853  -8.064  1.00 26.72    -0.244 NA
HETATM   20  CBA   D T 600      -5.502 -15.005  -8.989  1.00 26.75     0.081 A 
HETATM   21  CAI   D T 600      -5.380 -15.336 -10.330  1.00 28.72     0.019 A 
HETATM   22  CBB   D T 600      -6.099 -13.805  -8.635  1.00 30.35     0.018 A 
HETATM   23  CAA   D T 600      -5.846 -14.492 -11.324  1.00 24.81     0.002 A 
HETATM   24  CAB   D T 600      -6.436 -13.305 -10.963  1.00 24.46     0.000 A 
HETATM   25  CAJ   D T 600      -6.570 -12.957  -9.628  1.00 27.06     0.002 A 
ENDBRANCH  13  16
BRANCH  12  26
HETATM   26  NBD   D T 600      -4.931  -2.819  -6.024  1.00 50.24    -0.344 N 
HETATM   27  CAP   D T 600      -4.504  -1.970  -7.184  1.00 48.20     0.140 C 
HETATM   28  CAN   D T 600      -5.576  -0.925  -7.474  1.00 44.02     0.314 C 
HETATM   29  NAU   D T 600      -5.967  -0.275  -6.212  1.00 42.58     0.343 N 
HETATM   30  CAO   D T 600      -6.509  -1.260  -5.253  1.00 41.76     0.314 C 
HETATM   31  CAQ   D T 600      -5.381  -2.160  -4.788  1.00 40.50     0.140 C 
ENDBRANCH  12  26
TORSDOF 2
ENDMDL
MODEL 5
REMARK VINA RESULT:    -8.224      5.102     12.293
REMARK INTER + INTRA:          -9.579
REMARK INTER:                  -9.132
REMARK INTRA:                  -0.446
REMARK UNBOUND:                -0.394
REMARK  2 active torsions:
REMARK  status: ('A' for Active; 'I' for Inactive)
REMARK    1  A    between atoms: CAX_24  and  NBD_30 
REMARK    2  A    between atoms: CAY_25  and  CAZ_26 
ROOT
HETATM    1  CAE   D T 600      -5.220 -10.480  -7.850  1.00 46.04     0.002 A 
HETATM    2  CAF   D T 600      -7.547 -10.746  -8.446  1.00 45.69     0.002 A 
HETATM    3  CAG   D T 600      -4.974 -11.781  -8.265  1.00 45.75     0.017 A 
HETATM    4  CAH   D T 600      -7.290 -12.044  -8.874  1.00 45.50     0.017 A 
HETATM    5  CAK   D T 600      -6.066  -7.978  -6.525  1.00 35.53     0.102 A 
HETATM    6  CAL   D T 600      -9.044  -4.777  -7.474  1.00 33.49     0.124 A 
HETATM    7  CAM   D T 600      -7.878  -8.004  -8.117  1.00 37.51     0.104 A 
HETATM    8  NAS   D T 600      -6.400  -6.727  -6.172  1.00 41.55    -0.225 NA
HETATM    9  NAT   D T 600      -9.112  -5.943  -8.128  1.00 34.74    -0.162 NA
HETATM   10  CAV   D T 600      -6.516  -9.954  -7.921  1.00 43.90     0.003 A 
HETATM   11  CAW   D T 600      -6.807  -8.650  -7.500  1.00 37.17     0.038 A 
HETATM   12  CAX   D T 600      -6.008 -12.564  -8.776  1.00 47.52     0.056 A 
HETATM   13  CAZ   D T 600      -8.031  -4.821  -6.618  1.00 33.41     0.057 A 
HETATM   14  CBC   D T 600      -7.456  -6.075  -6.740  1.00 37.64     0.165 A 
HETATM   15  NBE   D T 600      -8.223  -6.703  -7.741  1.00 36.80    -0.211 N 
ENDROOT
BRANCH  13  16
HETATM   16  CAY   D T 600      -7.636  -3.808  -5.736  1.00 35.53     0.007 A 
HETATM   17  CAD   D T 600      -8.416  -3.560  -4.592  1.00 33.79     0.021 A 
HETATM   18  CAC   D T 600      -8.036  -2.554  -3.712  1.00 29.73     0.099 A 
HETATM   19  NAR   D T 600      -6.956  -1.828  -3.946  1.00 26.72    -0.244 NA
HETATM   20  CBA   D T 600      -6.193  -2.035  -5.020  1.00 26.75     0.081 A 
HETATM   21  CAI   D T 600      -5.065  -1.252  -5.211  1.00 28.72     0.019 A 
HETATM   22  CBB   D T 600      -6.501  -3.024  -5.941  1.00 30.35     0.018 A 
HETATM   23  CAA   D T 600      -4.236  -1.441  -6.304  1.00 24.81     0.002 A 
HETATM   24  CAB   D T 600      -4.550  -2.424  -7.212  1.00 24.46     0.000 A 
HETATM   25  CAJ   D T 600      -5.672  -3.219  -7.037  1.00 27.06     0.002 A 
ENDBRANCH  13  16
BRANCH  12  26
HETATM   26  NBD   D T 600      -5.759 -13.862  -9.255  1.00 50.24    -0.344 N 
HETATM   27  CAP   D T 600      -5.556 -14.977  -8.274  1.00 48.20     0.140 C 
HETATM   28  CAN   D T 600      -6.628 -16.042  -8.480  1.00 44.02     0.314 C 
HETATM   29  NAU   D T 600      -6.723 -16.355  -9.916  1.00 42.58     0.343 N 
HETATM   30  CAO   D T 600      -7.086 -15.155 -10.698  1.00 41.76     0.314 C 
HETATM   31  CAQ   D T 600      -5.917 -14.190 -10.680  1.00 40.50     0.140 C 
ENDBRANCH  12  26
TORSDOF 2
ENDMDL
MODEL 6
REMARK VINA RESULT:    -8.207      3.987     11.881
REMARK INTER + INTRA:          -9.560
REMARK INTER:                  -9.184
REMARK INTRA:                  -0.376
REMARK UNBOUND:                -0.394
REMARK  2 active torsions:
REMARK  status: ('A' for Active; 'I' for Inactive)
REMARK    1  A    between atoms: CAX_24  and  NBD_30 
REMARK    2  A    between atoms: CAY_25  and  CAZ_26 
ROOT
HETATM    1  CAE   D T 600      -6.804 -10.092  -6.747  1.00 46.04     0.002 A 
HETATM    2  CAF   D T 600      -4.571  -9.635  -7.552  1.00 45.69     0.002 A 
HETATM    3  CAG   D T 600      -6.647 -11.426  -7.095  1.00 45.75     0.017 A 
HETATM    4  CAH   D T 600      -4.415 -10.976  -7.883  1.00 45.50     0.017 A 
HETATM    5  CAK   D T 600      -7.125  -7.158  -6.608  1.00 35.53     0.102 A 
HETATM    6  CAL   D T 600      -4.441  -3.758  -5.487  1.00 33.49     0.124 A 
HETATM    7  CAM   D T 600      -4.725  -7.126  -6.361  1.00 37.51     0.104 A 
HETATM    8  NAS   D T 600      -7.170  -5.855  -6.287  1.00 41.55    -0.225 NA
HETATM    9  NAT   D T 600      -3.901  -4.957  -5.738  1.00 34.74    -0.162 NA
HETATM   10  CAV   D T 600      -5.771  -9.178  -6.988  1.00 43.90     0.003 A 
HETATM   11  CAW   D T 600      -5.896  -7.821  -6.664  1.00 37.17     0.038 A 
HETATM   12  CAX   D T 600      -5.453 -11.869  -7.663  1.00 47.52     0.056 A 
HETATM   13  CAZ   D T 600      -5.758  -3.838  -5.637  1.00 33.41     0.057 A 
HETATM   14  CBC   D T 600      -6.041  -5.142  -6.008  1.00 37.64     0.165 A 
HETATM   15  NBE   D T 600      -4.780  -5.769  -6.032  1.00 36.80    -0.211 N 
ENDROOT
BRANCH  13  16
HETATM   16  CAY   D T 600      -6.682  -2.798  -5.481  1.00 35.53     0.007 A 
HETATM   17  CAD   D T 600      -7.522  -2.798  -4.353  1.00 33.79     0.021 A 
HETATM   18  CAC   D T 600      -8.446  -1.773  -4.191  1.00 29.73     0.099 A 
HETATM   19  NAR   D T 600      -8.545  -0.807  -5.089  1.00 26.72    -0.244 NA
HETATM   20  CBA   D T 600      -7.765  -0.775  -6.170  1.00 26.75     0.081 A 
HETATM   21  CAI   D T 600      -7.903   0.266  -7.075  1.00 28.72     0.019 A 
HETATM   22  CBB   D T 600      -6.814  -1.757  -6.400  1.00 30.35     0.018 A 
HETATM   23  CAA   D T 600      -7.105   0.347  -8.204  1.00 24.81     0.002 A 
HETATM   24  CAB   D T 600      -6.165  -0.631  -8.424  1.00 24.46     0.000 A 
HETATM   25  CAJ   D T 600      -6.010  -1.679  -7.530  1.00 27.06     0.002 A 
ENDBRANCH  13  16
BRANCH  12  26
HETATM   26  NBD   D T 600      -5.260 -13.228  -7.965  1.00 50.24    -0.344 N 
HETATM   27  CAP   D T 600      -5.265 -14.233  -6.851  1.00 48.20     0.140 C 
HETATM   28  CAN   D T 600      -6.392 -15.237  -7.073  1.00 44.02     0.314 C 
HETATM   29  NAU   D T 600      -6.346 -15.708  -8.468  1.00 42.58     0.343 N 
HETATM   30  CAO   D T 600      -6.515 -14.585  -9.414  1.00 41.76     0.314 C 
HETATM   31  CAQ   D T 600      -5.279 -13.709  -9.355  1.00 40.50     0.140 C 
ENDBRANCH  12  26
TORSDOF 2
ENDMDL
MODEL 7
REMARK VINA RESULT:    -8.199      3.781     11.675
REMARK INTER + INTRA:          -9.551
REMARK INTER:                  -9.147
REMARK INTRA:                  -0.404
REMARK UNBOUND:                -0.394
REMARK  2 active torsions:
REMARK  status: ('A' for Active; 'I' for Inactive)
REMARK    1  A    between atoms: CAX_24  and  NBD_30 
REMARK    2  A    between atoms: CAY_25  and  CAZ_26 
ROOT
HETATM    1  CAE   D T 600      -6.676  -9.656  -6.827  1.00 46.04     0.002 A 
HETATM    2  CAF   D T 600      -4.286  -9.443  -7.117  1.00 45.69     0.002 A 
HETATM    3  CAG   D T 600      -6.561 -11.032  -6.959  1.00 45.75     0.017 A 
HETATM    4  CAH   D T 600      -4.176 -10.824  -7.234  1.00 45.50     0.017 A 
HETATM    5  CAK   D T 600      -6.761  -6.718  -7.130  1.00 35.53     0.102 A 
HETATM    6  CAL   D T 600      -4.122  -3.351  -5.820  1.00 33.49     0.124 A 
HETATM    7  CAM   D T 600      -4.491  -6.786  -6.316  1.00 37.51     0.104 A 
HETATM    8  NAS   D T 600      -6.765  -5.383  -6.992  1.00 41.55    -0.225 NA
HETATM    9  NAT   D T 600      -3.646  -4.602  -5.784  1.00 34.74    -0.162 NA
HETATM   10  CAV   D T 600      -5.539  -8.844  -6.921  1.00 43.90     0.003 A 
HETATM   11  CAW   D T 600      -5.616  -7.450  -6.805  1.00 37.17     0.038 A 
HETATM   12  CAX   D T 600      -5.311 -11.617  -7.164  1.00 47.52     0.056 A 
HETATM   13  CAZ   D T 600      -5.370  -3.377  -6.272  1.00 33.41     0.057 A 
HETATM   14  CBC   D T 600      -5.673  -4.701  -6.538  1.00 37.64     0.165 A 
HETATM   15  NBE   D T 600      -4.501  -5.396  -6.180  1.00 36.80    -0.211 N 
ENDROOT
BRANCH  13  16
HETATM   16  CAY   D T 600      -6.210  -2.275  -6.473  1.00 35.53     0.007 A 
HETATM   17  CAD   D T 600      -5.915  -1.376  -7.514  1.00 33.79     0.021 A 
HETATM   18  CAC   D T 600      -6.740  -0.277  -7.720  1.00 29.73     0.099 A 
HETATM   19  NAR   D T 600      -7.789  -0.067  -6.943  1.00 26.72    -0.244 NA
HETATM   20  CBA   D T 600      -8.099  -0.898  -5.946  1.00 26.75     0.081 A 
HETATM   21  CAI   D T 600      -9.216  -0.638  -5.169  1.00 28.72     0.019 A 
HETATM   22  CBB   D T 600      -7.330  -2.021  -5.682  1.00 30.35     0.018 A 
HETATM   23  CAA   D T 600      -9.583  -1.480  -4.133  1.00 24.81     0.002 A 
HETATM   24  CAB   D T 600      -8.814  -2.591  -3.877  1.00 24.46     0.000 A 
HETATM   25  CAJ   D T 600      -7.695  -2.870  -4.645  1.00 27.06     0.002 A 
ENDBRANCH  13  16
BRANCH  12  26
HETATM   26  NBD   D T 600      -5.174 -13.014  -7.240  1.00 50.24    -0.344 N 
HETATM   27  CAP   D T 600      -4.735 -13.774  -6.024  1.00 48.20     0.140 C 
HETATM   28  CAN   D T 600      -5.818 -14.771  -5.626  1.00 44.02     0.314 C 
HETATM   29  NAU   D T 600      -6.249 -15.514  -6.823  1.00 42.58     0.343 N 
HETATM   30  CAO   D T 600      -6.796 -14.600  -7.847  1.00 41.76     0.314 C 
HETATM   31  CAQ   D T 600      -5.664 -13.763  -8.408  1.00 40.50     0.140 C 
ENDBRANCH  12  26
TORSDOF 2
ENDMDL
MODEL 8
REMARK VINA RESULT:    -7.851      1.955      2.455
REMARK INTER + INTRA:          -9.163
REMARK INTER:                  -8.701
REMARK INTRA:                  -0.462
REMARK UNBOUND:                -0.394
REMARK  2 active torsions:
REMARK  status: ('A' for Active; 'I' for Inactive)
REMARK    1  A    between atoms: CAX_24  and  NBD_30 
REMARK    2  A    between atoms: CAY_25  and  CAZ_26 
ROOT
HETATM    1  CAE   D T 600     -11.585  -0.153  -4.706  1.00 46.04     0.002 A 
HETATM    2  CAF   D T 600     -10.491   1.792  -5.636  1.00 45.69     0.002 A 
HETATM    3  CAG   D T 600     -12.731   0.602  -4.500  1.00 45.75     0.017 A 
HETATM    4  CAH   D T 600     -11.648   2.537  -5.440  1.00 45.50     0.017 A 
HETATM    5  CAK   D T 600      -8.907  -1.401  -4.716  1.00 35.53     0.102 A 
HETATM    6  CAL   D T 600      -5.402  -1.285  -7.494  1.00 33.49     0.124 A 
HETATM    7  CAM   D T 600      -8.437   0.135  -6.517  1.00 37.51     0.104 A 
HETATM    8  NAS   D T 600      -7.762  -2.050  -4.977  1.00 41.55    -0.225 NA
HETATM    9  NAT   D T 600      -6.364  -0.363  -7.622  1.00 34.74    -0.162 NA
HETATM   10  CAV   D T 600     -10.445   0.440  -5.263  1.00 43.90     0.003 A 
HETATM   11  CAW   D T 600      -9.265  -0.284  -5.475  1.00 37.17     0.038 A 
HETATM   12  CAX   D T 600     -12.764   1.947  -4.865  1.00 47.52     0.056 A 
HETATM   13  CAZ   D T 600      -5.715  -2.099  -6.494  1.00 33.41     0.057 A 
HETATM   14  CBC   D T 600      -6.918  -1.652  -5.974  1.00 37.64     0.165 A 
HETATM   15  NBE   D T 600      -7.244  -0.542  -6.779  1.00 36.80    -0.211 N 
ENDROOT
BRANCH  13  16
HETATM   16  CAY   D T 600      -4.961  -3.183  -6.030  1.00 35.53     0.007 A 
HETATM   17  CAD   D T 600      -3.761  -2.932  -5.341  1.00 33.79     0.021 A 
HETATM   18  CAC   D T 600      -3.002  -4.001  -4.880  1.00 29.73     0.099 A 
HETATM   19  NAR   D T 600      -3.395  -5.246  -5.090  1.00 26.72    -0.244 NA
HETATM   20  CBA   D T 600      -4.527  -5.522  -5.740  1.00 26.75     0.081 A 
HETATM   21  CAI   D T 600      -4.898  -6.845  -5.924  1.00 28.72     0.019 A 
HETATM   22  CBB   D T 600      -5.343  -4.511  -6.224  1.00 30.35     0.018 A 
HETATM   23  CAA   D T 600      -6.071  -7.177  -6.580  1.00 24.81     0.002 A 
HETATM   24  CAB   D T 600      -6.873  -6.169  -7.057  1.00 24.46     0.000 A 
HETATM   25  CAJ   D T 600      -6.521  -4.840  -6.881  1.00 27.06     0.002 A 
ENDBRANCH  13  16
BRANCH  12  26
HETATM   26  NBD   D T 600     -13.937   2.706  -4.716  1.00 50.24    -0.344 N 
HETATM   27  CAP   D T 600     -15.224   2.007  -4.394  1.00 48.20     0.140 C 
HETATM   28  CAN   D T 600     -15.761   2.514  -3.059  1.00 44.02     0.314 C 
HETATM   29  NAU   D T 600     -15.721   3.986  -3.053  1.00 42.58     0.343 N 
HETATM   30  CAO   D T 600     -14.338   4.479  -3.229  1.00 41.76     0.314 C 
HETATM   31  CAQ   D T 600     -13.889   4.175  -4.645  1.00 40.50     0.140 C 
ENDBRANCH  12  26
TORSDOF 2
ENDMDL
MODEL 9
REMARK VINA RESULT:    -7.715      2.599     10.417
REMARK INTER + INTRA:          -9.011
REMARK INTER:                  -8.510
REMARK INTRA:                  -0.500
REMARK UNBOUND:                -0.394
REMARK  2 active torsions:
REMARK  status: ('A' for Active; 'I' for Inactive)
REMARK    1  A    between atoms: CAX_24  and  NBD_30 
REMARK    2  A    between atoms: CAY_25  and  CAZ_26 
ROOT
HETATM    1  CAE   D T 600      -6.629  -5.900  -5.890  1.00 46.04     0.002 A 
HETATM    2  CAF   D T 600      -8.027  -6.324  -7.816  1.00 45.69     0.002 A 
HETATM    3  CAG   D T 600      -6.345  -7.256  -5.809  1.00 45.75     0.017 A 
HETATM    4  CAH   D T 600      -7.725  -7.679  -7.738  1.00 45.50     0.017 A 
HETATM    5  CAK   D T 600      -7.796  -3.186  -5.907  1.00 35.53     0.102 A 
HETATM    6  CAL   D T 600      -9.004  -0.309  -9.114  1.00 33.49     0.124 A 
HETATM    7  CAM   D T 600      -8.132  -3.580  -8.263  1.00 37.51     0.104 A 
HETATM    8  NAS   D T 600      -8.113  -1.894  -6.083  1.00 41.55    -0.225 NA
HETATM    9  NAT   D T 600      -8.784  -1.589  -9.437  1.00 34.74    -0.162 NA
HETATM   10  CAV   D T 600      -7.488  -5.422  -6.887  1.00 43.90     0.003 A 
HETATM   11  CAW   D T 600      -7.810  -4.063  -6.995  1.00 37.17     0.038 A 
HETATM   12  CAX   D T 600      -6.893  -8.147  -6.732  1.00 47.52     0.056 A 
HETATM   13  CAZ   D T 600      -8.802  -0.153  -7.811  1.00 33.41     0.057 A 
HETATM   14  CBC   D T 600      -8.454  -1.395  -7.307  1.00 37.64     0.165 A 
HETATM   15  NBE   D T 600      -8.465  -2.235  -8.438  1.00 36.80    -0.211 N 
ENDROOT
BRANCH  13  16
HETATM   16  CAY   D T 600      -8.944   1.031  -7.078  1.00 35.53     0.007 A 
HETATM   17  CAD   D T 600      -7.896   1.968  -7.089  1.00 33.79     0.021 A 
HETATM   18  CAC   D T 600      -8.024   3.145  -6.363  1.00 29.73     0.099 A 
HETATM   19  NAR   D T 600      -9.117   3.386  -5.658  1.00 26.72    -0.244 NA
HETATM   20  CBA   D T 600     -10.131   2.520  -5.623  1.00 26.75     0.081 A 
HETATM   21  CAI   D T 600     -11.258   2.825  -4.877  1.00 28.72     0.019 A 
HETATM   22  CBB   D T 600     -10.082   1.327  -6.327  1.00 30.35     0.018 A 
HETATM   23  CAA   D T 600     -12.340   1.963  -4.823  1.00 24.81     0.002 A 
HETATM   24  CAB   D T 600     -12.283   0.782  -5.524  1.00 24.46     0.000 A 
HETATM   25  CAJ   D T 600     -11.166   0.459  -6.278  1.00 27.06     0.002 A 
ENDBRANCH  13  16
BRANCH  12  26
HETATM   26  NBD   D T 600      -6.566  -9.513  -6.696  1.00 50.24    -0.344 N 
HETATM   27  CAP   D T 600      -7.500 -10.472  -6.020  1.00 48.20     0.140 C 
HETATM   28  CAN   D T 600      -7.991 -11.504  -7.030  1.00 44.02     0.314 C 
HETATM   29  NAU   D T 600      -6.837 -12.031  -7.778  1.00 42.58     0.343 N 
HETATM   30  CAO   D T 600      -6.137 -10.950  -8.504  1.00 41.76     0.314 C 
HETATM   31  CAQ   D T 600      -5.453 -10.049  -7.495  1.00 40.50     0.140 C 
ENDBRANCH  12  26
TORSDOF 2
ENDMDL
