MODEL 1
REMARK VINA RESULT:    -9.383      0.000      0.000
REMARK INTER + INTRA:         -10.453
REMARK INTER:                 -10.480
REMARK INTRA:                   0.027
REMARK UNBOUND:                 0.027
REMARK  2 active torsions:
REMARK  status: ('A' for Active; 'I' for Inactive)
REMARK    1  A    between atoms: CAX_24  and  NBD_30 
REMARK    2  A    between atoms: CAY_25  and  CAZ_26 
ROOT
HETATM    1  CAE   D T 600       7.388   9.557   3.178  1.00 46.04     0.002 A 
HETATM    2  CAF   D T 600       5.497   9.973   1.730  1.00 45.69     0.002 A 
HETATM    3  CAG   D T 600       8.238  10.031   2.188  1.00 45.75     0.017 A 
HETATM    4  CAH   D T 600       6.353  10.460   0.750  1.00 45.50     0.017 A 
HETATM    5  CAK   D T 600       5.479   8.093   4.894  1.00 35.53     0.102 A 
HETATM    6  CAL   D T 600       1.204   8.703   6.062  1.00 33.49     0.124 A 
HETATM    7  CAM   D T 600       3.818   9.535   3.904  1.00 37.51     0.104 A 
HETATM    8  NAS   D T 600       4.574   7.677   5.794  1.00 41.55    -0.225 NA
HETATM    9  NAT   D T 600       1.696   9.384   5.021  1.00 34.74    -0.162 NA
HETATM   10  CAV   D T 600       6.006   9.509   2.951  1.00 43.90     0.003 A 
HETATM   11  CAW   D T 600       5.116   9.026   3.919  1.00 37.17     0.038 A 
HETATM   12  CAX   D T 600       7.723  10.481   0.974  1.00 47.52     0.056 A 
HETATM   13  CAZ   D T 600       2.161   7.931   6.565  1.00 33.41     0.057 A 
HETATM   14  CBC   D T 600       3.290   8.137   5.791  1.00 37.64     0.165 A 
HETATM   15  NBE   D T 600       2.879   9.092   4.840  1.00 36.80    -0.211 N 
ENDROOT
BRANCH  13  16
HETATM   16  CAY   D T 600       2.043   7.053   7.649  1.00 35.53     0.007 A 
HETATM   17  CAD   D T 600       2.997   7.113   8.680  1.00 33.79     0.021 A 
HETATM   18  CAC   D T 600       2.891   6.244   9.759  1.00 29.73     0.099 A 
HETATM   19  NAR   D T 600       1.909   5.359   9.818  1.00 26.72    -0.244 NA
HETATM   20  CBA   D T 600       0.987   5.274   8.857  1.00 26.75     0.081 A 
HETATM   21  CAI   D T 600      -0.027   4.335   8.974  1.00 28.72     0.019 A 
HETATM   22  CBB   D T 600       1.019   6.110   7.753  1.00 30.35     0.018 A 
HETATM   23  CAA   D T 600      -1.012   4.221   8.007  1.00 24.81     0.002 A 
HETATM   24  CAB   D T 600      -0.973   5.054   6.915  1.00 24.46     0.000 A 
HETATM   25  CAJ   D T 600       0.033   6.001   6.783  1.00 27.06     0.002 A 
ENDBRANCH  13  16
BRANCH  12  26
HETATM   26  NBD   D T 600       8.569  11.017  -0.012  1.00 50.24    -0.344 N 
HETATM   27  CAP   D T 600       7.965  11.752  -1.173  1.00 48.20     0.140 C 
HETATM   28  CAN   D T 600       8.474  13.191  -1.186  1.00 44.02     0.314 C 
HETATM   29  NAU   D T 600       9.937  13.184  -1.020  1.00 42.58     0.343 N 
HETATM   30  CAO   D T 600      10.322  12.554   0.261  1.00 41.76     0.314 C 
HETATM   31  CAQ   D T 600      10.026  11.069   0.183  1.00 40.50     0.140 C 
ENDBRANCH  12  26
TORSDOF 2
ENDMDL
MODEL 2
REMARK VINA RESULT:    -9.321      6.022     10.176
REMARK INTER + INTRA:         -10.384
REMARK INTER:                 -10.957
REMARK INTRA:                   0.573
REMARK UNBOUND:                 0.027
REMARK  2 active torsions:
REMARK  status: ('A' for Active; 'I' for Inactive)
REMARK    1  A    between atoms: CAX_24  and  NBD_30 
REMARK    2  A    between atoms: CAY_25  and  CAZ_26 
ROOT
HETATM    1  CAE   D T 600       6.477   3.960  10.453  1.00 46.04     0.002 A 
HETATM    2  CAF   D T 600       4.827   3.515  12.163  1.00 45.69     0.002 A 
HETATM    3  CAG   D T 600       7.460   3.435  11.279  1.00 45.75     0.017 A 
HETATM    4  CAH   D T 600       5.815   2.977  12.978  1.00 45.50     0.017 A 
HETATM    5  CAK   D T 600       4.354   5.518   9.112  1.00 35.53     0.102 A 
HETATM    6  CAL   D T 600      -0.063   5.018   8.607  1.00 33.49     0.124 A 
HETATM    7  CAM   D T 600       2.838   4.063  10.297  1.00 37.51     0.104 A 
HETATM    8  NAS   D T 600       3.328   5.983   8.381  1.00 41.55    -0.225 NA
HETATM    9  NAT   D T 600       0.572   4.289   9.533  1.00 34.74    -0.162 NA
HETATM   10  CAV   D T 600       5.148   4.019  10.895  1.00 43.90     0.003 A 
HETATM   11  CAW   D T 600       4.128   4.553  10.097  1.00 37.17     0.038 A 
HETATM   12  CAX   D T 600       7.132   2.945  12.541  1.00 47.52     0.056 A 
HETATM   13  CAZ   D T 600       0.819   5.795   7.989  1.00 33.41     0.057 A 
HETATM   14  CBC   D T 600       2.051   5.542   8.568  1.00 37.64     0.165 A 
HETATM   15  NBE   D T 600       1.775   4.556   9.537  1.00 36.80    -0.211 N 
ENDROOT
BRANCH  13  16
HETATM   16  CAY   D T 600       0.552   6.716   6.970  1.00 35.53     0.007 A 
HETATM   17  CAD   D T 600       1.417   7.812   6.799  1.00 33.79     0.021 A 
HETATM   18  CAC   D T 600       1.159   8.734   5.792  1.00 29.73     0.099 A 
HETATM   19  NAR   D T 600       0.106   8.595   5.004  1.00 26.72    -0.244 NA
HETATM   20  CBA   D T 600      -0.736   7.569   5.139  1.00 26.75     0.081 A 
HETATM   21  CAI   D T 600      -1.818   7.465   4.278  1.00 28.72     0.019 A 
HETATM   22  CBB   D T 600      -0.544   6.602   6.113  1.00 30.35     0.018 A 
HETATM   23  CAA   D T 600      -2.710   6.409   4.373  1.00 24.81     0.002 A 
HETATM   24  CAB   D T 600      -2.512   5.455   5.342  1.00 24.46     0.000 A 
HETATM   25  CAJ   D T 600      -1.433   5.542   6.210  1.00 27.06     0.002 A 
ENDBRANCH  13  16
BRANCH  12  26
HETATM   26  NBD   D T 600       8.110   2.358  13.362  1.00 50.24    -0.344 N 
HETATM   27  CAP   D T 600       9.549   2.412  12.939  1.00 48.20     0.140 C 
HETATM   28  CAN   D T 600      10.362   3.165  13.988  1.00 44.02     0.314 C 
HETATM   29  NAU   D T 600      10.023   2.642  15.323  1.00 42.58     0.343 N 
HETATM   30  CAO   D T 600       8.585   2.824  15.614  1.00 41.76     0.314 C 
HETATM   31  CAQ   D T 600       7.786   1.896  14.720  1.00 40.50     0.140 C 
ENDBRANCH  12  26
TORSDOF 2
ENDMDL
MODEL 3
REMARK VINA RESULT:    -9.295      5.683     11.038
REMARK INTER + INTRA:         -10.354
REMARK INTER:                 -10.520
REMARK INTRA:                   0.165
REMARK UNBOUND:                 0.027
REMARK  2 active torsions:
REMARK  status: ('A' for Active; 'I' for Inactive)
REMARK    1  A    between atoms: CAX_24  and  NBD_30 
REMARK    2  A    between atoms: CAY_25  and  CAZ_26 
ROOT
HETATM    1  CAE   D T 600       5.574   3.702  13.119  1.00 46.04     0.002 A 
HETATM    2  CAF   D T 600       7.129   3.069  11.379  1.00 45.69     0.002 A 
HETATM    3  CAG   D T 600       6.415   3.132  14.064  1.00 45.75     0.017 A 
HETATM    4  CAH   D T 600       7.973   2.513  12.334  1.00 45.50     0.017 A 
HETATM    5  CAK   D T 600       3.707   4.343  10.920  1.00 35.53     0.102 A 
HETATM    6  CAL   D T 600       4.154   6.135   6.846  1.00 33.49     0.124 A 
HETATM    7  CAM   D T 600       5.706   4.675   9.610  1.00 37.51     0.104 A 
HETATM    8  NAS   D T 600       2.977   4.886   9.934  1.00 41.55    -0.225 NA
HETATM    9  NAT   D T 600       5.245   5.697   7.486  1.00 34.74    -0.162 NA
HETATM   10  CAV   D T 600       5.918   3.662  11.761  1.00 43.90     0.003 A 
HETATM   11  CAW   D T 600       5.091   4.214  10.774  1.00 37.17     0.038 A 
HETATM   12  CAX   D T 600       7.613   2.536  13.674  1.00 47.52     0.056 A 
HETATM   13  CAZ   D T 600       3.090   5.929   7.613  1.00 33.41     0.057 A 
HETATM   14  CBC   D T 600       3.544   5.325   8.773  1.00 37.64     0.165 A 
HETATM   15  NBE   D T 600       4.938   5.234   8.585  1.00 36.80    -0.211 N 
ENDROOT
BRANCH  13  16
HETATM   16  CAY   D T 600       1.761   6.232   7.298  1.00 35.53     0.007 A 
HETATM   17  CAD   D T 600       0.762   5.283   7.574  1.00 33.79     0.021 A 
HETATM   18  CAC   D T 600      -0.561   5.572   7.263  1.00 29.73     0.099 A 
HETATM   19  NAR   D T 600      -0.884   6.727   6.703  1.00 26.72    -0.244 NA
HETATM   20  CBA   D T 600       0.038   7.651   6.426  1.00 26.75     0.081 A 
HETATM   21  CAI   D T 600      -0.357   8.848   5.849  1.00 28.72     0.019 A 
HETATM   22  CBB   D T 600       1.377   7.441   6.713  1.00 30.35     0.018 A 
HETATM   23  CAA   D T 600       0.565   9.840   5.557  1.00 24.81     0.002 A 
HETATM   24  CAB   D T 600       1.891   9.624   5.845  1.00 24.46     0.000 A 
HETATM   25  CAJ   D T 600       2.303   8.433   6.425  1.00 27.06     0.002 A 
ENDBRANCH  13  16
BRANCH  12  26
HETATM   26  NBD   D T 600       8.498   2.008  14.629  1.00 50.24    -0.344 N 
HETATM   27  CAP   D T 600       7.987   1.685  16.002  1.00 48.20     0.140 C 
HETATM   28  CAN   D T 600       8.172   0.196  16.279  1.00 44.02     0.314 C 
HETATM   29  NAU   D T 600       9.544  -0.193  15.912  1.00 42.58     0.343 N 
HETATM   30  CAO   D T 600       9.801   0.061  14.478  1.00 41.76     0.314 C 
HETATM   31  CAQ   D T 600       9.847   1.559  14.249  1.00 40.50     0.140 C 
ENDBRANCH  12  26
TORSDOF 2
ENDMDL
MODEL 4
REMARK VINA RESULT:    -9.274      1.591      2.765
REMARK INTER + INTRA:         -10.332
REMARK INTER:                  -9.847
REMARK INTRA:                  -0.484
REMARK UNBOUND:                 0.027
REMARK  2 active torsions:
REMARK  status: ('A' for Active; 'I' for Inactive)
REMARK    1  A    between atoms: CAX_24  and  NBD_30 
REMARK    2  A    between atoms: CAY_25  and  CAZ_26 
ROOT
HETATM    1  CAE   D T 600       6.033  10.132   1.835  1.00 46.04     0.002 A 
HETATM    2  CAF   D T 600       4.313  11.735   1.271  1.00 45.69     0.002 A 
HETATM    3  CAG   D T 600       6.882  10.735   0.918  1.00 45.75     0.017 A 
HETATM    4  CAH   D T 600       5.175  12.342   0.366  1.00 45.50     0.017 A 
HETATM    5  CAK   D T 600       3.908   8.687   3.294  1.00 35.53     0.102 A 
HETATM    6  CAL   D T 600       0.394   9.934   5.766  1.00 33.49     0.124 A 
HETATM    7  CAM   D T 600       2.858  10.852   3.471  1.00 37.51     0.104 A 
HETATM    8  NAS   D T 600       3.021   8.191   4.171  1.00 41.55    -0.225 NA
HETATM    9  NAT   D T 600       0.995  10.841   4.987  1.00 34.74    -0.162 NA
HETATM   10  CAV   D T 600       4.730  10.619   2.009  1.00 43.90     0.003 A 
HETATM   11  CAW   D T 600       3.838  10.031   2.915  1.00 37.17     0.038 A 
HETATM   12  CAX   D T 600       6.455  11.838   0.182  1.00 47.52     0.056 A 
HETATM   13  CAZ   D T 600       1.014   8.767   5.629  1.00 33.41     0.057 A 
HETATM   14  CBC   D T 600       2.036   8.962   4.715  1.00 37.64     0.165 A 
HETATM   15  NBE   D T 600       1.934  10.327   4.378  1.00 36.80    -0.211 N 
ENDROOT
BRANCH  13  16
HETATM   16  CAY   D T 600       0.680   7.564   6.260  1.00 35.53     0.007 A 
HETATM   17  CAD   D T 600      -0.466   6.868   5.838  1.00 33.79     0.021 A 
HETATM   18  CAC   D T 600      -0.808   5.674   6.460  1.00 29.73     0.099 A 
HETATM   19  NAR   D T 600      -0.071   5.194   7.449  1.00 26.72    -0.244 NA
HETATM   20  CBA   D T 600       1.023   5.828   7.875  1.00 26.75     0.081 A 
HETATM   21  CAI   D T 600       1.765   5.275   8.908  1.00 28.72     0.019 A 
HETATM   22  CBB   D T 600       1.435   7.020   7.301  1.00 30.35     0.018 A 
HETATM   23  CAA   D T 600       2.914   5.892   9.374  1.00 24.81     0.002 A 
HETATM   24  CAB   D T 600       3.316   7.074   8.799  1.00 24.46     0.000 A 
HETATM   25  CAJ   D T 600       2.586   7.640   7.763  1.00 27.06     0.002 A 
ENDBRANCH  13  16
BRANCH  12  26
HETATM   26  NBD   D T 600       7.326  12.492  -0.706  1.00 50.24    -0.344 N 
HETATM   27  CAP   D T 600       8.549  11.773  -1.194  1.00 48.20     0.140 C 
HETATM   28  CAN   D T 600       8.493  11.642  -2.712  1.00 44.02     0.314 C 
HETATM   29  NAU   D T 600       8.147  12.950  -3.294  1.00 42.58     0.343 N 
HETATM   30  CAO   D T 600       6.831  13.416  -2.807  1.00 41.76     0.314 C 
HETATM   31  CAQ   D T 600       6.952  13.767  -1.337  1.00 40.50     0.140 C 
ENDBRANCH  12  26
TORSDOF 2
ENDMDL
MODEL 5
REMARK VINA RESULT:    -9.160      1.201      2.318
REMARK INTER + INTRA:         -10.204
REMARK INTER:                  -9.908
REMARK INTRA:                  -0.297
REMARK UNBOUND:                 0.027
REMARK  2 active torsions:
REMARK  status: ('A' for Active; 'I' for Inactive)
REMARK    1  A    between atoms: CAX_24  and  NBD_30 
REMARK    2  A    between atoms: CAY_25  and  CAZ_26 
ROOT
HETATM    1  CAE   D T 600       6.897   9.591   3.428  1.00 46.04     0.002 A 
HETATM    2  CAF   D T 600       5.358  11.089   2.318  1.00 45.69     0.002 A 
HETATM    3  CAG   D T 600       7.944  10.148   2.706  1.00 45.75     0.017 A 
HETATM    4  CAH   D T 600       6.414  11.651   1.610  1.00 45.50     0.017 A 
HETATM    5  CAK   D T 600       4.489   8.197   4.422  1.00 35.53     0.102 A 
HETATM    6  CAL   D T 600       0.450   9.521   5.819  1.00 33.49     0.124 A 
HETATM    7  CAM   D T 600       3.403  10.335   4.147  1.00 37.51     0.104 A 
HETATM    8  NAS   D T 600       3.414   7.743   5.086  1.00 41.55    -0.225 NA
HETATM    9  NAT   D T 600       1.218  10.383   5.142  1.00 34.74    -0.162 NA
HETATM   10  CAV   D T 600       5.587  10.048   3.228  1.00 43.90     0.003 A 
HETATM   11  CAW   D T 600       4.501   9.504   3.926  1.00 37.17     0.038 A 
HETATM   12  CAX   D T 600       7.704  11.176   1.797  1.00 47.52     0.056 A 
HETATM   13  CAZ   D T 600       1.097   8.367   5.940  1.00 33.41     0.057 A 
HETATM   14  CBC   D T 600       2.315   8.523   5.299  1.00 37.64     0.165 A 
HETATM   15  NBE   D T 600       2.286   9.853   4.835  1.00 36.80    -0.211 N 
ENDROOT
BRANCH  13  16
HETATM   16  CAY   D T 600       0.628   7.207   6.566  1.00 35.53     0.007 A 
HETATM   17  CAD   D T 600      -0.498   6.555   6.035  1.00 33.79     0.021 A 
HETATM   18  CAC   D T 600      -0.974   5.404   6.651  1.00 29.73     0.099 A 
HETATM   19  NAR   D T 600      -0.382   4.925   7.733  1.00 26.72    -0.244 NA
HETATM   20  CBA   D T 600       0.688   5.518   8.264  1.00 26.75     0.081 A 
HETATM   21  CAI   D T 600       1.276   4.967   9.393  1.00 28.72     0.019 A 
HETATM   22  CBB   D T 600       1.228   6.665   7.704  1.00 30.35     0.018 A 
HETATM   23  CAA   D T 600       2.396   5.543   9.970  1.00 24.81     0.002 A 
HETATM   24  CAB   D T 600       2.925   6.680   9.408  1.00 24.46     0.000 A 
HETATM   25  CAJ   D T 600       2.351   7.243   8.278  1.00 27.06     0.002 A 
ENDBRANCH  13  16
BRANCH  12  26
HETATM   26  NBD   D T 600       8.764  11.786   1.104  1.00 50.24    -0.344 N 
HETATM   27  CAP   D T 600      10.173  11.368   1.408  1.00 48.20     0.140 C 
HETATM   28  CAN   D T 600      10.821  10.803   0.148  1.00 44.02     0.314 C 
HETATM   29  NAU   D T 600      10.568  11.722  -0.975  1.00 42.58     0.343 N 
HETATM   30  CAO   D T 600       9.118  11.880  -1.215  1.00 41.76     0.314 C 
HETATM   31  CAQ   D T 600       8.514  12.652  -0.058  1.00 40.50     0.140 C 
ENDBRANCH  12  26
TORSDOF 2
ENDMDL
MODEL 6
REMARK VINA RESULT:    -8.630      5.234     10.261
REMARK INTER + INTRA:          -9.612
REMARK INTER:                 -10.635
REMARK INTRA:                   1.023
REMARK UNBOUND:                 0.027
REMARK  2 active torsions:
REMARK  status: ('A' for Active; 'I' for Inactive)
REMARK    1  A    between atoms: CAX_24  and  NBD_30 
REMARK    2  A    between atoms: CAY_25  and  CAZ_26 
ROOT
HETATM    1  CAE   D T 600       6.226   3.702  10.251  1.00 46.04     0.002 A 
HETATM    2  CAF   D T 600       4.687   3.796  12.113  1.00 45.69     0.002 A 
HETATM    3  CAG   D T 600       7.194   3.170  11.092  1.00 45.75     0.017 A 
HETATM    4  CAH   D T 600       5.657   3.249  12.944  1.00 45.50     0.017 A 
HETATM    5  CAK   D T 600       4.236   5.334   8.800  1.00 35.53     0.102 A 
HETATM    6  CAL   D T 600      -0.234   5.448   8.668  1.00 33.49     0.124 A 
HETATM    7  CAM   D T 600       2.639   4.340  10.310  1.00 37.51     0.104 A 
HETATM    8  NAS   D T 600       3.227   5.829   8.067  1.00 41.55    -0.225 NA
HETATM    9  NAT   D T 600       0.370   4.788   9.664  1.00 34.74    -0.162 NA
HETATM   10  CAV   D T 600       4.964   4.035  10.760  1.00 43.90     0.003 A 
HETATM   11  CAW   D T 600       3.963   4.586   9.949  1.00 37.17     0.038 A 
HETATM   12  CAX   D T 600       6.912   2.945  12.437  1.00 47.52     0.056 A 
HETATM   13  CAZ   D T 600       0.691   5.971   7.872  1.00 33.41     0.057 A 
HETATM   14  CBC   D T 600       1.921   5.626   8.407  1.00 37.64     0.165 A 
HETATM   15  NBE   D T 600       1.594   4.863   9.545  1.00 36.80    -0.211 N 
ENDROOT
BRANCH  13  16
HETATM   16  CAY   D T 600       0.469   6.747   6.729  1.00 35.53     0.007 A 
HETATM   17  CAD   D T 600      -0.618   6.435   5.895  1.00 33.79     0.021 A 
HETATM   18  CAC   D T 600      -0.846   7.198   4.756  1.00 29.73     0.099 A 
HETATM   19  NAR   D T 600      -0.045   8.205   4.448  1.00 26.72    -0.244 NA
HETATM   20  CBA   D T 600       0.996   8.529   5.217  1.00 26.75     0.081 A 
HETATM   21  CAI   D T 600       1.796   9.602   4.853  1.00 28.72     0.019 A 
HETATM   22  CBB   D T 600       1.285   7.823   6.373  1.00 30.35     0.018 A 
HETATM   23  CAA   D T 600       2.880   9.981   5.628  1.00 24.81     0.002 A 
HETATM   24  CAB   D T 600       3.160   9.275   6.773  1.00 24.46     0.000 A 
HETATM   25  CAJ   D T 600       2.368   8.201   7.153  1.00 27.06     0.002 A 
ENDBRANCH  13  16
BRANCH  12  26
HETATM   26  NBD   D T 600       7.866   2.353  13.283  1.00 50.24    -0.344 N 
HETATM   27  CAP   D T 600       9.234   2.052  12.746  1.00 48.20     0.140 C 
HETATM   28  CAN   D T 600      10.278   2.825  13.547  1.00 44.02     0.314 C 
HETATM   29  NAU   D T 600      10.012   2.642  14.984  1.00 42.58     0.343 N 
HETATM   30  CAO   D T 600       8.669   3.144  15.343  1.00 41.76     0.314 C 
HETATM   31  CAQ   D T 600       7.627   2.229  14.729  1.00 40.50     0.140 C 
ENDBRANCH  12  26
TORSDOF 2
ENDMDL
MODEL 7
REMARK VINA RESULT:    -8.547      2.613      3.538
REMARK INTER + INTRA:          -9.520
REMARK INTER:                 -10.117
REMARK INTRA:                   0.598
REMARK UNBOUND:                 0.027
REMARK  2 active torsions:
REMARK  status: ('A' for Active; 'I' for Inactive)
REMARK    1  A    between atoms: CAX_24  and  NBD_30 
REMARK    2  A    between atoms: CAY_25  and  CAZ_26 
ROOT
HETATM    1  CAE   D T 600       3.460  10.594   1.211  1.00 46.04     0.002 A 
HETATM    2  CAF   D T 600       4.533  12.077   2.791  1.00 45.69     0.002 A 
HETATM    3  CAG   D T 600       3.861  11.425   0.174  1.00 45.75     0.017 A 
HETATM    4  CAH   D T 600       4.944  12.896   1.745  1.00 45.50     0.017 A 
HETATM    5  CAK   D T 600       2.254   9.296   3.576  1.00 35.53     0.102 A 
HETATM    6  CAL   D T 600       3.688   8.344   7.705  1.00 33.49     0.124 A 
HETATM    7  CAM   D T 600       4.186  10.136   4.752  1.00 37.51     0.104 A 
HETATM    8  NAS   D T 600       1.935   8.549   4.644  1.00 41.55    -0.225 NA
HETATM    9  NAT   D T 600       4.381   9.214   6.962  1.00 34.74    -0.162 NA
HETATM   10  CAV   D T 600       3.780  10.923   2.535  1.00 43.90     0.003 A 
HETATM   11  CAW   D T 600       3.384  10.119   3.612  1.00 37.17     0.038 A 
HETATM   12  CAX   D T 600       4.601  12.576   0.439  1.00 47.52     0.056 A 
HETATM   13  CAZ   D T 600       2.641   7.916   7.008  1.00 33.41     0.057 A 
HETATM   14  CBC   D T 600       2.685   8.561   5.784  1.00 37.64     0.165 A 
HETATM   15  NBE   D T 600       3.844   9.360   5.862  1.00 36.80    -0.211 N 
ENDROOT
BRANCH  13  16
HETATM   16  CAY   D T 600       1.663   7.013   7.438  1.00 35.53     0.007 A 
HETATM   17  CAD   D T 600       0.384   7.065   6.856  1.00 33.79     0.021 A 
HETATM   18  CAC   D T 600      -0.595   6.175   7.277  1.00 29.73     0.099 A 
HETATM   19  NAR   D T 600      -0.337   5.287   8.224  1.00 26.72    -0.244 NA
HETATM   20  CBA   D T 600       0.865   5.209   8.798  1.00 26.75     0.081 A 
HETATM   21  CAI   D T 600       1.085   4.253   9.778  1.00 28.72     0.019 A 
HETATM   22  CBB   D T 600       1.897   6.056   8.428  1.00 30.35     0.018 A 
HETATM   23  CAA   D T 600       2.321   4.127  10.391  1.00 24.81     0.002 A 
HETATM   24  CAB   D T 600       3.338   4.972  10.018  1.00 24.46     0.000 A 
HETATM   25  CAJ   D T 600       3.137   5.933   9.038  1.00 27.06     0.002 A 
ENDBRANCH  13  16
BRANCH  12  26
HETATM   26  NBD   D T 600       5.062  13.392  -0.608  1.00 50.24    -0.344 N 
HETATM   27  CAP   D T 600       4.326  13.389  -1.916  1.00 48.20     0.140 C 
HETATM   28  CAN   D T 600       3.805  14.793  -2.211  1.00 44.02     0.314 C 
HETATM   29  NAU   D T 600       4.893  15.763  -1.999  1.00 42.58     0.343 N 
HETATM   30  CAO   D T 600       5.377  15.718  -0.603  1.00 41.76     0.314 C 
HETATM   31  CAQ   D T 600       6.103  14.406  -0.381  1.00 40.50     0.140 C 
ENDBRANCH  12  26
TORSDOF 2
ENDMDL
MODEL 8
REMARK VINA RESULT:    -8.531      3.187     10.237
REMARK INTER + INTRA:          -9.502
REMARK INTER:                  -9.599
REMARK INTRA:                   0.097
REMARK UNBOUND:                 0.027
REMARK  2 active torsions:
REMARK  status: ('A' for Active; 'I' for Inactive)
REMARK    1  A    between atoms: CAX_24  and  NBD_30 
REMARK    2  A    between atoms: CAY_25  and  CAZ_26 
ROOT
HETATM    1  CAE   D T 600       2.910   8.186   6.471  1.00 46.04     0.002 A 
HETATM    2  CAF   D T 600       4.861   7.011   5.660  1.00 45.69     0.002 A 
HETATM    3  CAG   D T 600       2.970   7.453   7.648  1.00 45.75     0.017 A 
HETATM    4  CAH   D T 600       4.923   6.291   6.847  1.00 45.50     0.017 A 
HETATM    5  CAK   D T 600       2.646   9.212   3.713  1.00 35.53     0.102 A 
HETATM    6  CAL   D T 600       5.537  10.529   0.564  1.00 33.49     0.124 A 
HETATM    7  CAM   D T 600       5.028   8.852   3.581  1.00 37.51     0.104 A 
HETATM    8  NAS   D T 600       2.689   9.884   2.551  1.00 41.55    -0.225 NA
HETATM    9  NAT   D T 600       5.991   9.828   1.609  1.00 34.74    -0.162 NA
HETATM   10  CAV   D T 600       3.850   7.960   5.456  1.00 43.90     0.003 A 
HETATM   11  CAW   D T 600       3.817   8.669   4.248  1.00 37.17     0.038 A 
HETATM   12  CAX   D T 600       3.974   6.505   7.837  1.00 47.52     0.056 A 
HETATM   13  CAZ   D T 600       4.226  10.697   0.691  1.00 33.41     0.057 A 
HETATM   14  CBC   D T 600       3.853  10.060   1.862  1.00 37.64     0.165 A 
HETATM   15  NBE   D T 600       5.064   9.548   2.370  1.00 36.80    -0.211 N 
ENDROOT
BRANCH  13  16
HETATM   16  CAY   D T 600       3.377  11.361  -0.202  1.00 35.53     0.007 A 
HETATM   17  CAD   D T 600       2.174  10.743  -0.586  1.00 33.79     0.021 A 
HETATM   18  CAC   D T 600       1.326  11.392  -1.474  1.00 29.73     0.099 A 
HETATM   19  NAR   D T 600       1.645  12.578  -1.966  1.00 26.72    -0.244 NA
HETATM   20  CBA   D T 600       2.779  13.194  -1.624  1.00 26.75     0.081 A 
HETATM   21  CAI   D T 600       3.059  14.441  -2.161  1.00 28.72     0.019 A 
HETATM   22  CBB   D T 600       3.673  12.616  -0.738  1.00 30.35     0.018 A 
HETATM   23  CAA   D T 600       4.217  15.122  -1.825  1.00 24.81     0.002 A 
HETATM   24  CAB   D T 600       5.099  14.541  -0.945  1.00 24.46     0.000 A 
HETATM   25  CAJ   D T 600       4.834  13.295  -0.396  1.00 27.06     0.002 A 
ENDBRANCH  13  16
BRANCH  12  26
HETATM   26  NBD   D T 600       4.078   5.799   9.047  1.00 50.24    -0.344 N 
HETATM   27  CAP   D T 600       2.903   5.768   9.980  1.00 48.20     0.140 C 
HETATM   28  CAN   D T 600       2.449   4.326  10.181  1.00 44.02     0.314 C 
HETATM   29  NAU   D T 600       3.624   3.489  10.476  1.00 42.58     0.343 N 
HETATM   30  CAO   D T 600       4.597   3.531   9.365  1.00 41.76     0.314 C 
HETATM   31  CAQ   D T 600       5.221   4.912   9.315  1.00 40.50     0.140 C 
ENDBRANCH  12  26
TORSDOF 2
ENDMDL
MODEL 9
REMARK VINA RESULT:    -8.462      7.437     11.501
REMARK INTER + INTRA:          -9.425
REMARK INTER:                  -9.176
REMARK INTRA:                  -0.249
REMARK UNBOUND:                 0.027
REMARK  2 active torsions:
REMARK  status: ('A' for Active; 'I' for Inactive)
REMARK    1  A    between atoms: CAX_24  and  NBD_30 
REMARK    2  A    between atoms: CAY_25  and  CAZ_26 
ROOT
HETATM    1  CAE   D T 600       2.495   3.681  10.544  1.00 46.04     0.002 A 
HETATM    2  CAF   D T 600       3.722   5.548   9.619  1.00 45.69     0.002 A 
HETATM    3  CAG   D T 600       1.338   4.155   9.941  1.00 45.75     0.017 A 
HETATM    4  CAH   D T 600       2.562   6.007   9.006  1.00 45.50     0.017 A 
HETATM    5  CAK   D T 600       4.911   3.174  12.168  1.00 35.53     0.102 A 
HETATM    6  CAL   D T 600       9.312   3.474  11.423  1.00 33.49     0.124 A 
HETATM    7  CAM   D T 600       6.084   4.290  10.379  1.00 37.51     0.104 A 
HETATM    8  NAS   D T 600       6.086   2.787  12.689  1.00 41.55    -0.225 NA
HETATM    9  NAT   D T 600       8.467   4.069  10.572  1.00 34.74    -0.162 NA
HETATM   10  CAV   D T 600       3.699   4.384  10.401  1.00 43.90     0.003 A 
HETATM   11  CAW   D T 600       4.885   3.947  11.004  1.00 37.17     0.038 A 
HETATM   12  CAX   D T 600       1.369   5.318   9.174  1.00 47.52     0.056 A 
HETATM   13  CAZ   D T 600       8.613   2.878  12.381  1.00 33.41     0.057 A 
HETATM   14  CBC   D T 600       7.277   3.126  12.115  1.00 37.64     0.165 A 
HETATM   15  NBE   D T 600       7.303   3.888  10.930  1.00 36.80    -0.211 N 
ENDROOT
BRANCH  13  16
HETATM   16  CAY   D T 600       9.126   2.163  13.469  1.00 35.53     0.007 A 
HETATM   17  CAD   D T 600       8.881   2.635  14.771  1.00 33.79     0.021 A 
HETATM   18  CAC   D T 600       9.388   1.935  15.858  1.00 29.73     0.099 A 
HETATM   19  NAR   D T 600      10.105   0.837  15.678  1.00 26.72    -0.244 NA
HETATM   20  CBA   D T 600      10.356   0.360  14.457  1.00 26.75     0.081 A 
HETATM   21  CAI   D T 600      11.103  -0.801  14.326  1.00 28.72     0.019 A 
HETATM   22  CBB   D T 600       9.879   0.997  13.323  1.00 30.35     0.018 A 
HETATM   23  CAA   D T 600      11.378  -1.338  13.079  1.00 24.81     0.002 A 
HETATM   24  CAB   D T 600      10.901  -0.700  11.959  1.00 24.46     0.000 A 
HETATM   25  CAJ   D T 600      10.150   0.461  12.073  1.00 27.06     0.002 A 
ENDBRANCH  13  16
BRANCH  12  26
HETATM   26  NBD   D T 600       0.217   5.774   8.512  1.00 50.24    -0.344 N 
HETATM   27  CAP   D T 600       0.291   7.033   7.698  1.00 48.20     0.140 C 
HETATM   28  CAN   D T 600      -0.050   6.722   6.244  1.00 44.02     0.314 C 
HETATM   29  NAU   D T 600      -1.277   5.908   6.202  1.00 42.58     0.343 N 
HETATM   30  CAO   D T 600      -1.094   4.635   6.931  1.00 41.76     0.314 C 
HETATM   31  CAQ   D T 600      -0.987   4.934   8.414  1.00 40.50     0.140 C 
ENDBRANCH  12  26
TORSDOF 2
ENDMDL
