MODEL 1
REMARK VINA RESULT:    -7.612      0.000      0.000
REMARK INTER + INTRA:          -9.030
REMARK INTER:                  -8.502
REMARK INTRA:                  -0.528
REMARK UNBOUND:                -0.528
REMARK  2 active torsions:
REMARK  status: ('A' for Active; 'I' for Inactive)
REMARK    1  A    between atoms: C5_4  and  O7_13 
REMARK    2  A    between atoms: C8_10  and  O7_13 
ROOT
HETATM    1  O7    D T 262       6.810   1.021  -6.947  1.00 33.42    -0.304 OA
ENDROOT
BRANCH   1   2
HETATM    2  C5    D T 262       7.042   1.287  -8.307  1.00 32.62     0.125 A 
HETATM    3  C6    D T 262       8.274   1.853  -8.683  1.00 29.39     0.154 A 
HETATM    4  C1    D T 262       8.544   2.137 -10.061  1.00 31.49     0.041 A 
HETATM    5  O17   D T 262       9.184   2.115  -7.699  1.00 29.04    -0.188 OA
HETATM    6  C2    D T 262       7.554   1.845 -11.054  1.00 34.86     0.060 A 
HETATM    7  C3    D T 262       6.312   1.277 -10.667  1.00 33.50     0.014 A 
HETATM    8 CL14   D T 262       7.852   2.172 -12.679  1.00 29.54    -0.082 Cl
HETATM    9  C4    D T 262       6.045   0.991  -9.292  1.00 31.24     0.028 A 
ENDBRANCH   1   2
BRANCH   1  10
HETATM   10  C8    D T 262       5.871   1.780  -6.243  1.00 31.42     0.111 A 
HETATM   11  C9    D T 262       4.635   1.134  -5.850  1.00 37.59     0.081 A 
HETATM   12  C10   D T 262       3.651   1.863  -5.136  1.00 33.67     0.025 A 
HETATM   13 CL16   D T 262       4.325  -0.510  -6.231  1.00 45.56    -0.080 Cl
HETATM   14  C11   D T 262       3.920   3.246  -4.821  1.00 34.31     0.059 A 
HETATM   15  C12   D T 262       5.128   3.886  -5.203  1.00 35.02     0.013 A 
HETATM   16 CL15   D T 262       2.753   4.112  -3.975  1.00 38.98    -0.082 Cl
HETATM   17  C13   D T 262       6.109   3.165  -5.913  1.00 36.05     0.026 A 
ENDBRANCH   1  10
TORSDOF 2
ENDMDL
MODEL 2
REMARK VINA RESULT:    -7.596      1.561      6.165
REMARK INTER + INTRA:          -9.012
REMARK INTER:                  -8.493
REMARK INTRA:                  -0.519
REMARK UNBOUND:                -0.528
REMARK  2 active torsions:
REMARK  status: ('A' for Active; 'I' for Inactive)
REMARK    1  A    between atoms: C5_4  and  O7_13 
REMARK    2  A    between atoms: C8_10  and  O7_13 
ROOT
HETATM    1  O7    D T 262       6.798   1.118  -6.672  1.00 33.42    -0.304 OA
ENDROOT
BRANCH   1   2
HETATM    2  C5    D T 262       5.836   1.904  -6.016  1.00 32.62     0.125 A 
HETATM    3  C6    D T 262       4.659   1.284  -5.555  1.00 29.39     0.154 A 
HETATM    4  C1    D T 262       3.657   2.056  -4.881  1.00 31.49     0.041 A 
HETATM    5  O17   D T 262       4.515  -0.056  -5.771  1.00 29.04    -0.188 OA
HETATM    6  C2    D T 262       3.856   3.460  -4.681  1.00 34.86     0.060 A 
HETATM    7  C3    D T 262       5.044   4.078  -5.152  1.00 33.50     0.014 A 
HETATM    8 CL14   D T 262       2.690   4.384  -3.891  1.00 29.54    -0.082 Cl
HETATM    9  C4    D T 262       6.044   3.308  -5.821  1.00 31.24     0.028 A 
ENDBRANCH   1   2
BRANCH   1  10
HETATM   10  C8    D T 262       7.047   1.321  -8.033  1.00 31.42     0.111 A 
HETATM   11  C9    D T 262       8.274   1.996  -8.403  1.00 37.59     0.081 A 
HETATM   12  C10   D T 262       8.570   2.227  -9.770  1.00 33.67     0.025 A 
HETATM   13 CL16   D T 262       9.393   2.533  -7.217  1.00 45.56    -0.080 Cl
HETATM   14  C11   D T 262       7.623   1.773 -10.760  1.00 34.31     0.059 A 
HETATM   15  C12   D T 262       6.419   1.111 -10.406  1.00 35.02     0.013 A 
HETATM   16 CL15   D T 262       7.973   2.046 -12.382  1.00 38.98    -0.082 Cl
HETATM   17  C13   D T 262       6.120   0.880  -9.047  1.00 36.05     0.026 A 
ENDBRANCH   1  10
TORSDOF 2
ENDMDL
MODEL 3
REMARK VINA RESULT:    -7.429      1.494      6.020
REMARK INTER + INTRA:          -8.825
REMARK INTER:                  -8.527
REMARK INTRA:                  -0.299
REMARK UNBOUND:                -0.528
REMARK  2 active torsions:
REMARK  status: ('A' for Active; 'I' for Inactive)
REMARK    1  A    between atoms: C5_4  and  O7_13 
REMARK    2  A    between atoms: C8_10  and  O7_13 
ROOT
HETATM    1  O7    D T 262       5.496   0.645  -7.067  1.00 33.42    -0.304 OA
ENDROOT
BRANCH   1   2
HETATM    2  C5    D T 262       4.929   1.643  -6.255  1.00 32.62     0.125 A 
HETATM    3  C6    D T 262       4.124   1.251  -5.169  1.00 29.39     0.154 A 
HETATM    4  C1    D T 262       3.531   2.241  -4.320  1.00 31.49     0.041 A 
HETATM    5  O17   D T 262       3.937  -0.085  -4.961  1.00 29.04    -0.188 OA
HETATM    6  C2    D T 262       3.758   3.631  -4.584  1.00 34.86     0.060 A 
HETATM    7  C3    D T 262       4.567   4.018  -5.683  1.00 33.50     0.014 A 
HETATM    8 CL14   D T 262       3.068   4.810  -3.597  1.00 29.54    -0.082 Cl
HETATM    9  C4    D T 262       5.162   3.030  -6.527  1.00 31.24     0.028 A 
ENDBRANCH   1   2
BRANCH   1  10
HETATM   10  C8    D T 262       6.041   0.990  -8.307  1.00 31.42     0.111 A 
HETATM   11  C9    D T 262       5.155   1.013  -9.453  1.00 37.59     0.081 A 
HETATM   12  C10   D T 262       5.662   1.355 -10.732  1.00 33.67     0.025 A 
HETATM   13 CL16   D T 262       3.489   0.631  -9.304  1.00 45.56    -0.080 Cl
HETATM   14  C11   D T 262       7.065   1.674 -10.849  1.00 34.31     0.059 A 
HETATM   15  C12   D T 262       7.940   1.654  -9.731  1.00 35.02     0.013 A 
HETATM   16 CL15   D T 262       7.667   2.079 -12.365  1.00 38.98    -0.082 Cl
HETATM   17  C13   D T 262       7.440   1.314  -8.456  1.00 36.05     0.026 A 
ENDBRANCH   1  10
TORSDOF 2
ENDMDL
MODEL 4
REMARK VINA RESULT:    -7.327      2.326      6.149
REMARK INTER + INTRA:          -8.712
REMARK INTER:                  -8.221
REMARK INTRA:                  -0.491
REMARK UNBOUND:                -0.528
REMARK  2 active torsions:
REMARK  status: ('A' for Active; 'I' for Inactive)
REMARK    1  A    between atoms: C5_4  and  O7_13 
REMARK    2  A    between atoms: C8_10  and  O7_13 
ROOT
HETATM    1  O7    D T 262       6.523   3.541  -6.666  1.00 33.42    -0.304 OA
ENDROOT
BRANCH   1   2
HETATM    2  C5    D T 262       5.771   2.712  -5.816  1.00 32.62     0.125 A 
HETATM    3  C6    D T 262       4.630   3.246  -5.189  1.00 29.39     0.154 A 
HETATM    4  C1    D T 262       3.840   2.428  -4.316  1.00 31.49     0.041 A 
HETATM    5  O17   D T 262       4.313   4.550  -5.441  1.00 29.04    -0.188 OA
HETATM    6  C2    D T 262       4.218   1.067  -4.083  1.00 34.86     0.060 A 
HETATM    7  C3    D T 262       5.372   0.536  -4.717  1.00 33.50     0.014 A 
HETATM    8 CL14   D T 262       3.303   0.090  -3.060  1.00 29.54    -0.082 Cl
HETATM    9  C4    D T 262       6.157   1.351  -5.590  1.00 31.24     0.028 A 
ENDBRANCH   1   2
BRANCH   1  10
HETATM   10  C8    D T 262       6.707   3.176  -8.003  1.00 31.42     0.111 A 
HETATM   11  C9    D T 262       7.995   2.634  -8.385  1.00 37.59     0.081 A 
HETATM   12  C10   D T 262       8.231   2.251  -9.729  1.00 33.67     0.025 A 
HETATM   13 CL16   D T 262       9.261   2.443  -7.242  1.00 45.56    -0.080 Cl
HETATM   14  C11   D T 262       7.161   2.416 -10.685  1.00 34.31     0.059 A 
HETATM   15  C12   D T 262       5.897   2.946 -10.318  1.00 35.02     0.013 A 
HETATM   16 CL15   D T 262       7.440   1.963 -12.279  1.00 38.98    -0.082 Cl
HETATM   17  C13   D T 262       5.658   3.329  -8.982  1.00 36.05     0.026 A 
ENDBRANCH   1  10
TORSDOF 2
ENDMDL
MODEL 5
REMARK VINA RESULT:    -7.252      1.753      2.649
REMARK INTER + INTRA:          -8.628
REMARK INTER:                  -8.409
REMARK INTRA:                  -0.219
REMARK UNBOUND:                -0.528
REMARK  2 active torsions:
REMARK  status: ('A' for Active; 'I' for Inactive)
REMARK    1  A    between atoms: C5_4  and  O7_13 
REMARK    2  A    between atoms: C8_10  and  O7_13 
ROOT
HETATM    1  O7    D T 262       4.756   3.203  -7.162  1.00 33.42    -0.304 OA
ENDROOT
BRANCH   1   2
HETATM    2  C5    D T 262       5.587   2.725  -8.189  1.00 32.62     0.125 A 
HETATM    3  C6    D T 262       6.981   2.864  -8.049  1.00 29.39     0.154 A 
HETATM    4  C1    D T 262       7.858   2.387  -9.078  1.00 31.49     0.041 A 
HETATM    5  O17   D T 262       7.454   3.460  -6.916  1.00 29.04    -0.188 OA
HETATM    6  C2    D T 262       7.310   1.771 -10.249  1.00 34.86     0.060 A 
HETATM    7  C3    D T 262       5.904   1.637 -10.385  1.00 33.50     0.014 A 
HETATM    8 CL14   D T 262       8.325   1.204 -11.469  1.00 29.54    -0.082 Cl
HETATM    9  C4    D T 262       5.030   2.110  -9.357  1.00 31.24     0.028 A 
ENDBRANCH   1   2
BRANCH   1  10
HETATM   10  C8    D T 262       4.393   2.352  -6.114  1.00 31.42     0.111 A 
HETATM   11  C9    D T 262       3.909   2.956  -4.890  1.00 37.59     0.081 A 
HETATM   12  C10   D T 262       3.529   2.135  -3.798  1.00 33.67     0.025 A 
HETATM   13 CL16   D T 262       3.782   4.659  -4.720  1.00 45.56    -0.080 Cl
HETATM   14  C11   D T 262       3.639   0.704  -3.948  1.00 34.31     0.059 A 
HETATM   15  C12   D T 262       4.112   0.105  -5.145  1.00 35.02     0.013 A 
HETATM   16 CL15   D T 262       3.190  -0.271  -2.654  1.00 38.98    -0.082 Cl
HETATM   17  C13   D T 262       4.491   0.917  -6.233  1.00 36.05     0.026 A 
ENDBRANCH   1  10
TORSDOF 2
ENDMDL
MODEL 6
REMARK VINA RESULT:    -7.099      1.473      2.164
REMARK INTER + INTRA:          -8.457
REMARK INTER:                  -8.218
REMARK INTRA:                  -0.238
REMARK UNBOUND:                -0.528
REMARK  2 active torsions:
REMARK  status: ('A' for Active; 'I' for Inactive)
REMARK    1  A    between atoms: C5_4  and  O7_13 
REMARK    2  A    between atoms: C8_10  and  O7_13 
ROOT
HETATM    1  O7    D T 262       5.121   0.810  -7.062  1.00 33.42    -0.304 OA
ENDROOT
BRANCH   1   2
HETATM    2  C5    D T 262       5.782   1.081  -8.272  1.00 32.62     0.125 A 
HETATM    3  C6    D T 262       5.027   1.121  -9.459  1.00 29.39     0.154 A 
HETATM    4  C1    D T 262       5.669   1.396 -10.710  1.00 31.49     0.041 A 
HETATM    5  O17   D T 262       3.683   0.893  -9.371  1.00 29.04    -0.188 OA
HETATM    6  C2    D T 262       7.082   1.626 -10.749  1.00 34.86     0.060 A 
HETATM    7  C3    D T 262       7.837   1.580  -9.548  1.00 33.50     0.014 A 
HETATM    8 CL14   D T 262       7.855   1.950 -12.210  1.00 29.54    -0.082 Cl
HETATM    9  C4    D T 262       7.196   1.310  -8.300  1.00 31.24     0.028 A 
ENDBRANCH   1   2
BRANCH   1  10
HETATM   10  C8    D T 262       4.703   1.868  -6.250  1.00 31.42     0.111 A 
HETATM   11  C9    D T 262       4.086   1.543  -4.980  1.00 37.59     0.081 A 
HETATM   12  C10   D T 262       3.644   2.581  -4.122  1.00 33.67     0.025 A 
HETATM   13 CL16   D T 262       3.871  -0.084  -4.480  1.00 45.56    -0.080 Cl
HETATM   14  C11   D T 262       3.829   3.947  -4.551  1.00 34.31     0.059 A 
HETATM   15  C12   D T 262       4.432   4.274  -5.794  1.00 35.02     0.013 A 
HETATM   16 CL15   D T 262       3.305   5.180  -3.534  1.00 38.98    -0.082 Cl
HETATM   17  C13   D T 262       4.873   3.244  -6.651  1.00 36.05     0.026 A 
ENDBRANCH   1  10
TORSDOF 2
ENDMDL
MODEL 7
REMARK VINA RESULT:    -6.891      2.423      6.261
REMARK INTER + INTRA:          -8.225
REMARK INTER:                  -7.808
REMARK INTRA:                  -0.417
REMARK UNBOUND:                -0.528
REMARK  2 active torsions:
REMARK  status: ('A' for Active; 'I' for Inactive)
REMARK    1  A    between atoms: C5_4  and  O7_13 
REMARK    2  A    between atoms: C8_10  and  O7_13 
ROOT
HETATM    1  O7    D T 262       4.260   1.949  -7.218  1.00 33.42    -0.304 OA
ENDROOT
BRANCH   1   2
HETATM    2  C5    D T 262       4.634   2.329  -5.918  1.00 32.62     0.125 A 
HETATM    3  C6    D T 262       4.659   1.347  -4.910  1.00 29.39     0.154 A 
HETATM    4  C1    D T 262       5.036   1.699  -3.573  1.00 31.49     0.041 A 
HETATM    5  O17   D T 262       4.315   0.070  -5.251  1.00 29.04    -0.188 OA
HETATM    6  C2    D T 262       5.386   3.055  -3.267  1.00 34.86     0.060 A 
HETATM    7  C3    D T 262       5.355   4.039  -4.288  1.00 33.50     0.014 A 
HETATM    8 CL14   D T 262       5.831   3.488  -1.701  1.00 29.54    -0.082 Cl
HETATM    9  C4    D T 262       4.982   3.687  -5.622  1.00 31.24     0.028 A 
ENDBRANCH   1   2
BRANCH   1  10
HETATM   10  C8    D T 262       5.243   1.763  -8.194  1.00 31.42     0.111 A 
HETATM   11  C9    D T 262       5.509   2.859  -9.104  1.00 37.59     0.081 A 
HETATM   12  C10   D T 262       6.496   2.718 -10.112  1.00 33.67     0.025 A 
HETATM   13 CL16   D T 262       4.651   4.341  -8.995  1.00 45.56    -0.080 Cl
HETATM   14  C11   D T 262       7.212   1.467 -10.197  1.00 34.31     0.059 A 
HETATM   15  C12   D T 262       6.957   0.389  -9.310  1.00 35.02     0.013 A 
HETATM   16 CL15   D T 262       8.382   1.299 -11.393  1.00 38.98    -0.082 Cl
HETATM   17  C13   D T 262       5.977   0.525  -8.306  1.00 36.05     0.026 A 
ENDBRANCH   1  10
TORSDOF 2
ENDMDL
MODEL 8
REMARK VINA RESULT:    -6.769      2.688      6.352
REMARK INTER + INTRA:          -8.089
REMARK INTER:                  -7.670
REMARK INTRA:                  -0.419
REMARK UNBOUND:                -0.528
REMARK  2 active torsions:
REMARK  status: ('A' for Active; 'I' for Inactive)
REMARK    1  A    between atoms: C5_4  and  O7_13 
REMARK    2  A    between atoms: C8_10  and  O7_13 
ROOT
HETATM    1  O7    D T 262       3.877   2.730  -5.645  1.00 33.42    -0.304 OA
ENDROOT
BRANCH   1   2
HETATM    2  C5    D T 262       4.433   3.257  -4.467  1.00 32.62     0.125 A 
HETATM    3  C6    D T 262       4.310   4.637  -4.222  1.00 29.39     0.154 A 
HETATM    4  C1    D T 262       4.865   5.208  -3.030  1.00 31.49     0.041 A 
HETATM    5  O17   D T 262       3.653   5.396  -5.148  1.00 29.04    -0.188 OA
HETATM    6  C2    D T 262       5.548   4.368  -2.092  1.00 34.86     0.060 A 
HETATM    7  C3    D T 262       5.671   2.978  -2.348  1.00 33.50     0.014 A 
HETATM    8 CL14   D T 262       6.207   5.021  -0.685  1.00 29.54    -0.082 Cl
HETATM    9  C4    D T 262       5.114   2.409  -3.534  1.00 31.24     0.028 A 
ENDBRANCH   1   2
BRANCH   1  10
HETATM   10  C8    D T 262       4.717   2.323  -6.685  1.00 31.42     0.111 A 
HETATM   11  C9    D T 262       4.353   1.130  -7.422  1.00 37.59     0.081 A 
HETATM   12  C10   D T 262       5.175   0.676  -8.485  1.00 33.67     0.025 A 
HETATM   13 CL16   D T 262       2.939   0.237  -7.038  1.00 45.56    -0.080 Cl
HETATM   14  C11   D T 262       6.363   1.432  -8.801  1.00 34.31     0.059 A 
HETATM   15  C12   D T 262       6.727   2.602  -8.084  1.00 35.02     0.013 A 
HETATM   16 CL15   D T 262       7.338   0.895 -10.060  1.00 38.98    -0.082 Cl
HETATM   17  C13   D T 262       5.913   3.057  -7.026  1.00 36.05     0.026 A 
ENDBRANCH   1  10
TORSDOF 2
ENDMDL
MODEL 9
REMARK VINA RESULT:    -6.690      7.547      9.969
REMARK INTER + INTRA:          -8.000
REMARK INTER:                  -7.663
REMARK INTRA:                  -0.337
REMARK UNBOUND:                -0.528
REMARK  2 active torsions:
REMARK  status: ('A' for Active; 'I' for Inactive)
REMARK    1  A    between atoms: C5_4  and  O7_13 
REMARK    2  A    between atoms: C8_10  and  O7_13 
ROOT
HETATM    1  O7    D T 262       5.892   7.219   1.162  1.00 33.42    -0.304 OA
ENDROOT
BRANCH   1   2
HETATM    2  C5    D T 262       5.459   6.848  -0.122  1.00 32.62     0.125 A 
HETATM    3  C6    D T 262       5.183   7.861  -1.059  1.00 29.39     0.154 A 
HETATM    4  C1    D T 262       4.740   7.518  -2.378  1.00 31.49     0.041 A 
HETATM    5  O17   D T 262       5.351   9.158  -0.668  1.00 29.04    -0.188 OA
HETATM    6  C2    D T 262       4.577   6.141  -2.738  1.00 34.86     0.060 A 
HETATM    7  C3    D T 262       4.854   5.125  -1.786  1.00 33.50     0.014 A 
HETATM    8 CL14   D T 262       4.057   5.718  -4.283  1.00 29.54    -0.082 Cl
HETATM    9  C4    D T 262       5.300   5.468  -0.472  1.00 31.24     0.028 A 
ENDBRANCH   1   2
BRANCH   1  10
HETATM   10  C8    D T 262       6.689   6.342   1.904  1.00 31.42     0.111 A 
HETATM   11  C9    D T 262       8.120   6.381   1.688  1.00 37.59     0.081 A 
HETATM   12  C10   D T 262       8.970   5.510   2.415  1.00 33.67     0.025 A 
HETATM   13 CL16   D T 262       8.827   7.464   0.559  1.00 45.56    -0.080 Cl
HETATM   14  C11   D T 262       8.368   4.601   3.362  1.00 34.31     0.059 A 
HETATM   15  C12   D T 262       6.966   4.557   3.580  1.00 35.02     0.013 A 
HETATM   16 CL15   D T 262       9.374   3.567   4.225  1.00 38.98    -0.082 Cl
HETATM   17  C13   D T 262       6.117   5.422   2.858  1.00 36.05     0.026 A 
ENDBRANCH   1  10
TORSDOF 2
ENDMDL
