MODEL 1
REMARK VINA RESULT:      -8.3      0.000      0.000
REMARK  2 active torsions:
REMARK  status: ('A' for Active; 'I' for Inactive)
REMARK    1  A    between atoms: C5_4  and  O7_13 
REMARK    2  A    between atoms: C8_10  and  O7_13 
ROOT
HETATM    1  O7    D T 262      -9.954 -16.357 -13.520  1.00 33.42    -0.304 OA
ENDROOT
BRANCH   1   2
HETATM    2  C5    D T 262     -10.095 -15.915 -12.194  1.00 32.62     0.125 A 
HETATM    3  C6    D T 262      -9.523 -14.682 -11.829  1.00 29.39     0.154 A 
HETATM    4  C1    D T 262      -9.648 -14.201 -10.485  1.00 31.49     0.041 A 
HETATM    5  O17   D T 262      -8.858 -13.976 -12.790  1.00 29.04    -0.188 OA
HETATM    6  C2    D T 262     -10.355 -14.981  -9.513  1.00 34.86     0.060 A 
HETATM    7  C3    D T 262     -10.926 -16.225  -9.888  1.00 33.50     0.014 A 
HETATM    8 CL14   D T 262     -10.513 -14.433  -7.929  1.00 29.54    -0.082 Cl
HETATM    9  C4    D T 262     -10.804 -16.703 -11.229  1.00 31.24     0.028 A 
ENDBRANCH   1   2
BRANCH   1  10
HETATM   10  C8    D T 262     -11.093 -16.627 -14.283  1.00 31.42     0.111 A 
HETATM   11  C9    D T 262     -11.268 -15.892 -15.520  1.00 37.59     0.081 A 
HETATM   12  C10   D T 262     -12.408 -16.129 -16.328  1.00 33.67     0.025 A 
HETATM   13 CL16   D T 262     -10.119 -14.728 -16.040  1.00 45.56    -0.080 Cl
HETATM   14  C11   D T 262     -13.370 -17.109 -15.884  1.00 34.31     0.059 A 
HETATM   15  C12   D T 262     -13.206 -17.832 -14.674  1.00 35.02     0.013 A 
HETATM   16 CL15   D T 262     -14.724 -17.389 -16.841  1.00 38.98    -0.082 Cl
HETATM   17  C13   D T 262     -12.073 -17.600 -13.866  1.00 36.05     0.026 A 
ENDBRANCH   1  10
TORSDOF 2
ENDMDL
MODEL 2
REMARK VINA RESULT:      -8.3      2.161      2.364
REMARK  2 active torsions:
REMARK  status: ('A' for Active; 'I' for Inactive)
REMARK    1  A    between atoms: C5_4  and  O7_13 
REMARK    2  A    between atoms: C8_10  and  O7_13 
ROOT
HETATM    1  O7    D T 262      -9.456 -15.319 -13.622  1.00 33.42    -0.304 OA
ENDROOT
BRANCH   1   2
HETATM    2  C5    D T 262      -8.698 -15.878 -12.579  1.00 32.62     0.125 A 
HETATM    3  C6    D T 262      -8.551 -15.148 -11.385  1.00 29.39     0.154 A 
HETATM    4  C1    D T 262      -7.786 -15.689 -10.301  1.00 31.49     0.041 A 
HETATM    5  O17   D T 262      -9.157 -13.927 -11.303  1.00 29.04    -0.188 OA
HETATM    6  C2    D T 262      -7.169 -16.974 -10.438  1.00 34.86     0.060 A 
HETATM    7  C3    D T 262      -7.318 -17.702 -11.647  1.00 33.50     0.014 A 
HETATM    8 CL14   D T 262      -6.265 -17.626  -9.175  1.00 29.54    -0.082 Cl
HETATM    9  C4    D T 262      -8.084 -17.164 -12.726  1.00 31.24     0.028 A 
ENDBRANCH   1   2
BRANCH   1  10
HETATM   10  C8    D T 262     -10.667 -15.911 -13.990  1.00 31.42     0.111 A 
HETATM   11  C9    D T 262     -11.090 -15.783 -15.370  1.00 37.59     0.081 A 
HETATM   12  C10   D T 262     -12.312 -16.364 -15.792  1.00 33.67     0.025 A 
HETATM   13 CL16   D T 262     -10.143 -14.934 -16.522  1.00 45.56    -0.080 Cl
HETATM   14  C11   D T 262     -13.104 -17.076 -14.817  1.00 34.31     0.059 A 
HETATM   15  C12   D T 262     -12.696 -17.206 -13.464  1.00 35.02     0.013 A 
HETATM   16 CL15   D T 262     -14.554 -17.765 -15.316  1.00 38.98    -0.082 Cl
HETATM   17  C13   D T 262     -11.481 -16.628 -13.039  1.00 36.05     0.026 A 
ENDBRANCH   1  10
TORSDOF 2
ENDMDL
MODEL 3
REMARK VINA RESULT:      -8.2      2.277      5.960
REMARK  2 active torsions:
REMARK  status: ('A' for Active; 'I' for Inactive)
REMARK    1  A    between atoms: C5_4  and  O7_13 
REMARK    2  A    between atoms: C8_10  and  O7_13 
ROOT
HETATM    1  O7    D T 262      -9.728 -15.295 -13.569  1.00 33.42    -0.304 OA
ENDROOT
BRANCH   1   2
HETATM    2  C5    D T 262     -10.820 -15.879 -14.234  1.00 32.62     0.125 A 
HETATM    3  C6    D T 262     -10.952 -15.677 -15.620  1.00 29.39     0.154 A 
HETATM    4  C1    D T 262     -12.053 -16.258 -16.330  1.00 31.49     0.041 A 
HETATM    5  O17   D T 262     -10.006 -14.919 -16.249  1.00 29.04    -0.188 OA
HETATM    6  C2    D T 262     -13.019 -17.044 -15.623  1.00 34.86     0.060 A 
HETATM    7  C3    D T 262     -12.881 -17.240 -14.224  1.00 33.50     0.014 A 
HETATM    8 CL14   D T 262     -14.320 -17.735 -16.439  1.00 29.54    -0.082 Cl
HETATM    9  C4    D T 262     -11.782 -16.663 -13.517  1.00 31.24     0.028 A 
ENDBRANCH   1   2
BRANCH   1  10
HETATM   10  C8    D T 262      -9.036 -16.028 -12.602  1.00 31.42     0.111 A 
HETATM   11  C9    D T 262      -9.140 -15.597 -11.222  1.00 37.59     0.081 A 
HETATM   12  C10   D T 262      -8.455 -16.307 -10.205  1.00 33.67     0.025 A 
HETATM   13 CL16   D T 262     -10.081 -14.231 -10.780  1.00 45.56    -0.080 Cl
HETATM   14  C11   D T 262      -7.666 -17.454 -10.585  1.00 34.31     0.059 A 
HETATM   15  C12   D T 262      -7.558 -17.884 -11.933  1.00 35.02     0.013 A 
HETATM   16 CL15   D T 262      -6.851 -18.297  -9.379  1.00 38.98    -0.082 Cl
HETATM   17  C13   D T 262      -8.238 -17.179 -12.949  1.00 36.05     0.026 A 
ENDBRANCH   1  10
TORSDOF 2
ENDMDL
MODEL 4
REMARK VINA RESULT:      -8.2     11.955     13.234
REMARK  2 active torsions:
REMARK  status: ('A' for Active; 'I' for Inactive)
REMARK    1  A    between atoms: C5_4  and  O7_13 
REMARK    2  A    between atoms: C8_10  and  O7_13 
ROOT
HETATM    1  O7    D T 262      -5.052 -26.342 -11.181  1.00 33.42    -0.304 OA
ENDROOT
BRANCH   1   2
HETATM    2  C5    D T 262      -4.684 -24.991 -11.297  1.00 32.62     0.125 A 
HETATM    3  C6    D T 262      -4.220 -24.522 -12.540  1.00 29.39     0.154 A 
HETATM    4  C1    D T 262      -3.837 -23.150 -12.694  1.00 31.49     0.041 A 
HETATM    5  O17   D T 262      -4.152 -25.411 -13.575  1.00 29.04    -0.188 OA
HETATM    6  C2    D T 262      -3.926 -22.257 -11.577  1.00 34.86     0.060 A 
HETATM    7  C3    D T 262      -4.390 -22.738 -10.325  1.00 33.50     0.014 A 
HETATM    8 CL14   D T 262      -3.480 -20.641 -11.737  1.00 29.54    -0.082 Cl
HETATM    9  C4    D T 262      -4.776 -24.106 -10.174  1.00 31.24     0.028 A 
ENDBRANCH   1   2
BRANCH   1  10
HETATM   10  C8    D T 262      -4.726 -27.050 -10.021  1.00 31.42     0.111 A 
HETATM   11  C9    D T 262      -3.323 -27.289  -9.748  1.00 37.59     0.081 A 
HETATM   12  C10   D T 262      -2.941 -28.004  -8.585  1.00 33.67     0.025 A 
HETATM   13 CL16   D T 262      -2.095 -26.727 -10.808  1.00 45.56    -0.080 Cl
HETATM   14  C11   D T 262      -3.979 -28.475  -7.700  1.00 34.31     0.059 A 
HETATM   15  C12   D T 262      -5.355 -28.245  -7.960  1.00 35.02     0.013 A 
HETATM   16 CL15   D T 262      -3.527 -29.324  -6.321  1.00 38.98    -0.082 Cl
HETATM   17  C13   D T 262      -5.740 -27.534  -9.117  1.00 36.05     0.026 A 
ENDBRANCH   1  10
TORSDOF 2
ENDMDL
MODEL 5
REMARK VINA RESULT:      -8.1      1.853      5.966
REMARK  2 active torsions:
REMARK  status: ('A' for Active; 'I' for Inactive)
REMARK    1  A    between atoms: C5_4  and  O7_13 
REMARK    2  A    between atoms: C8_10  and  O7_13 
ROOT
HETATM    1  O7    D T 262      -9.410 -15.771 -13.756  1.00 33.42    -0.304 OA
ENDROOT
BRANCH   1   2
HETATM    2  C5    D T 262     -10.658 -16.106 -14.308  1.00 32.62     0.125 A 
HETATM    3  C6    D T 262     -10.950 -15.688 -15.620  1.00 29.39     0.154 A 
HETATM    4  C1    D T 262     -12.213 -16.012 -16.214  1.00 31.49     0.041 A 
HETATM    5  O17   D T 262      -9.999 -14.974 -16.290  1.00 29.04    -0.188 OA
HETATM    6  C2    D T 262     -13.178 -16.762 -15.467  1.00 34.86     0.060 A 
HETATM    7  C3    D T 262     -12.878 -17.177 -14.143  1.00 33.50     0.014 A 
HETATM    8 CL14   D T 262     -14.669 -17.153 -16.147  1.00 29.54    -0.082 Cl
HETATM    9  C4    D T 262     -11.617 -16.856 -13.553  1.00 31.24     0.028 A 
ENDBRANCH   1   2
BRANCH   1  10
HETATM   10  C8    D T 262      -9.288 -15.606 -12.374  1.00 31.42     0.111 A 
HETATM   11  C9    D T 262      -8.562 -16.618 -11.634  1.00 37.59     0.081 A 
HETATM   12  C10   D T 262      -8.412 -16.497 -10.229  1.00 33.67     0.025 A 
HETATM   13 CL16   D T 262      -7.871 -17.979 -12.419  1.00 45.56    -0.080 Cl
HETATM   14  C11   D T 262      -8.996 -15.349  -9.576  1.00 34.31     0.059 A 
HETATM   15  C12   D T 262      -9.709 -14.354 -10.294  1.00 35.02     0.013 A 
HETATM   16 CL15   D T 262      -8.821 -15.204  -7.910  1.00 38.98    -0.082 Cl
HETATM   17  C13   D T 262      -9.861 -14.471 -11.692  1.00 36.05     0.026 A 
ENDBRANCH   1  10
TORSDOF 2
ENDMDL
MODEL 6
REMARK VINA RESULT:      -7.9     11.736     12.827
REMARK  2 active torsions:
REMARK  status: ('A' for Active; 'I' for Inactive)
REMARK    1  A    between atoms: C5_4  and  O7_13 
REMARK    2  A    between atoms: C8_10  and  O7_13 
ROOT
HETATM    1  O7    D T 262      -4.732 -26.068 -10.912  1.00 33.42    -0.304 OA
ENDROOT
BRANCH   1   2
HETATM    2  C5    D T 262      -4.477 -26.898  -9.807  1.00 32.62     0.125 A 
HETATM    3  C6    D T 262      -3.144 -27.080  -9.393  1.00 29.39     0.154 A 
HETATM    4  C1    D T 262      -2.849 -27.919  -8.269  1.00 31.49     0.041 A 
HETATM    5  O17   D T 262      -2.163 -26.436 -10.092  1.00 29.04    -0.188 OA
HETATM    6  C2    D T 262      -3.914 -28.573  -7.570  1.00 34.86     0.060 A 
HETATM    7  C3    D T 262      -5.255 -28.388  -7.996  1.00 33.50     0.014 A 
HETATM    8 CL14   D T 262      -3.587 -29.563  -6.247  1.00 29.54    -0.082 Cl
HETATM    9  C4    D T 262      -5.550 -27.549  -9.114  1.00 31.24     0.028 A 
ENDBRANCH   1   2
BRANCH   1  10
HETATM   10  C8    D T 262      -4.801 -24.684 -10.736  1.00 31.42     0.111 A 
HETATM   11  C9    D T 262      -3.954 -23.854 -11.568  1.00 37.59     0.081 A 
HETATM   12  C10   D T 262      -3.986 -22.443 -11.426  1.00 33.67     0.025 A 
HETATM   13 CL16   D T 262      -2.898 -24.538 -12.735  1.00 45.56    -0.080 Cl
HETATM   14  C11   D T 262      -4.877 -21.876 -10.441  1.00 34.31     0.059 A 
HETATM   15  C12   D T 262      -5.709 -22.682  -9.622  1.00 35.02     0.013 A 
HETATM   16 CL15   D T 262      -4.915 -20.204 -10.270  1.00 38.98    -0.082 Cl
HETATM   17  C13   D T 262      -5.680 -24.086  -9.760  1.00 36.05     0.026 A 
ENDBRANCH   1  10
TORSDOF 2
ENDMDL
MODEL 7
REMARK VINA RESULT:      -7.8     11.278     12.482
REMARK  2 active torsions:
REMARK  status: ('A' for Active; 'I' for Inactive)
REMARK    1  A    between atoms: C5_4  and  O7_13 
REMARK    2  A    between atoms: C8_10  and  O7_13 
ROOT
HETATM    1  O7    D T 262      -5.326 -25.528 -10.900  1.00 33.42    -0.304 OA
ENDROOT
BRANCH   1   2
HETATM    2  C5    D T 262      -4.914 -26.412  -9.889  1.00 32.62     0.125 A 
HETATM    3  C6    D T 262      -5.870 -26.878  -8.968  1.00 29.39     0.154 A 
HETATM    4  C1    D T 262      -5.485 -27.781  -7.925  1.00 31.49     0.041 A 
HETATM    5  O17   D T 262      -7.157 -26.442  -9.107  1.00 29.04    -0.188 OA
HETATM    6  C2    D T 262      -4.121 -28.207  -7.821  1.00 34.86     0.060 A 
HETATM    7  C3    D T 262      -3.161 -27.731  -8.751  1.00 33.50     0.014 A 
HETATM    8 CL14   D T 262      -3.648 -29.269  -6.602  1.00 29.54    -0.082 Cl
HETATM    9  C4    D T 262      -3.547 -26.832  -9.793  1.00 31.24     0.028 A 
ENDBRANCH   1   2
BRANCH   1  10
HETATM   10  C8    D T 262      -5.044 -24.164 -10.782  1.00 31.42     0.111 A 
HETATM   11  C9    D T 262      -3.968 -23.623 -11.587  1.00 37.59     0.081 A 
HETATM   12  C10   D T 262      -3.643 -22.246 -11.502  1.00 33.67     0.025 A 
HETATM   13 CL16   D T 262      -3.062 -24.617 -12.655  1.00 45.56    -0.080 Cl
HETATM   14  C11   D T 262      -4.409 -21.417 -10.601  1.00 34.31     0.059 A 
HETATM   15  C12   D T 262      -5.465 -21.939  -9.809  1.00 35.02     0.013 A 
HETATM   16 CL15   D T 262      -4.024 -19.784 -10.498  1.00 38.98    -0.082 Cl
HETATM   17  C13   D T 262      -5.791 -23.309  -9.891  1.00 36.05     0.026 A 
ENDBRANCH   1  10
TORSDOF 2
ENDMDL
MODEL 8
REMARK VINA RESULT:      -7.7     11.101     11.928
REMARK  2 active torsions:
REMARK  status: ('A' for Active; 'I' for Inactive)
REMARK    1  A    between atoms: C5_4  and  O7_13 
REMARK    2  A    between atoms: C8_10  and  O7_13 
ROOT
HETATM    1  O7    D T 262      -3.499 -23.765  -9.686  1.00 33.42    -0.304 OA
ENDROOT
BRANCH   1   2
HETATM    2  C5    D T 262      -3.641 -25.011  -9.051  1.00 32.62     0.125 A 
HETATM    3  C6    D T 262      -4.761 -25.224  -8.226  1.00 29.39     0.154 A 
HETATM    4  C1    D T 262      -4.938 -26.483  -7.564  1.00 31.49     0.041 A 
HETATM    5  O17   D T 262      -5.656 -24.202  -8.086  1.00 29.04    -0.188 OA
HETATM    6  C2    D T 262      -3.969 -27.522  -7.743  1.00 34.86     0.060 A 
HETATM    7  C3    D T 262      -2.839 -27.298  -8.574  1.00 33.50     0.014 A 
HETATM    8 CL14   D T 262      -4.157 -29.008  -6.973  1.00 29.54    -0.082 Cl
HETATM    9  C4    D T 262      -2.666 -26.044  -9.236  1.00 31.24     0.028 A 
ENDBRANCH   1   2
BRANCH   1  10
HETATM   10  C8    D T 262      -3.962 -23.600 -10.994  1.00 31.42     0.111 A 
HETATM   11  C9    D T 262      -3.968 -22.259 -11.545  1.00 37.59     0.081 A 
HETATM   12  C10   D T 262      -4.431 -22.039 -12.867  1.00 33.67     0.025 A 
HETATM   13 CL16   D T 262      -3.427 -20.912 -10.629  1.00 45.56    -0.080 Cl
HETATM   14  C11   D T 262      -4.885 -23.177 -13.630  1.00 34.31     0.059 A 
HETATM   15  C12   D T 262      -4.882 -24.493 -13.098  1.00 35.02     0.013 A 
HETATM   16 CL15   D T 262      -5.435 -22.918 -15.198  1.00 38.98    -0.082 Cl
HETATM   17  C13   D T 262      -4.424 -24.716 -11.783  1.00 36.05     0.026 A 
ENDBRANCH   1  10
TORSDOF 2
ENDMDL
MODEL 9
REMARK VINA RESULT:      -7.7     10.708     12.455
REMARK  2 active torsions:
REMARK  status: ('A' for Active; 'I' for Inactive)
REMARK    1  A    between atoms: C5_4  and  O7_13 
REMARK    2  A    between atoms: C8_10  and  O7_13 
ROOT
HETATM    1  O7    D T 262      -5.308 -23.682  -9.346  1.00 33.42    -0.304 OA
ENDROOT
BRANCH   1   2
HETATM    2  C5    D T 262      -5.296 -23.502 -10.740  1.00 32.62     0.125 A 
HETATM    3  C6    D T 262      -6.524 -23.372 -11.415  1.00 29.39     0.154 A 
HETATM    4  C1    D T 262      -6.548 -23.187 -12.835  1.00 31.49     0.041 A 
HETATM    5  O17   D T 262      -7.670 -23.428 -10.674  1.00 29.04    -0.188 OA
HETATM    6  C2    D T 262      -5.317 -23.137 -13.567  1.00 34.86     0.060 A 
HETATM    7  C3    D T 262      -4.083 -23.273 -12.880  1.00 33.50     0.014 A 
HETATM    8 CL14   D T 262      -5.324 -22.921 -15.237  1.00 29.54    -0.082 Cl
HETATM    9  C4    D T 262      -4.059 -23.454 -11.463  1.00 31.24     0.028 A 
ENDBRANCH   1   2
BRANCH   1  10
HETATM   10  C8    D T 262      -4.953 -24.921  -8.806  1.00 31.42     0.111 A 
HETATM   11  C9    D T 262      -3.650 -25.039  -8.183  1.00 37.59     0.081 A 
HETATM   12  C10   D T 262      -3.244 -26.276  -7.622  1.00 33.67     0.025 A 
HETATM   13 CL16   D T 262      -2.570 -23.707  -8.107  1.00 45.56    -0.080 Cl
HETATM   14  C11   D T 262      -4.158 -27.391  -7.691  1.00 34.31     0.059 A 
HETATM   15  C12   D T 262      -5.436 -27.283  -8.299  1.00 35.02     0.013 A 
HETATM   16 CL15   D T 262      -3.677 -28.859  -7.027  1.00 38.98    -0.082 Cl
HETATM   17  C13   D T 262      -5.844 -26.054  -8.859  1.00 36.05     0.026 A 
ENDBRANCH   1  10
TORSDOF 2
ENDMDL
