MODEL 1
REMARK VINA RESULT:    -8.011      0.000      0.000
REMARK INTER + INTRA:          -9.286
REMARK INTER:                  -8.947
REMARK INTRA:                  -0.339
REMARK UNBOUND:                -0.339
REMARK  2 active torsions:
REMARK  status: ('A' for Active; 'I' for Inactive)
REMARK    1  A    between atoms: C5_4  and  O7_13 
REMARK    2  A    between atoms: C8_10  and  O7_13 
ROOT
HETATM    1  O7    D T 262      -9.428 -15.612 -13.788  1.00 33.42    -0.304 OA
ENDROOT
BRANCH   1   2
HETATM    2  C5    D T 262      -9.181 -15.461 -12.413  1.00 32.62     0.125 A 
HETATM    3  C6    D T 262      -8.311 -16.367 -11.780  1.00 29.39     0.154 A 
HETATM    4  C1    D T 262      -8.036 -16.241 -10.379  1.00 31.49     0.041 A 
HETATM    5  O17   D T 262      -7.750 -17.353 -12.540  1.00 29.04    -0.188 OA
HETATM    6  C2    D T 262      -8.652 -15.191  -9.625  1.00 34.86     0.060 A 
HETATM    7  C3    D T 262      -9.531 -14.282 -10.270  1.00 33.50     0.014 A 
HETATM    8 CL14   D T 262      -8.342 -15.026  -7.978  1.00 29.54    -0.082 Cl
HETATM    9  C4    D T 262      -9.802 -14.406 -11.668  1.00 31.24     0.028 A 
ENDBRANCH   1   2
BRANCH   1  10
HETATM   10  C8    D T 262     -10.674 -16.075 -14.219  1.00 31.42     0.111 A 
HETATM   11  C9    D T 262     -11.116 -15.691 -15.545  1.00 37.59     0.081 A 
HETATM   12  C10   D T 262     -12.374 -16.133 -16.027  1.00 33.67     0.025 A 
HETATM   13 CL16   D T 262     -10.149 -14.700 -16.560  1.00 45.56    -0.080 Cl
HETATM   14  C11   D T 262     -13.182 -16.965 -15.168  1.00 34.31     0.059 A 
HETATM   15  C12   D T 262     -12.756 -17.345 -13.868  1.00 35.02     0.013 A 
HETATM   16 CL15   D T 262     -14.674 -17.489 -15.738  1.00 38.98    -0.082 Cl
HETATM   17  C13   D T 262     -11.506 -16.907 -13.384  1.00 36.05     0.026 A 
ENDBRANCH   1  10
TORSDOF 2
ENDMDL
MODEL 2
REMARK VINA RESULT:    -7.833     10.680     12.678
REMARK INTER + INTRA:          -9.088
REMARK INTER:                  -8.816
REMARK INTRA:                  -0.272
REMARK UNBOUND:                -0.339
REMARK  2 active torsions:
REMARK  status: ('A' for Active; 'I' for Inactive)
REMARK    1  A    between atoms: C5_4  and  O7_13 
REMARK    2  A    between atoms: C8_10  and  O7_13 
ROOT
HETATM    1  O7    D T 262      -5.117 -26.197 -11.171  1.00 33.42    -0.304 OA
ENDROOT
BRANCH   1   2
HETATM    2  C5    D T 262      -4.734 -24.849 -11.270  1.00 32.62     0.125 A 
HETATM    3  C6    D T 262      -4.249 -24.373 -12.502  1.00 29.39     0.154 A 
HETATM    4  C1    D T 262      -3.851 -23.004 -12.639  1.00 31.49     0.041 A 
HETATM    5  O17   D T 262      -4.176 -25.254 -13.544  1.00 29.04    -0.188 OA
HETATM    6  C2    D T 262      -3.945 -22.121 -11.515  1.00 34.86     0.060 A 
HETATM    7  C3    D T 262      -4.431 -22.608 -10.274  1.00 33.50     0.014 A 
HETATM    8 CL14   D T 262      -3.481 -20.508 -11.655  1.00 29.54    -0.082 Cl
HETATM    9  C4    D T 262      -4.832 -23.973 -10.140  1.00 31.24     0.028 A 
ENDBRANCH   1   2
BRANCH   1  10
HETATM   10  C8    D T 262      -4.776 -26.930 -10.031  1.00 31.42     0.111 A 
HETATM   11  C9    D T 262      -3.374 -27.221  -9.809  1.00 37.59     0.081 A 
HETATM   12  C10   D T 262      -2.978 -27.964  -8.668  1.00 33.67     0.025 A 
HETATM   13 CL16   D T 262      -2.164 -26.688 -10.904  1.00 45.56    -0.080 Cl
HETATM   14  C11   D T 262      -4.001 -28.409  -7.753  1.00 34.31     0.059 A 
HETATM   15  C12   D T 262      -5.376 -28.128  -7.963  1.00 35.02     0.013 A 
HETATM   16 CL15   D T 262      -3.533 -29.290  -6.400  1.00 38.98    -0.082 Cl
HETATM   17  C13   D T 262      -5.775 -27.390  -9.097  1.00 36.05     0.026 A 
ENDBRANCH   1  10
TORSDOF 2
ENDMDL
MODEL 3
REMARK VINA RESULT:    -7.761      1.505      6.068
REMARK INTER + INTRA:          -9.007
REMARK INTER:                  -8.625
REMARK INTRA:                  -0.382
REMARK UNBOUND:                -0.339
REMARK  2 active torsions:
REMARK  status: ('A' for Active; 'I' for Inactive)
REMARK    1  A    between atoms: C5_4  and  O7_13 
REMARK    2  A    between atoms: C8_10  and  O7_13 
ROOT
HETATM    1  O7    D T 262      -9.445 -15.792 -13.762  1.00 33.42    -0.304 OA
ENDROOT
BRANCH   1   2
HETATM    2  C5    D T 262     -10.687 -16.127 -14.327  1.00 32.62     0.125 A 
HETATM    3  C6    D T 262     -10.967 -15.706 -15.640  1.00 29.39     0.154 A 
HETATM    4  C1    D T 262     -12.223 -16.030 -16.248  1.00 31.49     0.041 A 
HETATM    5  O17   D T 262     -10.009 -14.988 -16.300  1.00 29.04    -0.188 OA
HETATM    6  C2    D T 262     -13.195 -16.783 -15.513  1.00 34.86     0.060 A 
HETATM    7  C3    D T 262     -12.907 -17.202 -14.187  1.00 33.50     0.014 A 
HETATM    8 CL14   D T 262     -14.678 -17.175 -16.209  1.00 29.54    -0.082 Cl
HETATM    9  C4    D T 262     -11.652 -16.881 -13.583  1.00 31.24     0.028 A 
ENDBRANCH   1   2
BRANCH   1  10
HETATM   10  C8    D T 262      -9.334 -15.644 -12.377  1.00 31.42     0.111 A 
HETATM   11  C9    D T 262      -8.679 -16.701 -11.634  1.00 37.59     0.081 A 
HETATM   12  C10   D T 262      -8.543 -16.598 -10.226  1.00 33.67     0.025 A 
HETATM   13 CL16   D T 262      -8.057 -18.095 -12.419  1.00 45.56    -0.080 Cl
HETATM   14  C11   D T 262      -9.069 -15.423  -9.573  1.00 34.31     0.059 A 
HETATM   15  C12   D T 262      -9.712 -14.383 -10.294  1.00 35.02     0.013 A 
HETATM   16 CL15   D T 262      -8.910 -15.299  -7.904  1.00 38.98    -0.082 Cl
HETATM   17  C13   D T 262      -9.849 -14.482 -11.694  1.00 36.05     0.026 A 
ENDBRANCH   1  10
TORSDOF 2
ENDMDL
MODEL 4
REMARK VINA RESULT:    -7.645      1.864      6.182
REMARK INTER + INTRA:          -8.878
REMARK INTER:                  -8.370
REMARK INTRA:                  -0.508
REMARK UNBOUND:                -0.339
REMARK  2 active torsions:
REMARK  status: ('A' for Active; 'I' for Inactive)
REMARK    1  A    between atoms: C5_4  and  O7_13 
REMARK    2  A    between atoms: C8_10  and  O7_13 
ROOT
HETATM    1  O7    D T 262     -10.076 -15.446 -12.976  1.00 33.42    -0.304 OA
ENDROOT
BRANCH   1   2
HETATM    2  C5    D T 262     -11.032 -16.061 -13.802  1.00 32.62     0.125 A 
HETATM    3  C6    D T 262     -11.009 -15.786 -15.182  1.00 29.39     0.154 A 
HETATM    4  C1    D T 262     -11.969 -16.397 -16.053  1.00 31.49     0.041 A 
HETATM    5  O17   D T 262     -10.052 -14.930 -15.648  1.00 29.04    -0.188 OA
HETATM    6  C2    D T 262     -12.953 -17.287 -15.514  1.00 34.86     0.060 A 
HETATM    7  C3    D T 262     -12.972 -17.557 -14.121  1.00 33.50     0.014 A 
HETATM    8 CL14   D T 262     -14.090 -18.015 -16.522  1.00 29.54    -0.082 Cl
HETATM    9  C4    D T 262     -12.013 -16.950 -13.253  1.00 31.24     0.028 A 
ENDBRANCH   1   2
BRANCH   1  10
HETATM   10  C8    D T 262      -9.198 -16.236 -12.229  1.00 31.42     0.111 A 
HETATM   11  C9    D T 262      -9.178 -16.050 -10.792  1.00 37.59     0.081 A 
HETATM   12  C10   D T 262      -8.303 -16.826  -9.991  1.00 33.67     0.025 A 
HETATM   13 CL16   D T 262     -10.195 -14.902 -10.023  1.00 45.56    -0.080 Cl
HETATM   14  C11   D T 262      -7.450 -17.790 -10.645  1.00 34.31     0.059 A 
HETATM   15  C12   D T 262      -7.463 -17.977 -12.052  1.00 35.02     0.013 A 
HETATM   16 CL15   D T 262      -6.411 -18.709  -9.696  1.00 38.98    -0.082 Cl
HETATM   17  C13   D T 262      -8.332 -17.207 -12.853  1.00 36.05     0.026 A 
ENDBRANCH   1  10
TORSDOF 2
ENDMDL
MODEL 5
REMARK VINA RESULT:    -7.512     10.170     12.243
REMARK INTER + INTRA:          -8.728
REMARK INTER:                  -8.439
REMARK INTRA:                  -0.290
REMARK UNBOUND:                -0.339
REMARK  2 active torsions:
REMARK  status: ('A' for Active; 'I' for Inactive)
REMARK    1  A    between atoms: C5_4  and  O7_13 
REMARK    2  A    between atoms: C8_10  and  O7_13 
ROOT
HETATM    1  O7    D T 262      -4.181 -25.595 -11.431  1.00 33.42    -0.304 OA
ENDROOT
BRANCH   1   2
HETATM    2  C5    D T 262      -4.091 -24.204 -11.257  1.00 32.62     0.125 A 
HETATM    3  C6    D T 262      -4.294 -23.368 -12.370  1.00 29.39     0.154 A 
HETATM    4  C1    D T 262      -4.210 -21.945 -12.227  1.00 31.49     0.041 A 
HETATM    5  O17   D T 262      -4.570 -23.959 -13.571  1.00 29.04    -0.188 OA
HETATM    6  C2    D T 262      -3.916 -21.376 -10.947  1.00 34.86     0.060 A 
HETATM    7  C3    D T 262      -3.708 -22.224  -9.828  1.00 33.50     0.014 A 
HETATM    8 CL14   D T 262      -3.812 -19.705 -10.758  1.00 29.54    -0.082 Cl
HETATM    9  C4    D T 262      -3.796 -23.643  -9.971  1.00 31.24     0.028 A 
ENDBRANCH   1   2
BRANCH   1  10
HETATM   10  C8    D T 262      -4.062 -26.440 -10.325  1.00 31.42     0.111 A 
HETATM   11  C9    D T 262      -5.276 -26.820  -9.630  1.00 37.59     0.081 A 
HETATM   12  C10   D T 262      -5.207 -27.674  -8.501  1.00 33.67     0.025 A 
HETATM   13 CL16   D T 262      -6.814 -26.256 -10.142  1.00 45.56    -0.080 Cl
HETATM   14  C11   D T 262      -3.909 -28.143  -8.076  1.00 34.31     0.059 A 
HETATM   15  C12   D T 262      -2.716 -27.775  -8.751  1.00 35.02     0.013 A 
HETATM   16 CL15   D T 262      -3.826 -29.154  -6.736  1.00 38.98    -0.082 Cl
HETATM   17  C13   D T 262      -2.780 -26.925  -9.875  1.00 36.05     0.026 A 
ENDBRANCH   1  10
TORSDOF 2
ENDMDL
MODEL 6
REMARK VINA RESULT:    -7.442     10.190     11.853
REMARK INTER + INTRA:          -8.651
REMARK INTER:                  -8.136
REMARK INTRA:                  -0.515
REMARK UNBOUND:                -0.339
REMARK  2 active torsions:
REMARK  status: ('A' for Active; 'I' for Inactive)
REMARK    1  A    between atoms: C5_4  and  O7_13 
REMARK    2  A    between atoms: C8_10  and  O7_13 
ROOT
HETATM    1  O7    D T 262      -5.862 -25.557 -11.030  1.00 33.42    -0.304 OA
ENDROOT
BRANCH   1   2
HETATM    2  C5    D T 262      -5.356 -26.398 -10.025  1.00 32.62     0.125 A 
HETATM    3  C6    D T 262      -6.191 -26.740  -8.946  1.00 29.39     0.154 A 
HETATM    4  C1    D T 262      -5.707 -27.597  -7.905  1.00 31.49     0.041 A 
HETATM    5  O17   D T 262      -7.459 -26.232  -8.933  1.00 29.04    -0.188 OA
HETATM    6  C2    D T 262      -4.368 -28.102  -7.965  1.00 34.86     0.060 A 
HETATM    7  C3    D T 262      -3.530 -27.750  -9.055  1.00 33.50     0.014 A 
HETATM    8 CL14   D T 262      -3.780 -29.110  -6.751  1.00 29.54    -0.082 Cl
HETATM    9  C4    D T 262      -4.014 -26.898 -10.095  1.00 31.24     0.028 A 
ENDBRANCH   1   2
BRANCH   1  10
HETATM   10  C8    D T 262      -5.321 -24.279 -11.199  1.00 31.42     0.111 A 
HETATM   11  C9    D T 262      -4.448 -24.060 -12.334  1.00 37.59     0.081 A 
HETATM   12  C10   D T 262      -3.873 -22.781 -12.548  1.00 33.67     0.025 A 
HETATM   13 CL16   D T 262      -4.083 -25.320 -13.441  1.00 45.56    -0.080 Cl
HETATM   14  C11   D T 262      -4.185 -21.727 -11.613  1.00 34.31     0.059 A 
HETATM   15  C12   D T 262      -5.039 -21.934 -10.499  1.00 35.02     0.013 A 
HETATM   16 CL15   D T 262      -3.503 -20.211 -11.864  1.00 38.98    -0.082 Cl
HETATM   17  C13   D T 262      -5.613 -23.204 -10.282  1.00 36.05     0.026 A 
ENDBRANCH   1  10
TORSDOF 2
ENDMDL
MODEL 7
REMARK VINA RESULT:    -7.367      2.837      3.735
REMARK INTER + INTRA:          -8.567
REMARK INTER:                  -8.059
REMARK INTRA:                  -0.508
REMARK UNBOUND:                -0.339
REMARK  2 active torsions:
REMARK  status: ('A' for Active; 'I' for Inactive)
REMARK    1  A    between atoms: C5_4  and  O7_13 
REMARK    2  A    between atoms: C8_10  and  O7_13 
ROOT
HETATM    1  O7    D T 262      -9.598 -16.599 -11.644  1.00 33.42    -0.304 OA
ENDROOT
BRANCH   1   2
HETATM    2  C5    D T 262      -8.486 -17.459 -11.622  1.00 32.62     0.125 A 
HETATM    3  C6    D T 262      -7.222 -16.920 -11.321  1.00 29.39     0.154 A 
HETATM    4  C1    D T 262      -6.067 -17.769 -11.290  1.00 31.49     0.041 A 
HETATM    5  O17   D T 262      -7.141 -15.581 -11.064  1.00 29.04    -0.188 OA
HETATM    6  C2    D T 262      -6.205 -19.167 -11.569  1.00 34.86     0.060 A 
HETATM    7  C3    D T 262      -7.483 -19.702 -11.875  1.00 33.50     0.014 A 
HETATM    8 CL14   D T 262      -4.860 -20.181 -11.537  1.00 29.54    -0.082 Cl
HETATM    9  C4    D T 262      -8.634 -18.856 -11.903  1.00 31.24     0.028 A 
ENDBRANCH   1   2
BRANCH   1  10
HETATM   10  C8    D T 262     -10.416 -16.556 -12.776  1.00 31.42     0.111 A 
HETATM   11  C9    D T 262     -11.767 -17.064 -12.653  1.00 37.59     0.081 A 
HETATM   12  C10   D T 262     -12.636 -17.044 -13.773  1.00 33.67     0.025 A 
HETATM   13 CL16   D T 262     -12.353 -17.701 -11.170  1.00 45.56    -0.080 Cl
HETATM   14  C11   D T 262     -12.135 -16.508 -15.016  1.00 34.31     0.059 A 
HETATM   15  C12   D T 262     -10.813 -16.008 -15.145  1.00 35.02     0.013 A 
HETATM   16 CL15   D T 262     -13.164 -16.484 -16.346  1.00 38.98    -0.082 Cl
HETATM   17  C13   D T 262      -9.945 -16.027 -14.033  1.00 36.05     0.026 A 
ENDBRANCH   1  10
TORSDOF 2
ENDMDL
MODEL 8
REMARK VINA RESULT:    -7.326      9.450     11.174
REMARK INTER + INTRA:          -8.522
REMARK INTER:                  -8.156
REMARK INTRA:                  -0.366
REMARK UNBOUND:                -0.339
REMARK  2 active torsions:
REMARK  status: ('A' for Active; 'I' for Inactive)
REMARK    1  A    between atoms: C5_4  and  O7_13 
REMARK    2  A    between atoms: C8_10  and  O7_13 
ROOT
HETATM    1  O7    D T 262      -4.420 -24.721 -12.287  1.00 33.42    -0.304 OA
ENDROOT
BRANCH   1   2
HETATM    2  C5    D T 262      -4.645 -25.635 -11.244  1.00 32.62     0.125 A 
HETATM    3  C6    D T 262      -3.586 -26.465 -10.833  1.00 29.39     0.154 A 
HETATM    4  C1    D T 262      -3.781 -27.408  -9.772  1.00 31.49     0.041 A 
HETATM    5  O17   D T 262      -2.387 -26.336 -11.474  1.00 29.04    -0.188 OA
HETATM    6  C2    D T 262      -5.060 -27.504  -9.133  1.00 34.86     0.060 A 
HETATM    7  C3    D T 262      -6.125 -26.667  -9.556  1.00 33.50     0.014 A 
HETATM    8 CL14   D T 262      -5.309 -28.607  -7.884  1.00 29.54    -0.082 Cl
HETATM    9  C4    D T 262      -5.928 -25.724 -10.611  1.00 31.24     0.028 A 
ENDBRANCH   1   2
BRANCH   1  10
HETATM   10  C8    D T 262      -4.306 -23.358 -11.999  1.00 31.42     0.111 A 
HETATM   11  C9    D T 262      -4.720 -22.414 -13.018  1.00 37.59     0.081 A 
HETATM   12  C10   D T 262      -4.622 -21.021 -12.774  1.00 33.67     0.025 A 
HETATM   13 CL16   D T 262      -5.332 -22.942 -14.532  1.00 45.56    -0.080 Cl
HETATM   14  C11   D T 262      -4.105 -20.585 -11.498  1.00 34.31     0.059 A 
HETATM   15  C12   D T 262      -3.698 -21.503 -10.495  1.00 35.02     0.013 A 
HETATM   16 CL15   D T 262      -3.987 -18.934 -11.208  1.00 38.98    -0.082 Cl
HETATM   17  C13   D T 262      -3.793 -22.890 -10.734  1.00 36.05     0.026 A 
ENDBRANCH   1  10
TORSDOF 2
ENDMDL
MODEL 9
REMARK VINA RESULT:    -7.238      9.150     11.276
REMARK INTER + INTRA:          -8.423
REMARK INTER:                  -7.942
REMARK INTRA:                  -0.482
REMARK UNBOUND:                -0.339
REMARK  2 active torsions:
REMARK  status: ('A' for Active; 'I' for Inactive)
REMARK    1  A    between atoms: C5_4  and  O7_13 
REMARK    2  A    between atoms: C8_10  and  O7_13 
ROOT
HETATM    1  O7    D T 262      -3.786 -24.190 -11.071  1.00 33.42    -0.304 OA
ENDROOT
BRANCH   1   2
HETATM    2  C5    D T 262      -4.688 -23.136 -11.293  1.00 32.62     0.125 A 
HETATM    3  C6    D T 262      -5.317 -23.038 -12.547  1.00 29.39     0.154 A 
HETATM    4  C1    D T 262      -6.243 -21.975 -12.806  1.00 31.49     0.041 A 
HETATM    5  O17   D T 262      -5.016 -23.979 -13.490  1.00 29.04    -0.188 OA
HETATM    6  C2    D T 262      -6.524 -21.012 -11.784  1.00 34.86     0.060 A 
HETATM    7  C3    D T 262      -5.883 -21.115 -10.523  1.00 33.50     0.014 A 
HETATM    8 CL14   D T 262      -7.609 -19.755 -12.069  1.00 29.54    -0.082 Cl
HETATM    9  C4    D T 262      -4.962 -22.177 -10.264  1.00 31.24     0.028 A 
ENDBRANCH   1   2
BRANCH   1  10
HETATM   10  C8    D T 262      -4.181 -25.287 -10.301  1.00 31.42     0.111 A 
HETATM   11  C9    D T 262      -3.724 -25.348  -8.927  1.00 37.59     0.081 A 
HETATM   12  C10   D T 262      -4.096 -26.442  -8.105  1.00 33.67     0.025 A 
HETATM   13 CL16   D T 262      -2.729 -24.119  -8.259  1.00 45.56    -0.080 Cl
HETATM   14  C11   D T 262      -4.932 -27.472  -8.675  1.00 34.31     0.059 A 
HETATM   15  C12   D T 262      -5.383 -27.419 -10.019  1.00 35.02     0.013 A 
HETATM   16 CL15   D T 262      -5.373 -28.770  -7.702  1.00 38.98    -0.082 Cl
HETATM   17  C13   D T 262      -5.015 -26.333 -10.841  1.00 36.05     0.026 A 
ENDBRANCH   1  10
TORSDOF 2
ENDMDL
