MODEL 1
REMARK VINA RESULT:    -7.521      0.000      0.000
REMARK INTER + INTRA:          -8.774
REMARK INTER:                  -8.400
REMARK INTRA:                  -0.374
REMARK UNBOUND:                -0.374
REMARK  2 active torsions:
REMARK  status: ('A' for Active; 'I' for Inactive)
REMARK    1  A    between atoms: C5_4  and  O7_13 
REMARK    2  A    between atoms: C8_10  and  O7_13 
ROOT
HETATM    1  O7    D T 262       4.528   0.616  -7.847  1.00 33.42    -0.304 OA
ENDROOT
BRANCH   1   2
HETATM    2  C5    D T 262       3.762   1.471  -7.036  1.00 32.62     0.125 A 
HETATM    3  C6    D T 262       2.852   0.904  -6.126  1.00 29.39     0.154 A 
HETATM    4  C1    D T 262       2.057   1.747  -5.283  1.00 31.49     0.041 A 
HETATM    5  O17   D T 262       2.760  -0.458  -6.078  1.00 29.04    -0.188 OA
HETATM    6  C2    D T 262       2.190   3.170  -5.373  1.00 34.86     0.060 A 
HETATM    7  C3    D T 262       3.106   3.736  -6.297  1.00 33.50     0.014 A 
HETATM    8 CL14   D T 262       1.263   4.179  -4.392  1.00 29.54    -0.082 Cl
HETATM    9  C4    D T 262       3.902   2.894  -7.134  1.00 31.24     0.028 A 
ENDBRANCH   1   2
BRANCH   1  10
HETATM   10  C8    D T 262       4.799   0.978  -9.169  1.00 31.42     0.111 A 
HETATM   11  C9    D T 262       3.734   0.838 -10.141  1.00 37.59     0.081 A 
HETATM   12  C10   D T 262       3.962   1.189 -11.496  1.00 33.67     0.025 A 
HETATM   13 CL16   D T 262       2.186   0.247  -9.695  1.00 45.56    -0.080 Cl
HETATM   14  C11   D T 262       5.267   1.684 -11.864  1.00 34.31     0.059 A 
HETATM   15  C12   D T 262       6.315   1.825 -10.918  1.00 35.02     0.013 A 
HETATM   16 CL15   D T 262       5.538   2.101 -13.471  1.00 38.98    -0.082 Cl
HETATM   17  C13   D T 262       6.093   1.475  -9.569  1.00 36.05     0.026 A 
ENDBRANCH   1  10
TORSDOF 2
ENDMDL
MODEL 2
REMARK VINA RESULT:    -7.512      1.574      6.090
REMARK INTER + INTRA:          -8.765
REMARK INTER:                  -8.251
REMARK INTRA:                  -0.514
REMARK UNBOUND:                -0.374
REMARK  2 active torsions:
REMARK  status: ('A' for Active; 'I' for Inactive)
REMARK    1  A    between atoms: C5_4  and  O7_13 
REMARK    2  A    between atoms: C8_10  and  O7_13 
ROOT
HETATM    1  O7    D T 262       5.828   1.558  -7.648  1.00 33.42    -0.304 OA
ENDROOT
BRANCH   1   2
HETATM    2  C5    D T 262       5.839   1.670  -9.049  1.00 32.62     0.125 A 
HETATM    3  C6    D T 262       6.739   2.570  -9.648  1.00 29.39     0.154 A 
HETATM    4  C1    D T 262       6.777   2.706 -11.073  1.00 31.49     0.041 A 
HETATM    5  O17   D T 262       7.559   3.293  -8.830  1.00 29.04    -0.188 OA
HETATM    6  C2    D T 262       5.894   1.925 -11.887  1.00 34.86     0.060 A 
HETATM    7  C3    D T 262       4.986   1.022 -11.276  1.00 33.50     0.014 A 
HETATM    8 CL14   D T 262       5.924   2.072 -13.565  1.00 29.54    -0.082 Cl
HETATM    9  C4    D T 262       4.951   0.883  -9.854  1.00 31.24     0.028 A 
ENDBRANCH   1   2
BRANCH   1  10
HETATM   10  C8    D T 262       4.759   2.091  -6.921  1.00 31.42     0.111 A 
HETATM   11  C9    D T 262       3.775   1.169  -6.392  1.00 37.59     0.081 A 
HETATM   12  C10   D T 262       2.671   1.661  -5.650  1.00 33.67     0.025 A 
HETATM   13 CL16   D T 262       3.907  -0.524  -6.643  1.00 45.56    -0.080 Cl
HETATM   14  C11   D T 262       2.568   3.086  -5.443  1.00 34.31     0.059 A 
HETATM   15  C12   D T 262       3.527   3.996  -5.958  1.00 35.02     0.013 A 
HETATM   16 CL15   D T 262       1.258   3.671  -4.564  1.00 38.98    -0.082 Cl
HETATM   17  C13   D T 262       4.627   3.510  -6.698  1.00 36.05     0.026 A 
ENDBRANCH   1  10
TORSDOF 2
ENDMDL
MODEL 3
REMARK VINA RESULT:    -7.439      1.764      2.230
REMARK INTER + INTRA:          -8.683
REMARK INTER:                  -8.161
REMARK INTRA:                  -0.521
REMARK UNBOUND:                -0.374
REMARK  2 active torsions:
REMARK  status: ('A' for Active; 'I' for Inactive)
REMARK    1  A    between atoms: C5_4  and  O7_13 
REMARK    2  A    between atoms: C8_10  and  O7_13 
ROOT
HETATM    1  O7    D T 262       5.615   1.490  -6.923  1.00 33.42    -0.304 OA
ENDROOT
BRANCH   1   2
HETATM    2  C5    D T 262       4.502   2.044  -6.268  1.00 32.62     0.125 A 
HETATM    3  C6    D T 262       3.558   1.177  -5.687  1.00 29.39     0.154 A 
HETATM    4  C1    D T 262       2.414   1.709  -5.010  1.00 31.49     0.041 A 
HETATM    5  O17   D T 262       3.775  -0.167  -5.794  1.00 29.04    -0.188 OA
HETATM    6  C2    D T 262       2.231   3.127  -4.928  1.00 34.86     0.060 A 
HETATM    7  C3    D T 262       3.185   3.996  -5.519  1.00 33.50     0.014 A 
HETATM    8 CL14   D T 262       0.891   3.773  -4.137  1.00 29.54    -0.082 Cl
HETATM    9  C4    D T 262       4.329   3.465  -6.191  1.00 31.24     0.028 A 
ENDBRANCH   1   2
BRANCH   1  10
HETATM   10  C8    D T 262       5.686   1.532  -8.318  1.00 31.42     0.111 A 
HETATM   11  C9    D T 262       6.641   2.441  -8.919  1.00 37.59     0.081 A 
HETATM   12  C10   D T 262       6.750   2.522 -10.330  1.00 33.67     0.025 A 
HETATM   13 CL16   D T 262       7.655   3.438  -7.958  1.00 45.56    -0.080 Cl
HETATM   14  C11   D T 262       5.893   1.681 -11.131  1.00 34.31     0.059 A 
HETATM   15  C12   D T 262       4.955   0.787 -10.551  1.00 35.02     0.013 A 
HETATM   16 CL15   D T 262       6.020   1.777 -12.805  1.00 38.98    -0.082 Cl
HETATM   17  C13   D T 262       4.843   0.704  -9.146  1.00 36.05     0.026 A 
ENDBRANCH   1  10
TORSDOF 2
ENDMDL
MODEL 4
REMARK VINA RESULT:    -7.223      2.512      3.097
REMARK INTER + INTRA:          -8.441
REMARK INTER:                  -7.949
REMARK INTRA:                  -0.492
REMARK UNBOUND:                -0.374
REMARK  2 active torsions:
REMARK  status: ('A' for Active; 'I' for Inactive)
REMARK    1  A    between atoms: C5_4  and  O7_13 
REMARK    2  A    between atoms: C8_10  and  O7_13 
ROOT
HETATM    1  O7    D T 262       4.747   3.766  -7.620  1.00 33.42    -0.304 OA
ENDROOT
BRANCH   1   2
HETATM    2  C5    D T 262       4.290   2.889  -6.622  1.00 32.62     0.125 A 
HETATM    3  C6    D T 262       3.091   3.194  -5.952  1.00 29.39     0.154 A 
HETATM    4  C1    D T 262       2.595   2.320  -4.931  1.00 31.49     0.041 A 
HETATM    5  O17   D T 262       2.431   4.335  -6.310  1.00 29.04    -0.188 OA
HETATM    6  C2    D T 262       3.326   1.135  -4.593  1.00 34.86     0.060 A 
HETATM    7  C3    D T 262       4.537   0.836  -5.269  1.00 33.50     0.014 A 
HETATM    8 CL14   D T 262       2.760   0.095  -3.394  1.00 29.54    -0.082 Cl
HETATM    9  C4    D T 262       5.029   1.707  -6.291  1.00 31.24     0.028 A 
ENDBRANCH   1   2
BRANCH   1  10
HETATM   10  C8    D T 262       4.885   3.307  -8.933  1.00 31.42     0.111 A 
HETATM   11  C9    D T 262       6.221   3.011  -9.409  1.00 37.59     0.081 A 
HETATM   12  C10   D T 262       6.413   2.545 -10.734  1.00 33.67     0.025 A 
HETATM   13 CL16   D T 262       7.596   3.214  -8.402  1.00 45.56    -0.080 Cl
HETATM   14  C11   D T 262       5.251   2.378 -11.575  1.00 34.31     0.059 A 
HETATM   15  C12   D T 262       3.939   2.665 -11.116  1.00 35.02     0.013 A 
HETATM   16 CL15   D T 262       5.478   1.826 -13.147  1.00 38.98    -0.082 Cl
HETATM   17  C13   D T 262       3.744   3.130  -9.798  1.00 36.05     0.026 A 
ENDBRANCH   1  10
TORSDOF 2
ENDMDL
MODEL 5
REMARK VINA RESULT:    -7.159      2.268      6.167
REMARK INTER + INTRA:          -8.370
REMARK INTER:                  -7.908
REMARK INTRA:                  -0.462
REMARK UNBOUND:                -0.374
REMARK  2 active torsions:
REMARK  status: ('A' for Active; 'I' for Inactive)
REMARK    1  A    between atoms: C5_4  and  O7_13 
REMARK    2  A    between atoms: C8_10  and  O7_13 
ROOT
HETATM    1  O7    D T 262       2.695   1.930  -7.544  1.00 33.42    -0.304 OA
ENDROOT
BRANCH   1   2
HETATM    2  C5    D T 262       3.593   1.748  -8.609  1.00 32.62     0.125 A 
HETATM    3  C6    D T 262       3.619   2.701  -9.642  1.00 29.39     0.154 A 
HETATM    4  C1    D T 262       4.524   2.547 -10.742  1.00 31.49     0.041 A 
HETATM    5  O17   D T 262       2.762   3.761  -9.556  1.00 29.04    -0.188 OA
HETATM    6  C2    D T 262       5.402   1.416 -10.787  1.00 34.86     0.060 A 
HETATM    7  C3    D T 262       5.369   0.455  -9.743  1.00 33.50     0.014 A 
HETATM    8 CL14   D T 262       6.473   1.215 -12.072  1.00 29.54    -0.082 Cl
HETATM    9  C4    D T 262       4.468   0.612  -8.644  1.00 31.24     0.028 A 
ENDBRANCH   1   2
BRANCH   1  10
HETATM   10  C8    D T 262       3.158   2.450  -6.332  1.00 31.42     0.111 A 
HETATM   11  C9    D T 262       3.368   1.526  -5.236  1.00 37.59     0.081 A 
HETATM   12  C10   D T 262       3.834   2.006  -3.985  1.00 33.67     0.025 A 
HETATM   13 CL16   D T 262       3.061  -0.154  -5.408  1.00 45.56    -0.080 Cl
HETATM   14  C11   D T 262       4.088   3.420  -3.847  1.00 34.31     0.059 A 
HETATM   15  C12   D T 262       3.886   4.332  -4.916  1.00 35.02     0.013 A 
HETATM   16 CL15   D T 262       4.640   3.990  -2.364  1.00 38.98    -0.082 Cl
HETATM   17  C13   D T 262       3.421   3.858  -6.162  1.00 36.05     0.026 A 
ENDBRANCH   1  10
TORSDOF 2
ENDMDL
MODEL 6
REMARK VINA RESULT:    -7.097      2.445      2.750
REMARK INTER + INTRA:          -8.300
REMARK INTER:                  -7.906
REMARK INTRA:                  -0.394
REMARK UNBOUND:                -0.374
REMARK  2 active torsions:
REMARK  status: ('A' for Active; 'I' for Inactive)
REMARK    1  A    between atoms: C5_4  and  O7_13 
REMARK    2  A    between atoms: C8_10  and  O7_13 
ROOT
HETATM    1  O7    D T 262       5.389   3.586  -7.625  1.00 33.42    -0.304 OA
ENDROOT
BRANCH   1   2
HETATM    2  C5    D T 262       4.841   2.729  -6.655  1.00 32.62     0.125 A 
HETATM    3  C6    D T 262       3.979   3.271  -5.684  1.00 29.39     0.154 A 
HETATM    4  C1    D T 262       3.401   2.426  -4.683  1.00 31.49     0.041 A 
HETATM    5  O17   D T 262       3.720   4.612  -5.736  1.00 29.04    -0.188 OA
HETATM    6  C2    D T 262       3.706   1.026  -4.671  1.00 34.86     0.060 A 
HETATM    7  C3    D T 262       4.579   0.486  -5.651  1.00 33.50     0.014 A 
HETATM    8 CL14   D T 262       3.037   0.016  -3.501  1.00 29.54    -0.082 Cl
HETATM    9  C4    D T 262       5.152   1.330  -6.653  1.00 31.24     0.028 A 
ENDBRANCH   1   2
BRANCH   1  10
HETATM   10  C8    D T 262       5.437   3.176  -8.960  1.00 31.42     0.111 A 
HETATM   11  C9    D T 262       4.257   3.383  -9.774  1.00 37.59     0.081 A 
HETATM   12  C10   D T 262       4.255   2.982 -11.134  1.00 33.67     0.025 A 
HETATM   13 CL16   D T 262       2.840   4.106  -9.130  1.00 45.56    -0.080 Cl
HETATM   14  C11   D T 262       5.451   2.374 -11.668  1.00 34.31     0.059 A 
HETATM   15  C12   D T 262       6.611   2.167 -10.878  1.00 35.02     0.013 A 
HETATM   16 CL15   D T 262       5.450   1.897 -13.281  1.00 38.98    -0.082 Cl
HETATM   17  C13   D T 262       6.616   2.565  -9.524  1.00 36.05     0.026 A 
ENDBRANCH   1  10
TORSDOF 2
ENDMDL
MODEL 7
REMARK VINA RESULT:    -6.987      3.617      6.134
REMARK INTER + INTRA:          -8.178
REMARK INTER:                  -7.726
REMARK INTRA:                  -0.452
REMARK UNBOUND:                -0.374
REMARK  2 active torsions:
REMARK  status: ('A' for Active; 'I' for Inactive)
REMARK    1  A    between atoms: C5_4  and  O7_13 
REMARK    2  A    between atoms: C8_10  and  O7_13 
ROOT
HETATM    1  O7    D T 262       5.266   2.402  -8.084  1.00 33.42    -0.304 OA
ENDROOT
BRANCH   1   2
HETATM    2  C5    D T 262       5.298   2.238  -9.479  1.00 32.62     0.125 A 
HETATM    3  C6    D T 262       4.537   3.108 -10.280  1.00 29.39     0.154 A 
HETATM    4  C1    D T 262       4.548   2.969 -11.706  1.00 31.49     0.041 A 
HETATM    5  O17   D T 262       3.800   4.073  -9.654  1.00 29.04    -0.188 OA
HETATM    6  C2    D T 262       5.337   1.939 -12.314  1.00 34.86     0.060 A 
HETATM    7  C3    D T 262       6.100   1.063 -11.500  1.00 33.50     0.014 A 
HETATM    8 CL14   D T 262       5.363   1.759 -13.989  1.00 29.54    -0.082 Cl
HETATM    9  C4    D T 262       6.091   1.204 -10.078  1.00 31.24     0.028 A 
ENDBRANCH   1   2
BRANCH   1  10
HETATM   10  C8    D T 262       6.465   2.439  -7.366  1.00 31.42     0.111 A 
HETATM   11  C9    D T 262       6.660   1.448  -6.327  1.00 37.59     0.081 A 
HETATM   12  C10   D T 262       7.859   1.445  -5.568  1.00 33.67     0.025 A 
HETATM   13 CL16   D T 262       5.467   0.263  -5.982  1.00 45.56    -0.080 Cl
HETATM   14  C11   D T 262       8.857   2.445  -5.864  1.00 34.31     0.059 A 
HETATM   15  C12   D T 262       8.673   3.419  -6.880  1.00 35.02     0.013 A 
HETATM   16 CL15   D T 262      10.278   2.443  -4.964  1.00 38.98    -0.082 Cl
HETATM   17  C13   D T 262       7.482   3.425  -7.636  1.00 36.05     0.026 A 
ENDBRANCH   1  10
TORSDOF 2
ENDMDL
MODEL 8
REMARK VINA RESULT:    -6.851      2.308      2.963
REMARK INTER + INTRA:          -8.026
REMARK INTER:                  -7.509
REMARK INTRA:                  -0.517
REMARK UNBOUND:                -0.374
REMARK  2 active torsions:
REMARK  status: ('A' for Active; 'I' for Inactive)
REMARK    1  A    between atoms: C5_4  and  O7_13 
REMARK    2  A    between atoms: C8_10  and  O7_13 
ROOT
HETATM    1  O7    D T 262       3.520   1.795  -5.536  1.00 33.42    -0.304 OA
ENDROOT
BRANCH   1   2
HETATM    2  C5    D T 262       3.279   3.107  -5.093  1.00 32.62     0.125 A 
HETATM    3  C6    D T 262       4.052   3.616  -4.034  1.00 29.39     0.154 A 
HETATM    4  C1    D T 262       3.832   4.949  -3.560  1.00 31.49     0.041 A 
HETATM    5  O17   D T 262       5.002   2.801  -3.487  1.00 29.04    -0.188 OA
HETATM    6  C2    D T 262       2.821   5.763  -4.166  1.00 34.86     0.060 A 
HETATM    7  C3    D T 262       2.043   5.242  -5.232  1.00 33.50     0.014 A 
HETATM    8 CL14   D T 262       2.548   7.334  -3.622  1.00 29.54    -0.082 Cl
HETATM    9  C4    D T 262       2.265   3.912  -5.708  1.00 31.24     0.028 A 
ENDBRANCH   1   2
BRANCH   1  10
HETATM   10  C8    D T 262       4.052   1.584  -6.811  1.00 31.42     0.111 A 
HETATM   11  C9    D T 262       3.272   0.800  -7.747  1.00 37.59     0.081 A 
HETATM   12  C10   D T 262       3.770   0.555  -9.053  1.00 33.67     0.025 A 
HETATM   13 CL16   D T 262       1.745   0.148  -7.316  1.00 45.56    -0.080 Cl
HETATM   14  C11   D T 262       5.056   1.107  -9.408  1.00 34.31     0.059 A 
HETATM   15  C12   D T 262       5.826   1.876  -8.497  1.00 35.02     0.013 A 
HETATM   16 CL15   D T 262       5.648   0.816 -10.955  1.00 38.98    -0.082 Cl
HETATM   17  C13   D T 262       5.335   2.121  -7.197  1.00 36.05     0.026 A 
ENDBRANCH   1  10
TORSDOF 2
ENDMDL
MODEL 9
REMARK VINA RESULT:    -6.797      2.767      4.375
REMARK INTER + INTRA:          -7.966
REMARK INTER:                  -7.572
REMARK INTRA:                  -0.394
REMARK UNBOUND:                -0.374
REMARK  2 active torsions:
REMARK  status: ('A' for Active; 'I' for Inactive)
REMARK    1  A    between atoms: C5_4  and  O7_13 
REMARK    2  A    between atoms: C8_10  and  O7_13 
ROOT
HETATM    1  O7    D T 262       3.687   1.945  -4.450  1.00 33.42    -0.304 OA
ENDROOT
BRANCH   1   2
HETATM    2  C5    D T 262       3.186   3.173  -3.984  1.00 32.62     0.125 A 
HETATM    3  C6    D T 262       4.044   4.023  -3.263  1.00 29.39     0.154 A 
HETATM    4  C1    D T 262       3.567   5.282  -2.775  1.00 31.49     0.041 A 
HETATM    5  O17   D T 262       5.328   3.606  -3.052  1.00 29.04    -0.188 OA
HETATM    6  C2    D T 262       2.210   5.672  -3.021  1.00 34.86     0.060 A 
HETATM    7  C3    D T 262       1.349   4.808  -3.745  1.00 33.50     0.014 A 
HETATM    8 CL14   D T 262       1.629   7.148  -2.454  1.00 29.54    -0.082 Cl
HETATM    9  C4    D T 262       1.827   3.553  -4.236  1.00 31.24     0.028 A 
ENDBRANCH   1   2
BRANCH   1  10
HETATM   10  C8    D T 262       3.324   1.490  -5.721  1.00 31.42     0.111 A 
HETATM   11  C9    D T 262       3.982   2.084  -6.866  1.00 37.59     0.081 A 
HETATM   12  C10   D T 262       3.647   1.657  -8.176  1.00 33.67     0.025 A 
HETATM   13 CL16   D T 262       5.170   3.309  -6.681  1.00 45.56    -0.080 Cl
HETATM   14  C11   D T 262       2.646   0.627  -8.324  1.00 34.31     0.059 A 
HETATM   15  C12   D T 262       1.996   0.040  -7.207  1.00 35.02     0.013 A 
HETATM   16 CL15   D T 262       2.247   0.121  -9.877  1.00 38.98    -0.082 Cl
HETATM   17  C13   D T 262       2.327   0.462  -5.902  1.00 36.05     0.026 A 
ENDBRANCH   1  10
TORSDOF 2
ENDMDL
