MODEL 1
REMARK VINA RESULT:    -6.000      0.000      0.000
REMARK INTER + INTRA:          -7.390
REMARK INTER:                  -7.053
REMARK INTRA:                  -0.337
REMARK UNBOUND:                -0.337
REMARK  3 active torsions:
REMARK  status: ('A' for Active; 'I' for Inactive)
REMARK    1  A    between atoms: C7_8  and  C10_12 
REMARK    2  A    between atoms: N9_10  and  C1'_11 
REMARK    3  A    between atoms: C4'_19  and  C5'_21 
ROOT
HETATM    1  N1    D T 577      -4.574  -6.091  -5.453  1.00 85.37    -0.203 NA
HETATM    2  C2    D T 577      -5.850  -6.445  -5.709  1.00 86.80     0.202 A 
HETATM    3  N3    D T 577      -6.735  -5.633  -6.326  1.00 86.97    -0.206 NA
HETATM    4  C4    D T 577      -6.384  -4.389  -6.738  1.00 86.50     0.151 A 
HETATM    5  C5    D T 577      -5.007  -3.937  -6.491  1.00 85.57     0.078 A 
HETATM    6  C6    D T 577      -4.092  -4.882  -5.807  1.00 85.00     0.188 A 
HETATM    7  N6    D T 577      -2.812  -4.573  -5.530  1.00 84.84    -0.127 N 
HETATM    8  C7    D T 577      -5.011  -2.577  -7.060  1.00 85.86     0.083 A 
HETATM    9  C8    D T 577      -6.269  -2.332  -7.561  1.00 86.68     0.084 A 
HETATM   10  N9    D T 577      -7.055  -3.410  -7.362  1.00 87.05    -0.287 N 
ENDROOT
BRANCH  10  11
HETATM   11  C1'   D T 577      -8.481  -3.522  -7.763  1.00 88.13     0.240 C 
HETATM   12  C2'   D T 577      -9.298  -2.970  -6.615  1.00 88.30     0.234 C 
HETATM   13  O2'   D T 577     -10.566  -3.633  -6.543  1.00 89.07    -0.216 OA
HETATM   14  C3'   D T 577      -9.418  -1.511  -6.975  1.00 88.03     0.216 C 
HETATM   15  O3'   D T 577     -10.604  -0.946  -6.426  1.00 88.96    -0.218 OA
HETATM   16  C4'   D T 577      -9.427  -1.498  -8.501  1.00 88.80     0.183 C 
HETATM   17  O4'   D T 577      -8.792  -2.714  -8.905  1.00 88.48    -0.331 OA
BRANCH  16  18
HETATM   18  C5'   D T 577      -8.744  -0.282  -9.138  1.00 89.18     0.214 C 
HETATM   19  O5'   D T 577      -8.043  -0.635 -10.348  1.00 89.91    -0.218 OA
ENDBRANCH  16  18
ENDBRANCH  10  11
BRANCH   8  20
HETATM   20  C10   D T 577      -3.784  -1.738  -7.019  1.00 85.71     0.298 C 
HETATM   21  N11   D T 577      -3.628  -0.890  -6.012  1.00 86.33    -0.102 N 
HETATM   22  O12   D T 577      -2.942  -1.838  -7.890  1.00 85.41    -0.264 OA
ENDBRANCH   8  20
TORSDOF 3
ENDMDL
MODEL 2
REMARK VINA RESULT:    -5.977      2.042      3.681
REMARK INTER + INTRA:          -7.362
REMARK INTER:                  -6.921
REMARK INTRA:                  -0.441
REMARK UNBOUND:                -0.337
REMARK  3 active torsions:
REMARK  status: ('A' for Active; 'I' for Inactive)
REMARK    1  A    between atoms: C7_8  and  C10_12 
REMARK    2  A    between atoms: N9_10  and  C1'_11 
REMARK    3  A    between atoms: C4'_19  and  C5'_21 
ROOT
HETATM    1  N1    D T 577      -2.814  -3.479  -4.972  1.00 85.37    -0.203 NA
HETATM    2  C2    D T 577      -3.332  -2.316  -5.419  1.00 86.80     0.202 A 
HETATM    3  N3    D T 577      -4.493  -2.236  -6.103  1.00 86.97    -0.206 NA
HETATM    4  C4    D T 577      -5.226  -3.342  -6.383  1.00 86.50     0.151 A 
HETATM    5  C5    D T 577      -4.721  -4.646  -5.925  1.00 85.57     0.078 A 
HETATM    6  C6    D T 577      -3.438  -4.656  -5.182  1.00 85.00     0.188 A 
HETATM    7  N6    D T 577      -2.883  -5.792  -4.718  1.00 84.84    -0.127 N 
HETATM    8  C7    D T 577      -5.758  -5.576  -6.407  1.00 85.86     0.083 A 
HETATM    9  C8    D T 577      -6.720  -4.838  -7.057  1.00 86.68     0.084 A 
HETATM   10  N9    D T 577      -6.387  -3.531  -7.027  1.00 87.05    -0.287 N 
ENDROOT
BRANCH  10  11
HETATM   11  C1'   D T 577      -7.177  -2.426  -7.628  1.00 88.13     0.240 C 
HETATM   12  C2'   D T 577      -8.532  -3.003  -7.977  1.00 88.30     0.234 C 
HETATM   13  O2'   D T 577      -9.075  -2.337  -9.123  1.00 89.07    -0.216 OA
HETATM   14  C3'   D T 577      -9.326  -2.751  -6.720  1.00 88.03     0.216 C 
HETATM   15  O3'   D T 577     -10.714  -2.627  -7.010  1.00 88.96    -0.218 OA
HETATM   16  C4'   D T 577      -8.739  -1.460  -6.156  1.00 88.80     0.183 C 
HETATM   17  O4'   D T 577      -7.419  -1.361  -6.699  1.00 88.48    -0.331 OA
BRANCH  16  18
HETATM   18  C5'   D T 577      -8.710  -1.382  -4.625  1.00 89.18     0.214 C 
HETATM   19  O5'   D T 577      -7.607  -2.129  -4.072  1.00 89.91    -0.218 OA
ENDBRANCH  16  18
ENDBRANCH  10  11
BRANCH   8  20
HETATM   20  C10   D T 577      -5.637  -7.036  -6.156  1.00 85.71     0.298 C 
HETATM   21  N11   D T 577      -6.579  -7.638  -5.444  1.00 86.33    -0.102 N 
HETATM   22  O12   D T 577      -4.695  -7.661  -6.604  1.00 85.41    -0.264 OA
ENDBRANCH   8  20
TORSDOF 3
ENDMDL
MODEL 3
REMARK VINA RESULT:    -5.947      2.138      3.994
REMARK INTER + INTRA:          -7.327
REMARK INTER:                  -6.966
REMARK INTRA:                  -0.361
REMARK UNBOUND:                -0.337
REMARK  3 active torsions:
REMARK  status: ('A' for Active; 'I' for Inactive)
REMARK    1  A    between atoms: C7_8  and  C10_12 
REMARK    2  A    between atoms: N9_10  and  C1'_11 
REMARK    3  A    between atoms: C4'_19  and  C5'_21 
ROOT
HETATM    1  N1    D T 577      -2.847  -5.781  -5.689  1.00 85.37    -0.203 NA
HETATM    2  C2    D T 577      -2.850  -4.475  -5.351  1.00 86.80     0.202 A 
HETATM    3  N3    D T 577      -3.963  -3.710  -5.355  1.00 86.97    -0.206 NA
HETATM    4  C4    D T 577      -5.170  -4.222  -5.702  1.00 86.50     0.151 A 
HETATM    5  C5    D T 577      -5.241  -5.641  -6.082  1.00 85.57     0.078 A 
HETATM    6  C6    D T 577      -3.978  -6.417  -6.056  1.00 85.00     0.188 A 
HETATM    7  N6    D T 577      -3.928  -7.721  -6.385  1.00 84.84    -0.127 N 
HETATM    8  C7    D T 577      -6.673  -5.818  -6.386  1.00 85.86     0.083 A 
HETATM    9  C8    D T 577      -7.300  -4.610  -6.185  1.00 86.68     0.084 A 
HETATM   10  N9    D T 577      -6.399  -3.691  -5.783  1.00 87.05    -0.287 N 
ENDROOT
BRANCH  10  11
HETATM   11  C1'   D T 577      -6.697  -2.269  -5.472  1.00 88.13     0.240 C 
HETATM   12  C2'   D T 577      -5.913  -1.436  -6.462  1.00 88.30     0.234 C 
HETATM   13  O2'   D T 577      -5.543  -0.183  -5.874  1.00 89.07    -0.216 OA
HETATM   14  C3'   D T 577      -6.887  -1.284  -7.602  1.00 88.03     0.216 C 
HETATM   15  O3'   D T 577      -6.642  -0.083  -8.327  1.00 88.96    -0.218 OA
HETATM   16  C4'   D T 577      -8.258  -1.281  -6.930  1.00 88.80     0.183 C 
HETATM   17  O4'   D T 577      -8.078  -1.944  -5.676  1.00 88.48    -0.331 OA
BRANCH  16  18
HETATM   18  C5'   D T 577      -9.376  -1.939  -7.746  1.00 89.18     0.214 C 
HETATM   19  O5'   D T 577      -8.853  -2.693  -8.859  1.00 89.91    -0.218 OA
ENDBRANCH  16  18
ENDBRANCH  10  11
BRANCH   8  20
HETATM   20  C10   D T 577      -7.193  -7.139  -6.825  1.00 85.71     0.298 C 
HETATM   21  N11   D T 577      -7.830  -7.217  -7.984  1.00 86.33    -0.102 N 
HETATM   22  O12   D T 577      -7.028  -8.125  -6.133  1.00 85.41    -0.264 OA
ENDBRANCH   8  20
TORSDOF 3
ENDMDL
MODEL 4
REMARK VINA RESULT:    -5.894      2.971      6.175
REMARK INTER + INTRA:          -7.264
REMARK INTER:                  -6.752
REMARK INTRA:                  -0.512
REMARK UNBOUND:                -0.337
REMARK  3 active torsions:
REMARK  status: ('A' for Active; 'I' for Inactive)
REMARK    1  A    between atoms: C7_8  and  C10_12 
REMARK    2  A    between atoms: N9_10  and  C1'_11 
REMARK    3  A    between atoms: C4'_19  and  C5'_21 
ROOT
HETATM    1  N1    D T 577     -10.069  -1.336  -8.992  1.00 85.37    -0.203 NA
HETATM    2  C2    D T 577      -8.834  -1.254  -9.527  1.00 86.80     0.202 A 
HETATM    3  N3    D T 577      -7.709  -1.163  -8.786  1.00 86.97    -0.206 NA
HETATM    4  C4    D T 577      -7.755  -1.156  -7.431  1.00 86.50     0.151 A 
HETATM    5  C5    D T 577      -9.070  -1.244  -6.778  1.00 85.57     0.078 A 
HETATM    6  C6    D T 577     -10.261  -1.338  -7.657  1.00 85.00     0.188 A 
HETATM    7  N6    D T 577     -11.512  -1.423  -7.167  1.00 84.84    -0.127 N 
HETATM    8  C7    D T 577      -8.720  -1.204  -5.347  1.00 85.86     0.083 A 
HETATM    9  C8    D T 577      -7.351  -1.105  -5.250  1.00 86.68     0.084 A 
HETATM   10  N9    D T 577      -6.808  -1.081  -6.484  1.00 87.05    -0.287 N 
ENDROOT
BRANCH  10  11
HETATM   11  C1'   D T 577      -5.357  -0.977  -6.786  1.00 88.13     0.240 C 
HETATM   12  C2'   D T 577      -4.628  -1.146  -5.470  1.00 88.30     0.234 C 
HETATM   13  O2'   D T 577      -3.406  -0.398  -5.481  1.00 89.07    -0.216 OA
HETATM   14  C3'   D T 577      -4.405  -2.636  -5.413  1.00 88.03     0.216 C 
HETATM   15  O3'   D T 577      -3.250  -2.949  -4.640  1.00 88.96    -0.218 OA
HETATM   16  C4'   D T 577      -4.249  -3.051  -6.874  1.00 88.80     0.183 C 
HETATM   17  O4'   D T 577      -4.900  -2.034  -7.640  1.00 88.48    -0.331 OA
BRANCH  16  18
HETATM   18  C5'   D T 577      -4.810  -4.438  -7.210  1.00 89.18     0.214 C 
HETATM   19  O5'   D T 577      -5.977  -4.749  -6.422  1.00 89.91    -0.218 OA
ENDBRANCH  16  18
ENDBRANCH  10  11
BRANCH   8  20
HETATM   20  C10   D T 577      -9.781  -1.267  -4.308  1.00 85.71     0.298 C 
HETATM   21  N11   D T 577     -10.066  -2.440  -3.762  1.00 86.33    -0.102 N 
HETATM   22  O12   D T 577     -10.366  -0.257  -3.966  1.00 85.41    -0.264 OA
ENDBRANCH   8  20
TORSDOF 3
ENDMDL
MODEL 5
REMARK VINA RESULT:    -5.838      2.074      2.727
REMARK INTER + INTRA:          -7.199
REMARK INTER:                  -6.811
REMARK INTRA:                  -0.388
REMARK UNBOUND:                -0.337
REMARK  3 active torsions:
REMARK  status: ('A' for Active; 'I' for Inactive)
REMARK    1  A    between atoms: C7_8  and  C10_12 
REMARK    2  A    between atoms: N9_10  and  C1'_11 
REMARK    3  A    between atoms: C4'_19  and  C5'_21 
ROOT
HETATM    1  N1    D T 577      -6.784  -5.122  -7.097  1.00 85.37    -0.203 NA
HETATM    2  C2    D T 577      -8.033  -4.748  -7.443  1.00 86.80     0.202 A 
HETATM    3  N3    D T 577      -8.386  -3.465  -7.674  1.00 86.97    -0.206 NA
HETATM    4  C4    D T 577      -7.485  -2.457  -7.575  1.00 86.50     0.151 A 
HETATM    5  C5    D T 577      -6.102  -2.792  -7.202  1.00 85.57     0.078 A 
HETATM    6  C6    D T 577      -5.790  -4.222  -6.961  1.00 85.00     0.188 A 
HETATM    7  N6    D T 577      -4.559  -4.641  -6.614  1.00 84.84    -0.127 N 
HETATM    8  C7    D T 577      -5.445  -1.473  -7.195  1.00 85.86     0.083 A 
HETATM    9  C8    D T 577      -6.387  -0.529  -7.532  1.00 86.68     0.084 A 
HETATM   10  N9    D T 577      -7.574  -1.130  -7.753  1.00 87.05    -0.287 N 
ENDROOT
BRANCH  10  11
HETATM   11  C1'   D T 577      -8.833  -0.440  -8.134  1.00 88.13     0.240 C 
HETATM   12  C2'   D T 577      -9.788  -0.609  -6.971  1.00 88.30     0.234 C 
HETATM   13  O2'   D T 577     -11.140  -0.649  -7.443  1.00 89.07    -0.216 OA
HETATM   14  C3'   D T 577      -9.495   0.608  -6.131  1.00 88.03     0.216 C 
HETATM   15  O3'   D T 577     -10.636   0.988  -5.369  1.00 88.96    -0.218 OA
HETATM   16  C4'   D T 577      -9.096   1.679  -7.143  1.00 88.80     0.183 C 
HETATM   17  O4'   D T 577      -8.651   0.972  -8.304  1.00 88.48    -0.331 OA
BRANCH  16  18
HETATM   18  C5'   D T 577      -8.026   2.661  -6.651  1.00 89.18     0.214 C 
HETATM   19  O5'   D T 577      -8.089   3.918  -7.355  1.00 89.91    -0.218 OA
ENDBRANCH  16  18
ENDBRANCH  10  11
BRANCH   8  20
HETATM   20  C10   D T 577      -4.003  -1.351  -6.857  1.00 85.71     0.298 C 
HETATM   21  N11   D T 577      -3.666  -0.796  -5.701  1.00 86.33    -0.102 N 
HETATM   22  O12   D T 577      -3.154  -1.760  -7.626  1.00 85.41    -0.264 OA
ENDBRANCH   8  20
TORSDOF 3
ENDMDL
MODEL 6
REMARK VINA RESULT:    -5.592      1.317      1.711
REMARK INTER + INTRA:          -6.909
REMARK INTER:                  -6.488
REMARK INTRA:                  -0.421
REMARK UNBOUND:                -0.337
REMARK  3 active torsions:
REMARK  status: ('A' for Active; 'I' for Inactive)
REMARK    1  A    between atoms: C7_8  and  C10_12 
REMARK    2  A    between atoms: N9_10  and  C1'_11 
REMARK    3  A    between atoms: C4'_19  and  C5'_21 
ROOT
HETATM    1  N1    D T 577      -5.458  -5.913  -5.701  1.00 85.37    -0.203 NA
HETATM    2  C2    D T 577      -6.786  -5.962  -5.473  1.00 86.80     0.202 A 
HETATM    3  N3    D T 577      -7.585  -4.873  -5.505  1.00 86.97    -0.206 NA
HETATM    4  C4    D T 577      -7.088  -3.642  -5.779  1.00 86.50     0.151 A 
HETATM    5  C5    D T 577      -5.646  -3.514  -6.038  1.00 85.57     0.078 A 
HETATM    6  C6    D T 577      -4.832  -4.752  -5.984  1.00 85.00     0.188 A 
HETATM    7  N6    D T 577      -3.505  -4.752  -6.205  1.00 84.84    -0.127 N 
HETATM    8  C7    D T 577      -5.493  -2.069  -6.285  1.00 85.86     0.083 A 
HETATM    9  C8    D T 577      -6.734  -1.486  -6.168  1.00 86.68     0.084 A 
HETATM   10  N9    D T 577      -7.653  -2.429  -5.873  1.00 87.05    -0.287 N 
ENDROOT
BRANCH  10  11
HETATM   11  C1'   D T 577      -9.103  -2.184  -5.666  1.00 88.13     0.240 C 
HETATM   12  C2'   D T 577      -9.273  -0.686  -5.523  1.00 88.30     0.234 C 
HETATM   13  O2'   D T 577     -10.378  -0.392  -4.660  1.00 89.07    -0.216 OA
HETATM   14  C3'   D T 577      -9.507  -0.249  -6.947  1.00 88.03     0.216 C 
HETATM   15  O3'   D T 577     -10.284   0.943  -6.994  1.00 88.96    -0.218 OA
HETATM   16  C4'   D T 577     -10.228  -1.431  -7.591  1.00 88.80     0.183 C 
HETATM   17  O4'   D T 577      -9.890  -2.573  -6.799  1.00 88.48    -0.331 OA
BRANCH  16  18
HETATM   18  C5'   D T 577      -9.888  -1.664  -9.068  1.00 89.18     0.214 C 
HETATM   19  O5'   D T 577      -8.616  -2.326  -9.226  1.00 89.91    -0.218 OA
ENDBRANCH  16  18
ENDBRANCH  10  11
BRANCH   8  20
HETATM   20  C10   D T 577      -4.158  -1.493  -6.592  1.00 85.71     0.298 C 
HETATM   21  N11   D T 577      -3.540  -0.787  -5.656  1.00 86.33    -0.102 N 
HETATM   22  O12   D T 577      -3.645  -1.677  -7.680  1.00 85.41    -0.264 OA
ENDBRANCH   8  20
TORSDOF 3
ENDMDL
MODEL 7
REMARK VINA RESULT:    -5.492      2.140      3.869
REMARK INTER + INTRA:          -6.793
REMARK INTER:                  -6.329
REMARK INTRA:                  -0.463
REMARK UNBOUND:                -0.337
REMARK  3 active torsions:
REMARK  status: ('A' for Active; 'I' for Inactive)
REMARK    1  A    between atoms: C7_8  and  C10_12 
REMARK    2  A    between atoms: N9_10  and  C1'_11 
REMARK    3  A    between atoms: C4'_19  and  C5'_21 
ROOT
HETATM    1  N1    D T 577      -3.559  -2.138  -5.667  1.00 85.37    -0.203 NA
HETATM    2  C2    D T 577      -4.044  -0.882  -5.579  1.00 86.80     0.202 A 
HETATM    3  N3    D T 577      -5.360  -0.588  -5.654  1.00 86.97    -0.206 NA
HETATM    4  C4    D T 577      -6.291  -1.558  -5.822  1.00 86.50     0.151 A 
HETATM    5  C5    D T 577      -5.834  -2.952  -5.926  1.00 85.57     0.078 A 
HETATM    6  C6    D T 577      -4.375  -3.199  -5.836  1.00 85.00     0.188 A 
HETATM    7  N6    D T 577      -3.847  -4.434  -5.920  1.00 84.84    -0.127 N 
HETATM    8  C7    D T 577      -7.099  -3.690  -6.100  1.00 85.86     0.083 A 
HETATM    9  C8    D T 577      -8.127  -2.776  -6.089  1.00 86.68     0.084 A 
HETATM   10  N9    D T 577      -7.629  -1.534  -5.922  1.00 87.05    -0.287 N 
ENDROOT
BRANCH  10  11
HETATM   11  C1'   D T 577      -8.430  -0.284  -5.863  1.00 88.13     0.240 C 
HETATM   12  C2'   D T 577      -7.834   0.661  -6.884  1.00 88.30     0.234 C 
HETATM   13  O2'   D T 577      -7.999   2.019  -6.458  1.00 89.07    -0.216 OA
HETATM   14  C3'   D T 577      -8.623   0.335  -8.127  1.00 88.03     0.216 C 
HETATM   15  O3'   D T 577      -8.691   1.460  -8.997  1.00 88.96    -0.218 OA
HETATM   16  C4'   D T 577      -9.998  -0.073  -7.605  1.00 88.80     0.183 C 
HETATM   17  O4'   D T 577      -9.794  -0.492  -6.253  1.00 88.48    -0.331 OA
BRANCH  16  18
HETATM   18  C5'   D T 577     -10.696  -1.168  -8.422  1.00 89.18     0.214 C 
HETATM   19  O5'   D T 577      -9.763  -1.897  -9.245  1.00 89.91    -0.218 OA
ENDBRANCH  16  18
ENDBRANCH  10  11
BRANCH   8  20
HETATM   20  C10   D T 577      -7.094  -5.169  -6.251  1.00 85.71     0.298 C 
HETATM   21  N11   D T 577      -7.105  -5.682  -7.473  1.00 86.33    -0.102 N 
HETATM   22  O12   D T 577      -7.073  -5.887  -5.270  1.00 85.41    -0.264 OA
ENDBRANCH   8  20
TORSDOF 3
ENDMDL
MODEL 8
REMARK VINA RESULT:    -5.412      3.241      5.884
REMARK INTER + INTRA:          -6.698
REMARK INTER:                  -6.290
REMARK INTRA:                  -0.408
REMARK UNBOUND:                -0.337
REMARK  3 active torsions:
REMARK  status: ('A' for Active; 'I' for Inactive)
REMARK    1  A    between atoms: C7_8  and  C10_12 
REMARK    2  A    between atoms: N9_10  and  C1'_11 
REMARK    3  A    between atoms: C4'_19  and  C5'_21 
ROOT
HETATM    1  N1    D T 577     -11.713  -1.270  -6.205  1.00 85.37    -0.203 NA
HETATM    2  C2    D T 577     -11.155  -2.381  -5.682  1.00 86.80     0.202 A 
HETATM    3  N3    D T 577      -9.829  -2.512  -5.463  1.00 86.97    -0.206 NA
HETATM    4  C4    D T 577      -8.963  -1.512  -5.756  1.00 86.50     0.151 A 
HETATM    5  C5    D T 577      -9.502  -0.269  -6.329  1.00 85.57     0.078 A 
HETATM    6  C6    D T 577     -10.968  -0.198  -6.543  1.00 85.00     0.188 A 
HETATM    7  N6    D T 577     -11.568   0.889  -7.062  1.00 84.84    -0.127 N 
HETATM    8  C7    D T 577      -8.291   0.551  -6.509  1.00 85.86     0.083 A 
HETATM    9  C8    D T 577      -7.213  -0.185  -6.073  1.00 86.68     0.084 A 
HETATM   10  N9    D T 577      -7.632  -1.389  -5.635  1.00 87.05    -0.287 N 
ENDROOT
BRANCH  10  11
HETATM   11  C1'   D T 577      -6.759  -2.462  -5.092  1.00 88.13     0.240 C 
HETATM   12  C2'   D T 577      -6.641  -3.513  -6.175  1.00 88.30     0.234 C 
HETATM   13  O2'   D T 577      -6.474  -4.810  -5.590  1.00 89.07    -0.216 OA
HETATM   14  C3'   D T 577      -5.428  -3.054  -6.942  1.00 88.03     0.216 C 
HETATM   15  O3'   D T 577      -4.775  -4.153  -7.569  1.00 88.96    -0.218 OA
HETATM   16  C4'   D T 577      -4.547  -2.385  -5.890  1.00 88.80     0.183 C 
HETATM   17  O4'   D T 577      -5.427  -2.000  -4.831  1.00 88.48    -0.331 OA
BRANCH  16  18
HETATM   18  C5'   D T 577      -3.738  -1.185  -6.398  1.00 89.18     0.214 C 
HETATM   19  O5'   D T 577      -3.569  -0.183  -5.374  1.00 89.91    -0.218 OA
ENDBRANCH  16  18
ENDBRANCH  10  11
BRANCH   8  20
HETATM   20  C10   D T 577      -8.384   1.920  -7.080  1.00 85.71     0.298 C 
HETATM   21  N11   D T 577      -8.059   2.952  -6.313  1.00 86.33    -0.102 N 
HETATM   22  O12   D T 577      -8.745   2.083  -8.230  1.00 85.41    -0.264 OA
ENDBRANCH   8  20
TORSDOF 3
ENDMDL
MODEL 9
REMARK VINA RESULT:    -5.399      2.785      5.777
REMARK INTER + INTRA:          -6.683
REMARK INTER:                  -6.164
REMARK INTRA:                  -0.519
REMARK UNBOUND:                -0.337
REMARK  3 active torsions:
REMARK  status: ('A' for Active; 'I' for Inactive)
REMARK    1  A    between atoms: C7_8  and  C10_12 
REMARK    2  A    between atoms: N9_10  and  C1'_11 
REMARK    3  A    between atoms: C4'_19  and  C5'_21 
ROOT
HETATM    1  N1    D T 577      -9.997  -5.221  -7.731  1.00 85.37    -0.203 NA
HETATM    2  C2    D T 577      -8.821  -5.331  -8.382  1.00 86.80     0.202 A 
HETATM    3  N3    D T 577      -7.737  -4.581  -8.089  1.00 86.97    -0.206 NA
HETATM    4  C4    D T 577      -7.766  -3.657  -7.097  1.00 86.50     0.151 A 
HETATM    5  C5    D T 577      -9.017  -3.483  -6.343  1.00 85.57     0.078 A 
HETATM    6  C6    D T 577     -10.166  -4.340  -6.723  1.00 85.00     0.188 A 
HETATM    7  N6    D T 577     -11.357  -4.264  -6.101  1.00 84.84    -0.127 N 
HETATM    8  C7    D T 577      -8.665  -2.421  -5.383  1.00 85.86     0.083 A 
HETATM    9  C8    D T 577      -7.355  -2.066  -5.607  1.00 86.68     0.084 A 
HETATM   10  N9    D T 577      -6.848  -2.806  -6.614  1.00 87.05    -0.287 N 
ENDROOT
BRANCH  10  11
HETATM   11  C1'   D T 577      -5.465  -2.708  -7.146  1.00 88.13     0.240 C 
HETATM   12  C2'   D T 577      -4.592  -2.246  -5.998  1.00 88.30     0.234 C 
HETATM   13  O2'   D T 577      -3.497  -1.464  -6.491  1.00 89.07    -0.216 OA
HETATM   14  C3'   D T 577      -4.153  -3.549  -5.380  1.00 88.03     0.216 C 
HETATM   15  O3'   D T 577      -2.895  -3.406  -4.729  1.00 88.96    -0.218 OA
HETATM   16  C4'   D T 577      -4.085  -4.520  -6.555  1.00 88.80     0.183 C 
HETATM   17  O4'   D T 577      -4.948  -3.979  -7.559  1.00 88.48    -0.331 OA
BRANCH  16  18
HETATM   18  C5'   D T 577      -4.471  -5.965  -6.218  1.00 89.18     0.214 C 
HETATM   19  O5'   D T 577      -5.720  -6.031  -5.500  1.00 89.91    -0.218 OA
ENDBRANCH  16  18
ENDBRANCH  10  11
BRANCH   8  20
HETATM   20  C10   D T 577      -9.669  -1.924  -4.407  1.00 85.71     0.298 C 
HETATM   21  N11   D T 577     -10.158  -0.702  -4.564  1.00 86.33    -0.102 N 
HETATM   22  O12   D T 577     -10.036  -2.632  -3.489  1.00 85.41    -0.264 OA
ENDBRANCH   8  20
TORSDOF 3
ENDMDL
