MODEL 1
REMARK VINA RESULT:    -6.427      0.000      0.000
REMARK INTER + INTRA:          -7.662
REMARK INTER:                  -7.555
REMARK INTRA:                  -0.107
REMARK UNBOUND:                -0.107
REMARK  3 active torsions:
REMARK  status: ('A' for Active; 'I' for Inactive)
REMARK    1  A    between atoms: C7_8  and  C10_12 
REMARK    2  A    between atoms: N9_10  and  C1'_11 
REMARK    3  A    between atoms: C4'_19  and  C5'_21 
ROOT
HETATM    1  N1    D T 577      10.303  -3.574  -0.564  1.00 85.37    -0.203 NA
HETATM    2  C2    D T 577      10.037  -2.266  -0.360  1.00 86.80     0.202 A 
HETATM    3  N3    D T 577       9.632  -1.430  -1.338  1.00 86.97    -0.206 NA
HETATM    4  C4    D T 577       9.460  -1.862  -2.610  1.00 86.50     0.151 A 
HETATM    5  C5    D T 577       9.730  -3.277  -2.908  1.00 85.57     0.078 A 
HETATM    6  C6    D T 577      10.174  -4.137  -1.783  1.00 85.00     0.188 A 
HETATM    7  N6    D T 577      10.450  -5.444  -1.941  1.00 84.84    -0.127 N 
HETATM    8  C7    D T 577       9.442  -3.361  -4.351  1.00 85.86     0.083 A 
HETATM    9  C8    D T 577       9.056  -2.111  -4.778  1.00 86.68     0.084 A 
HETATM   10  N9    D T 577       9.072  -1.251  -3.740  1.00 87.05    -0.287 N 
ENDROOT
BRANCH  10  11
HETATM   11  C1'   D T 577       8.719   0.191  -3.809  1.00 88.13     0.240 C 
HETATM   12  C2'   D T 577       9.950   0.912  -4.315  1.00 88.30     0.234 C 
HETATM   13  O2'   D T 577      10.004   2.239  -3.774  1.00 89.07    -0.216 OA
HETATM   14  C3'   D T 577       9.744   0.895  -5.809  1.00 88.03     0.216 C 
HETATM   15  O3'   D T 577      10.395   2.002  -6.426  1.00 88.96    -0.218 OA
HETATM   16  C4'   D T 577       8.230   0.950  -5.982  1.00 88.80     0.183 C 
HETATM   17  O4'   D T 577       7.679   0.453  -4.758  1.00 88.48    -0.331 OA
BRANCH  16  18
HETATM   18  C5'   D T 577       7.691   0.165  -7.186  1.00 89.18     0.214 C 
HETATM   19  O5'   D T 577       7.136   1.042  -8.189  1.00 89.91    -0.218 OA
ENDBRANCH  16  18
ENDBRANCH  10  11
BRANCH   8  20
HETATM   20  C10   D T 577       9.595  -4.650  -5.078  1.00 85.71     0.298 C 
HETATM   21  N11   D T 577      10.460  -4.714  -6.080  1.00 86.33    -0.102 N 
HETATM   22  O12   D T 577       8.942  -5.621  -4.749  1.00 85.41    -0.264 OA
ENDBRANCH   8  20
TORSDOF 3
ENDMDL
MODEL 2
REMARK VINA RESULT:    -6.297      2.683      6.285
REMARK INTER + INTRA:          -7.509
REMARK INTER:                  -7.090
REMARK INTRA:                  -0.419
REMARK UNBOUND:                -0.107
REMARK  3 active torsions:
REMARK  status: ('A' for Active; 'I' for Inactive)
REMARK    1  A    between atoms: C7_8  and  C10_12 
REMARK    2  A    between atoms: N9_10  and  C1'_11 
REMARK    3  A    between atoms: C4'_19  and  C5'_21 
ROOT
HETATM    1  N1    D T 577       7.403  -1.310  -6.637  1.00 85.37    -0.203 NA
HETATM    2  C2    D T 577       7.042  -2.397  -5.923  1.00 86.80     0.202 A 
HETATM    3  N3    D T 577       7.414  -2.601  -4.642  1.00 86.97    -0.206 NA
HETATM    4  C4    D T 577       8.186  -1.706  -3.980  1.00 86.50     0.151 A 
HETATM    5  C5    D T 577       8.617  -0.495  -4.695  1.00 85.57     0.078 A 
HETATM    6  C6    D T 577       8.171  -0.339  -6.101  1.00 85.00     0.188 A 
HETATM    7  N6    D T 577       8.507   0.727  -6.849  1.00 84.84    -0.127 N 
HETATM    8  C7    D T 577       9.417   0.210  -3.677  1.00 85.86     0.083 A 
HETATM    9  C8    D T 577       9.410  -0.553  -2.532  1.00 86.68     0.084 A 
HETATM   10  N9    D T 577       8.680  -1.669  -2.733  1.00 87.05    -0.287 N 
ENDROOT
BRANCH  10  11
HETATM   11  C1'   D T 577       8.444  -2.738  -1.729  1.00 88.13     0.240 C 
HETATM   12  C2'   D T 577       9.454  -3.829  -2.015  1.00 88.30     0.234 C 
HETATM   13  O2'   D T 577       8.917  -5.108  -1.655  1.00 89.07    -0.216 OA
HETATM   14  C3'   D T 577      10.623  -3.421  -1.154  1.00 88.03     0.216 C 
HETATM   15  O3'   D T 577      11.399  -4.555  -0.777  1.00 88.96    -0.218 OA
HETATM   16  C4'   D T 577       9.986  -2.734   0.049  1.00 88.80     0.183 C 
HETATM   17  O4'   D T 577       8.697  -2.294  -0.390  1.00 88.48    -0.331 OA
BRANCH  16  18
HETATM   18  C5'   D T 577      10.797  -1.567   0.628  1.00 89.18     0.214 C 
HETATM   19  O5'   D T 577      12.117  -1.495   0.049  1.00 89.91    -0.218 OA
ENDBRANCH  16  18
ENDBRANCH  10  11
BRANCH   8  20
HETATM   20  C10   D T 577      10.060   1.513  -3.991  1.00 85.71     0.298 C 
HETATM   21  N11   D T 577      11.329   1.518  -4.373  1.00 86.33    -0.102 N 
HETATM   22  O12   D T 577       9.426   2.547  -3.905  1.00 85.41    -0.264 OA
ENDBRANCH   8  20
TORSDOF 3
ENDMDL
MODEL 3
REMARK VINA RESULT:    -6.272      2.893      5.496
REMARK INTER + INTRA:          -7.479
REMARK INTER:                  -7.032
REMARK INTRA:                  -0.447
REMARK UNBOUND:                -0.107
REMARK  3 active torsions:
REMARK  status: ('A' for Active; 'I' for Inactive)
REMARK    1  A    between atoms: C7_8  and  C10_12 
REMARK    2  A    between atoms: N9_10  and  C1'_11 
REMARK    3  A    between atoms: C4'_19  and  C5'_21 
ROOT
HETATM    1  N1    D T 577       8.679   1.318  -4.763  1.00 85.37    -0.203 NA
HETATM    2  C2    D T 577       8.955   1.478  -3.451  1.00 86.80     0.202 A 
HETATM    3  N3    D T 577       8.983   0.457  -2.569  1.00 86.97    -0.206 NA
HETATM    4  C4    D T 577       8.734  -0.817  -2.956  1.00 86.50     0.151 A 
HETATM    5  C5    D T 577       8.426  -1.068  -4.372  1.00 85.57     0.078 A 
HETATM    6  C6    D T 577       8.411   0.102  -5.284  1.00 85.00     0.188 A 
HETATM    7  N6    D T 577       8.140  -0.010  -6.596  1.00 84.84    -0.127 N 
HETATM    8  C7    D T 577       8.219  -2.527  -4.400  1.00 85.86     0.083 A 
HETATM    9  C8    D T 577       8.400  -3.005  -3.123  1.00 86.68     0.084 A 
HETATM   10  N9    D T 577       8.704  -1.984  -2.295  1.00 87.05    -0.287 N 
ENDROOT
BRANCH  10  11
HETATM   11  C1'   D T 577       8.967  -2.105  -0.837  1.00 88.13     0.240 C 
HETATM   12  C2'   D T 577       9.235  -3.571  -0.568  1.00 88.30     0.234 C 
HETATM   13  O2'   D T 577       8.804  -3.918   0.755  1.00 89.07    -0.216 OA
HETATM   14  C3'   D T 577      10.730  -3.664  -0.741  1.00 88.03     0.216 C 
HETATM   15  O3'   D T 577      11.268  -4.727   0.040  1.00 88.96    -0.218 OA
HETATM   16  C4'   D T 577      11.248  -2.301  -0.293  1.00 88.80     0.183 C 
HETATM   17  O4'   D T 577      10.147  -1.399  -0.436  1.00 88.48    -0.331 OA
BRANCH  16  18
HETATM   18  C5'   D T 577      12.476  -1.796  -1.061  1.00 89.18     0.214 C 
HETATM   19  O5'   D T 577      12.176  -1.560  -2.453  1.00 89.91    -0.218 OA
ENDBRANCH  16  18
ENDBRANCH  10  11
BRANCH   8  20
HETATM   20  C10   D T 577       7.874  -3.216  -5.672  1.00 85.71     0.298 C 
HETATM   21  N11   D T 577       6.701  -2.960  -6.235  1.00 86.33    -0.102 N 
HETATM   22  O12   D T 577       8.659  -3.990  -6.183  1.00 85.41    -0.264 OA
ENDBRANCH   8  20
TORSDOF 3
ENDMDL
MODEL 4
REMARK VINA RESULT:    -6.270      2.883      6.156
REMARK INTER + INTRA:          -7.477
REMARK INTER:                  -7.672
REMARK INTRA:                   0.195
REMARK UNBOUND:                -0.107
REMARK  3 active torsions:
REMARK  status: ('A' for Active; 'I' for Inactive)
REMARK    1  A    between atoms: C7_8  and  C10_12 
REMARK    2  A    between atoms: N9_10  and  C1'_11 
REMARK    3  A    between atoms: C4'_19  and  C5'_21 
ROOT
HETATM    1  N1    D T 577       6.780  -1.800  -7.937  1.00 85.37    -0.203 NA
HETATM    2  C2    D T 577       6.698  -2.600  -6.853  1.00 86.80     0.202 A 
HETATM    3  N3    D T 577       7.178  -2.256  -5.639  1.00 86.97    -0.206 NA
HETATM    4  C4    D T 577       7.781  -1.061  -5.432  1.00 86.50     0.151 A 
HETATM    5  C5    D T 577       7.907  -0.136  -6.569  1.00 85.57     0.078 A 
HETATM    6  C6    D T 577       7.357  -0.582  -7.873  1.00 85.00     0.188 A 
HETATM    7  N6    D T 577       7.418   0.180  -8.979  1.00 84.84    -0.127 N 
HETATM    8  C7    D T 577       8.597   1.018  -5.968  1.00 85.86     0.083 A 
HETATM    9  C8    D T 577       8.818   0.734  -4.639  1.00 86.68     0.084 A 
HETATM   10  N9    D T 577       8.328  -0.488  -4.349  1.00 87.05    -0.287 N 
ENDROOT
BRANCH  10  11
HETATM   11  C1'   D T 577       8.381  -1.144  -3.016  1.00 88.13     0.240 C 
HETATM   12  C2'   D T 577       8.530  -2.629  -3.272  1.00 88.30     0.234 C 
HETATM   13  O2'   D T 577       7.903  -3.377  -2.222  1.00 89.07    -0.216 OA
HETATM   14  C3'   D T 577      10.028  -2.803  -3.302  1.00 88.03     0.216 C 
HETATM   15  O3'   D T 577      10.396  -4.121  -2.908  1.00 88.96    -0.218 OA
HETATM   16  C4'   D T 577      10.550  -1.746  -2.334  1.00 88.80     0.183 C 
HETATM   17  O4'   D T 577       9.529  -0.747  -2.258  1.00 88.48    -0.331 OA
BRANCH  16  18
HETATM   18  C5'   D T 577      11.898  -1.126  -2.726  1.00 89.18     0.214 C 
HETATM   19  O5'   D T 577      12.947  -1.505  -1.810  1.00 89.91    -0.218 OA
ENDBRANCH  16  18
ENDBRANCH  10  11
BRANCH   8  20
HETATM   20  C10   D T 577       8.933   2.210  -6.791  1.00 85.71     0.298 C 
HETATM   21  N11   D T 577      10.197   2.605  -6.850  1.00 86.33    -0.102 N 
HETATM   22  O12   D T 577       8.062   2.800  -7.401  1.00 85.41    -0.264 OA
ENDBRANCH   8  20
TORSDOF 3
ENDMDL
MODEL 5
REMARK VINA RESULT:    -6.025      2.928      5.666
REMARK INTER + INTRA:          -7.189
REMARK INTER:                  -7.332
REMARK INTRA:                   0.143
REMARK UNBOUND:                -0.107
REMARK  3 active torsions:
REMARK  status: ('A' for Active; 'I' for Inactive)
REMARK    1  A    between atoms: C7_8  and  C10_12 
REMARK    2  A    between atoms: N9_10  and  C1'_11 
REMARK    3  A    between atoms: C4'_19  and  C5'_21 
ROOT
HETATM    1  N1    D T 577       8.905   2.021  -5.589  1.00 85.37    -0.203 NA
HETATM    2  C2    D T 577       9.738   1.957  -4.529  1.00 86.80     0.202 A 
HETATM    3  N3    D T 577      10.023   0.810  -3.877  1.00 86.97    -0.206 NA
HETATM    4  C4    D T 577       9.481  -0.372  -4.259  1.00 86.50     0.151 A 
HETATM    5  C5    D T 577       8.564  -0.379  -5.409  1.00 85.57     0.078 A 
HETATM    6  C6    D T 577       8.297   0.919  -6.075  1.00 85.00     0.188 A 
HETATM    7  N6    D T 577       7.474   1.030  -7.133  1.00 84.84    -0.127 N 
HETATM    8  C7    D T 577       8.193  -1.801  -5.512  1.00 85.86     0.083 A 
HETATM    9  C8    D T 577       8.849  -2.484  -4.514  1.00 86.68     0.084 A 
HETATM   10  N9    D T 577       9.600  -1.625  -3.795  1.00 87.05    -0.287 N 
ENDROOT
BRANCH  10  11
HETATM   11  C1'   D T 577      10.451  -1.988  -2.632  1.00 88.13     0.240 C 
HETATM   12  C2'   D T 577       9.595  -1.801  -1.397  1.00 88.30     0.234 C 
HETATM   13  O2'   D T 577      10.412  -1.425  -0.281  1.00 89.07    -0.216 OA
HETATM   14  C3'   D T 577       8.965  -3.161  -1.230  1.00 88.03     0.216 C 
HETATM   15  O3'   D T 577       8.646  -3.411   0.135  1.00 88.96    -0.218 OA
HETATM   16  C4'   D T 577      10.014  -4.131  -1.764  1.00 88.80     0.183 C 
HETATM   17  O4'   D T 577      10.838  -3.368  -2.649  1.00 88.48    -0.331 OA
BRANCH  16  18
HETATM   18  C5'   D T 577       9.445  -5.368  -2.472  1.00 89.18     0.214 C 
HETATM   19  O5'   D T 577       9.013  -6.372  -1.528  1.00 89.91    -0.218 OA
ENDBRANCH  16  18
ENDBRANCH  10  11
BRANCH   8  20
HETATM   20  C10   D T 577       7.252  -2.261  -6.569  1.00 85.71     0.298 C 
HETATM   21  N11   D T 577       7.452  -1.857  -7.815  1.00 86.33    -0.102 N 
HETATM   22  O12   D T 577       6.327  -2.999  -6.289  1.00 85.41    -0.264 OA
ENDBRANCH   8  20
TORSDOF 3
ENDMDL
MODEL 6
REMARK VINA RESULT:    -5.959      2.424      4.414
REMARK INTER + INTRA:          -7.111
REMARK INTER:                  -6.688
REMARK INTRA:                  -0.423
REMARK UNBOUND:                -0.107
REMARK  3 active torsions:
REMARK  status: ('A' for Active; 'I' for Inactive)
REMARK    1  A    between atoms: C7_8  and  C10_12 
REMARK    2  A    between atoms: N9_10  and  C1'_11 
REMARK    3  A    between atoms: C4'_19  and  C5'_21 
ROOT
HETATM    1  N1    D T 577       8.854  -5.177   0.435  1.00 85.37    -0.203 NA
HETATM    2  C2    D T 577       8.516  -5.348  -0.860  1.00 86.80     0.202 A 
HETATM    3  N3    D T 577       8.987  -4.571  -1.859  1.00 86.97    -0.206 NA
HETATM    4  C4    D T 577       9.848  -3.554  -1.615  1.00 86.50     0.151 A 
HETATM    5  C5    D T 577      10.262  -3.308  -0.225  1.00 85.57     0.078 A 
HETATM    6  C6    D T 577       9.703  -4.201   0.819  1.00 85.00     0.188 A 
HETATM    7  N6    D T 577      10.011  -4.067   2.122  1.00 84.84    -0.127 N 
HETATM    8  C7    D T 577      11.170  -2.156  -0.361  1.00 85.86     0.083 A 
HETATM    9  C8    D T 577      11.233  -1.822  -1.694  1.00 86.68     0.084 A 
HETATM   10  N9    D T 577      10.452  -2.657  -2.409  1.00 87.05    -0.287 N 
ENDROOT
BRANCH  10  11
HETATM   11  C1'   D T 577      10.260  -2.608  -3.882  1.00 88.13     0.240 C 
HETATM   12  C2'   D T 577       8.834  -2.157  -4.116  1.00 88.30     0.234 C 
HETATM   13  O2'   D T 577       8.326  -2.728  -5.329  1.00 89.07    -0.216 OA
HETATM   14  C3'   D T 577       8.978  -0.657  -4.189  1.00 88.03     0.216 C 
HETATM   15  O3'   D T 577       7.949  -0.085  -4.993  1.00 88.96    -0.218 OA
HETATM   16  C4'   D T 577      10.363  -0.439  -4.786  1.00 88.80     0.183 C 
HETATM   17  O4'   D T 577      11.101  -1.633  -4.510  1.00 88.48    -0.331 OA
BRANCH  16  18
HETATM   18  C5'   D T 577      11.103   0.798  -4.260  1.00 89.18     0.214 C 
HETATM   19  O5'   D T 577      11.264   1.801  -5.286  1.00 89.91    -0.218 OA
ENDBRANCH  16  18
ENDBRANCH  10  11
BRANCH   8  20
HETATM   20  C10   D T 577      11.826  -1.567   0.837  1.00 85.71     0.298 C 
HETATM   21  N11   D T 577      13.118  -1.792   1.028  1.00 86.33    -0.102 N 
HETATM   22  O12   D T 577      11.186  -0.888   1.616  1.00 85.41    -0.264 OA
ENDBRANCH   8  20
TORSDOF 3
ENDMDL
MODEL 7
REMARK VINA RESULT:    -5.896      2.573      3.182
REMARK INTER + INTRA:          -7.037
REMARK INTER:                  -6.639
REMARK INTRA:                  -0.397
REMARK UNBOUND:                -0.107
REMARK  3 active torsions:
REMARK  status: ('A' for Active; 'I' for Inactive)
REMARK    1  A    between atoms: C7_8  and  C10_12 
REMARK    2  A    between atoms: N9_10  and  C1'_11 
REMARK    3  A    between atoms: C4'_19  and  C5'_21 
ROOT
HETATM    1  N1    D T 577      11.555  -2.831   1.360  1.00 85.37    -0.203 NA
HETATM    2  C2    D T 577      11.106  -1.628   0.943  1.00 86.80     0.202 A 
HETATM    3  N3    D T 577      10.190  -1.477  -0.037  1.00 86.97    -0.206 NA
HETATM    4  C4    D T 577       9.652  -2.546  -0.671  1.00 86.50     0.151 A 
HETATM    5  C5    D T 577      10.094  -3.891  -0.269  1.00 85.57     0.078 A 
HETATM    6  C6    D T 577      11.104  -3.980   0.813  1.00 85.00     0.188 A 
HETATM    7  N6    D T 577      11.580  -5.156   1.259  1.00 84.84    -0.127 N 
HETATM    8  C7    D T 577       9.310  -4.764  -1.160  1.00 85.86     0.083 A 
HETATM    9  C8    D T 577       8.528  -3.962  -1.959  1.00 86.68     0.084 A 
HETATM   10  N9    D T 577       8.744  -2.667  -1.651  1.00 87.05    -0.287 N 
ENDROOT
BRANCH  10  11
HETATM   11  C1'   D T 577       8.084  -1.504  -2.301  1.00 88.13     0.240 C 
HETATM   12  C2'   D T 577       9.184  -0.692  -2.951  1.00 88.30     0.234 C 
HETATM   13  O2'   D T 577       8.831   0.698  -2.964  1.00 89.07    -0.216 OA
HETATM   14  C3'   D T 577       9.256  -1.292  -4.332  1.00 88.03     0.216 C 
HETATM   15  O3'   D T 577       9.732  -0.338  -5.278  1.00 88.96    -0.218 OA
HETATM   16  C4'   D T 577       7.827  -1.732  -4.629  1.00 88.80     0.183 C 
HETATM   17  O4'   D T 577       7.197  -1.900  -3.355  1.00 88.48    -0.331 OA
BRANCH  16  18
HETATM   18  C5'   D T 577       7.709  -3.009  -5.472  1.00 89.18     0.214 C 
HETATM   19  O5'   D T 577       6.636  -2.917  -6.433  1.00 89.91    -0.218 OA
ENDBRANCH  16  18
ENDBRANCH  10  11
BRANCH   8  20
HETATM   20  C10   D T 577       9.457  -6.242  -1.089  1.00 85.71     0.298 C 
HETATM   21  N11   D T 577       8.501  -6.947  -0.500  1.00 86.33    -0.102 N 
HETATM   22  O12   D T 577      10.433  -6.786  -1.568  1.00 85.41    -0.264 OA
ENDBRANCH   8  20
TORSDOF 3
ENDMDL
MODEL 8
REMARK VINA RESULT:    -5.768      2.909      6.430
REMARK INTER + INTRA:          -6.887
REMARK INTER:                  -6.443
REMARK INTRA:                  -0.444
REMARK UNBOUND:                -0.107
REMARK  3 active torsions:
REMARK  status: ('A' for Active; 'I' for Inactive)
REMARK    1  A    between atoms: C7_8  and  C10_12 
REMARK    2  A    between atoms: N9_10  and  C1'_11 
REMARK    3  A    between atoms: C4'_19  and  C5'_21 
ROOT
HETATM    1  N1    D T 577       8.651  -3.681  -5.517  1.00 85.37    -0.203 NA
HETATM    2  C2    D T 577       9.265  -4.666  -4.828  1.00 86.80     0.202 A 
HETATM    3  N3    D T 577       9.846  -4.479  -3.624  1.00 86.97    -0.206 NA
HETATM    4  C4    D T 577       9.845  -3.266  -3.021  1.00 86.50     0.151 A 
HETATM    5  C5    D T 577       9.193  -2.144  -3.713  1.00 85.57     0.078 A 
HETATM    6  C6    D T 577       8.577  -2.424  -5.033  1.00 85.00     0.188 A 
HETATM    7  N6    D T 577       7.956  -1.473  -5.754  1.00 84.84    -0.127 N 
HETATM    8  C7    D T 577       9.395  -1.028  -2.772  1.00 85.86     0.083 A 
HETATM    9  C8    D T 577      10.087  -1.511  -1.686  1.00 86.68     0.084 A 
HETATM   10  N9    D T 577      10.337  -2.825  -1.853  1.00 87.05    -0.287 N 
ENDROOT
BRANCH  10  11
HETATM   11  C1'   D T 577      11.065  -3.694  -0.893  1.00 88.13     0.240 C 
HETATM   12  C2'   D T 577      10.732  -3.180   0.492  1.00 88.30     0.234 C 
HETATM   13  O2'   D T 577      11.830  -3.410   1.384  1.00 89.07    -0.216 OA
HETATM   14  C3'   D T 577       9.508  -3.986   0.850  1.00 88.03     0.216 C 
HETATM   15  O3'   D T 577       9.395  -4.142   2.261  1.00 88.96    -0.218 OA
HETATM   16  C4'   D T 577       9.712  -5.320   0.138  1.00 88.80     0.183 C 
HETATM   17  O4'   D T 577      10.616  -5.054  -0.938  1.00 88.48    -0.331 OA
BRANCH  16  18
HETATM   18  C5'   D T 577       8.425  -5.979  -0.375  1.00 89.18     0.214 C 
HETATM   19  O5'   D T 577       8.697  -6.941  -1.416  1.00 89.91    -0.218 OA
ENDBRANCH  16  18
ENDBRANCH  10  11
BRANCH   8  20
HETATM   20  C10   D T 577       8.881   0.331  -3.092  1.00 85.71     0.298 C 
HETATM   21  N11   D T 577       9.681   1.179  -3.724  1.00 86.33    -0.102 N 
HETATM   22  O12   D T 577       7.749   0.647  -2.783  1.00 85.41    -0.264 OA
ENDBRANCH   8  20
TORSDOF 3
ENDMDL
MODEL 9
REMARK VINA RESULT:    -5.766      2.481      4.424
REMARK INTER + INTRA:          -6.884
REMARK INTER:                  -6.331
REMARK INTRA:                  -0.553
REMARK UNBOUND:                -0.107
REMARK  3 active torsions:
REMARK  status: ('A' for Active; 'I' for Inactive)
REMARK    1  A    between atoms: C7_8  and  C10_12 
REMARK    2  A    between atoms: N9_10  and  C1'_11 
REMARK    3  A    between atoms: C4'_19  and  C5'_21 
ROOT
HETATM    1  N1    D T 577       9.785  -5.785   0.255  1.00 85.37    -0.203 NA
HETATM    2  C2    D T 577       8.825  -5.639  -0.682  1.00 86.80     0.202 A 
HETATM    3  N3    D T 577       8.526  -4.457  -1.261  1.00 86.97    -0.206 NA
HETATM    4  C4    D T 577       9.188  -3.322  -0.931  1.00 86.50     0.151 A 
HETATM    5  C5    D T 577      10.250  -3.404   0.085  1.00 85.57     0.078 A 
HETATM    6  C6    D T 577      10.522  -4.737   0.678  1.00 85.00     0.188 A 
HETATM    7  N6    D T 577      11.468  -4.928   1.615  1.00 84.84    -0.127 N 
HETATM    8  C7    D T 577      10.718  -2.010   0.171  1.00 85.86     0.083 A 
HETATM    9  C8    D T 577       9.978  -1.259  -0.713  1.00 86.68     0.084 A 
HETATM   10  N9    D T 577       9.090  -2.051  -1.349  1.00 87.05    -0.287 N 
ENDROOT
BRANCH  10  11
HETATM   11  C1'   D T 577       8.113  -1.601  -2.375  1.00 88.13     0.240 C 
HETATM   12  C2'   D T 577       8.762  -0.448  -3.110  1.00 88.30     0.234 C 
HETATM   13  O2'   D T 577       7.763   0.474  -3.565  1.00 89.07    -0.216 OA
HETATM   14  C3'   D T 577       9.473  -1.146  -4.242  1.00 88.03     0.216 C 
HETATM   15  O3'   D T 577       9.611  -0.282  -5.368  1.00 88.96    -0.218 OA
HETATM   16  C4'   D T 577       8.599  -2.356  -4.549  1.00 88.80     0.183 C 
HETATM   17  O4'   D T 577       7.851  -2.610  -3.357  1.00 88.48    -0.331 OA
BRANCH  16  18
HETATM   18  C5'   D T 577       9.367  -3.609  -4.993  1.00 89.18     0.214 C 
HETATM   19  O5'   D T 577      10.496  -3.875  -4.134  1.00 89.91    -0.218 OA
ENDBRANCH  16  18
ENDBRANCH  10  11
BRANCH   8  20
HETATM   20  C10   D T 577      11.813  -1.638   1.107  1.00 85.71     0.298 C 
HETATM   21  N11   D T 577      13.048  -1.547   0.634  1.00 86.33    -0.102 N 
HETATM   22  O12   D T 577      11.570  -1.416   2.277  1.00 85.41    -0.264 OA
ENDBRANCH   8  20
TORSDOF 3
ENDMDL
