MODEL 1
REMARK VINA RESULT:    -6.586      0.000      0.000
REMARK INTER + INTRA:          -8.129
REMARK INTER:                  -7.741
REMARK INTRA:                  -0.387
REMARK UNBOUND:                -0.387
REMARK  3 active torsions:
REMARK  status: ('A' for Active; 'I' for Inactive)
REMARK    1  A    between atoms: C7_8  and  C10_12 
REMARK    2  A    between atoms: N9_10  and  C1'_11 
REMARK    3  A    between atoms: C4'_19  and  C5'_21 
ROOT
HETATM    1  N1    D T 577       3.020   3.642  10.690  1.00 85.37    -0.203 NA
HETATM    2  C2    D T 577       4.160   4.334  10.483  1.00 86.80     0.202 A 
HETATM    3  N3    D T 577       4.241   5.402   9.660  1.00 86.97    -0.206 NA
HETATM    4  C4    D T 577       3.159   5.853   8.982  1.00 86.50     0.151 A 
HETATM    5  C5    D T 577       1.881   5.146   9.158  1.00 85.57     0.078 A 
HETATM    6  C6    D T 577       1.868   3.982  10.077  1.00 85.00     0.188 A 
HETATM    7  N6    D T 577       0.756   3.262  10.312  1.00 84.84    -0.127 N 
HETATM    8  C7    D T 577       0.972   5.907   8.282  1.00 85.86     0.083 A 
HETATM    9  C8    D T 577       1.697   6.920   7.698  1.00 86.68     0.084 A 
HETATM   10  N9    D T 577       2.975   6.868   8.125  1.00 87.05    -0.287 N 
ENDROOT
BRANCH  10  11
HETATM   11  C1'   D T 577       4.061   7.796   7.712  1.00 88.13     0.240 C 
HETATM   12  C2'   D T 577       4.708   7.185   6.488  1.00 88.30     0.234 C 
HETATM   13  O2'   D T 577       6.096   7.537   6.434  1.00 89.07    -0.216 OA
HETATM   14  C3'   D T 577       3.905   7.786   5.362  1.00 88.03     0.216 C 
HETATM   15  O3'   D T 577       4.681   7.867   4.170  1.00 88.96    -0.218 OA
HETATM   16  C4'   D T 577       3.500   9.163   5.880  1.00 88.80     0.183 C 
HETATM   17  O4'   D T 577       3.559   9.076   7.307  1.00 88.48    -0.331 OA
BRANCH  16  18
HETATM   18  C5'   D T 577       2.121   9.644   5.414  1.00 89.18     0.214 C 
HETATM   19  O5'   D T 577       1.431   8.634   4.649  1.00 89.91    -0.218 OA
ENDBRANCH  16  18
ENDBRANCH  10  11
BRANCH   8  20
HETATM   20  C10   D T 577      -0.458   5.518   8.158  1.00 85.71     0.298 C 
HETATM   21  N11   D T 577      -0.775   4.521   7.344  1.00 86.33    -0.102 N 
HETATM   22  O12   D T 577      -1.311   6.101   8.798  1.00 85.41    -0.264 OA
ENDBRANCH   8  20
TORSDOF 3
ENDMDL
MODEL 2
REMARK VINA RESULT:    -6.510      1.587      2.086
REMARK INTER + INTRA:          -8.039
REMARK INTER:                  -7.556
REMARK INTRA:                  -0.483
REMARK UNBOUND:                -0.387
REMARK  3 active torsions:
REMARK  status: ('A' for Active; 'I' for Inactive)
REMARK    1  A    between atoms: C7_8  and  C10_12 
REMARK    2  A    between atoms: N9_10  and  C1'_11 
REMARK    3  A    between atoms: C4'_19  and  C5'_21 
ROOT
HETATM    1  N1    D T 577       0.556   3.852   9.588  1.00 85.37    -0.203 NA
HETATM    2  C2    D T 577       1.861   3.975   9.905  1.00 86.80     0.202 A 
HETATM    3  N3    D T 577       2.664   4.931   9.387  1.00 86.97    -0.206 NA
HETATM    4  C4    D T 577       2.194   5.844   8.504  1.00 86.50     0.151 A 
HETATM    5  C5    D T 577       0.778   5.770   8.111  1.00 85.57     0.078 A 
HETATM    6  C6    D T 577      -0.042   4.693   8.720  1.00 85.00     0.188 A 
HETATM    7  N6    D T 577      -1.346   4.531   8.432  1.00 84.84    -0.127 N 
HETATM    8  C7    D T 577       0.651   6.892   7.164  1.00 85.86     0.083 A 
HETATM    9  C8    D T 577       1.880   7.502   7.063  1.00 86.68     0.084 A 
HETATM   10  N9    D T 577       2.766   6.871   7.859  1.00 87.05    -0.287 N 
ENDROOT
BRANCH  10  11
HETATM   11  C1'   D T 577       4.198   7.239   8.016  1.00 88.13     0.240 C 
HETATM   12  C2'   D T 577       5.001   6.131   7.368  1.00 88.30     0.234 C 
HETATM   13  O2'   D T 577       6.263   5.982   8.029  1.00 89.07    -0.216 OA
HETATM   14  C3'   D T 577       5.137   6.620   5.947  1.00 88.03     0.216 C 
HETATM   15  O3'   D T 577       6.319   6.104   5.343  1.00 88.96    -0.218 OA
HETATM   16  C4'   D T 577       5.169   8.139   6.070  1.00 88.80     0.183 C 
HETATM   17  O4'   D T 577       4.531   8.444   7.315  1.00 88.48    -0.331 OA
BRANCH  16  18
HETATM   18  C5'   D T 577       4.503   8.892   4.912  1.00 89.18     0.214 C 
HETATM   19  O5'   D T 577       3.671   9.973   5.384  1.00 89.91    -0.218 OA
ENDBRANCH  16  18
ENDBRANCH  10  11
BRANCH   8  20
HETATM   20  C10   D T 577      -0.653   7.182   6.509  1.00 85.71     0.298 C 
HETATM   21  N11   D T 577      -0.891   6.664   5.313  1.00 86.33    -0.102 N 
HETATM   22  O12   D T 577      -1.481   7.875   7.069  1.00 85.41    -0.264 OA
ENDBRANCH   8  20
TORSDOF 3
ENDMDL
MODEL 3
REMARK VINA RESULT:    -6.253      1.818      2.010
REMARK INTER + INTRA:          -7.737
REMARK INTER:                  -7.396
REMARK INTRA:                  -0.341
REMARK UNBOUND:                -0.387
REMARK  3 active torsions:
REMARK  status: ('A' for Active; 'I' for Inactive)
REMARK    1  A    between atoms: C7_8  and  C10_12 
REMARK    2  A    between atoms: N9_10  and  C1'_11 
REMARK    3  A    between atoms: C4'_19  and  C5'_21 
ROOT
HETATM    1  N1    D T 577       2.760   4.927   9.558  1.00 85.37    -0.203 NA
HETATM    2  C2    D T 577       3.967   5.481   9.324  1.00 86.80     0.202 A 
HETATM    3  N3    D T 577       4.173   6.453   8.408  1.00 86.97    -0.206 NA
HETATM    4  C4    D T 577       3.157   6.941   7.657  1.00 86.50     0.151 A 
HETATM    5  C5    D T 577       1.810   6.382   7.858  1.00 85.57     0.078 A 
HETATM    6  C6    D T 577       1.661   5.318   8.881  1.00 85.00     0.188 A 
HETATM    7  N6    D T 577       0.477   4.736   9.147  1.00 84.84    -0.127 N 
HETATM    8  C7    D T 577       1.002   7.142   6.888  1.00 85.86     0.083 A 
HETATM    9  C8    D T 577       1.838   8.019   6.235  1.00 86.68     0.084 A 
HETATM   10  N9    D T 577       3.094   7.883   6.704  1.00 87.05    -0.287 N 
ENDROOT
BRANCH  10  11
HETATM   11  C1'   D T 577       4.276   8.656   6.241  1.00 88.13     0.240 C 
HETATM   12  C2'   D T 577       4.921   7.841   5.141  1.00 88.30     0.234 C 
HETATM   13  O2'   D T 577       6.335   8.067   5.121  1.00 89.07    -0.216 OA
HETATM   14  C3'   D T 577       4.226   8.358   3.906  1.00 88.03     0.216 C 
HETATM   15  O3'   D T 577       5.059   8.220   2.758  1.00 88.96    -0.218 OA
HETATM   16  C4'   D T 577       3.924   9.818   4.225  1.00 88.80     0.183 C 
HETATM   17  O4'   D T 577       3.910   9.911   5.653  1.00 88.48    -0.331 OA
BRANCH  16  18
HETATM   18  C5'   D T 577       2.615  10.349   3.627  1.00 89.18     0.214 C 
HETATM   19  O5'   D T 577       2.838  11.034   2.376  1.00 89.91    -0.218 OA
ENDBRANCH  16  18
ENDBRANCH  10  11
BRANCH   8  20
HETATM   20  C10   D T 577      -0.457   6.884   6.756  1.00 85.71     0.298 C 
HETATM   21  N11   D T 577      -1.305   7.747   7.296  1.00 86.33    -0.102 N 
HETATM   22  O12   D T 577      -0.855   5.904   6.157  1.00 85.41    -0.264 OA
ENDBRANCH   8  20
TORSDOF 3
ENDMDL
MODEL 4
REMARK VINA RESULT:    -6.204      1.816      3.437
REMARK INTER + INTRA:          -7.679
REMARK INTER:                  -7.476
REMARK INTRA:                  -0.203
REMARK UNBOUND:                -0.387
REMARK  3 active torsions:
REMARK  status: ('A' for Active; 'I' for Inactive)
REMARK    1  A    between atoms: C7_8  and  C10_12 
REMARK    2  A    between atoms: N9_10  and  C1'_11 
REMARK    3  A    between atoms: C4'_19  and  C5'_21 
ROOT
HETATM    1  N1    D T 577      -0.595   6.712   6.089  1.00 85.37    -0.203 NA
HETATM    2  C2    D T 577      -0.019   7.764   5.472  1.00 86.80     0.202 A 
HETATM    3  N3    D T 577       1.183   8.267   5.830  1.00 86.97    -0.206 NA
HETATM    4  C4    D T 577       1.896   7.731   6.849  1.00 86.50     0.151 A 
HETATM    5  C5    D T 577       1.328   6.581   7.569  1.00 85.57     0.078 A 
HETATM    6  C6    D T 577       0.005   6.083   7.121  1.00 85.00     0.188 A 
HETATM    7  N6    D T 577      -0.609   5.039   7.707  1.00 84.84    -0.127 N 
HETATM    8  C7    D T 577       2.364   6.293   8.578  1.00 85.86     0.083 A 
HETATM    9  C8    D T 577       3.383   7.203   8.410  1.00 86.68     0.084 A 
HETATM   10  N9    D T 577       3.087   8.033   7.390  1.00 87.05    -0.287 N 
ENDROOT
BRANCH  10  11
HETATM   11  C1'   D T 577       3.942   9.149   6.910  1.00 88.13     0.240 C 
HETATM   12  C2'   D T 577       5.370   8.648   6.951  1.00 88.30     0.234 C 
HETATM   13  O2'   D T 577       6.269   9.732   7.211  1.00 89.07    -0.216 OA
HETATM   14  C3'   D T 577       5.545   8.056   5.574  1.00 88.03     0.216 C 
HETATM   15  O3'   D T 577       6.911   8.099   5.172  1.00 88.96    -0.218 OA
HETATM   16  C4'   D T 577       4.655   8.912   4.679  1.00 88.80     0.183 C 
HETATM   17  O4'   D T 577       3.674   9.493   5.544  1.00 88.48    -0.331 OA
BRANCH  16  18
HETATM   18  C5'   D T 577       3.990   8.156   3.523  1.00 89.18     0.214 C 
HETATM   19  O5'   D T 577       2.903   8.910   2.945  1.00 89.91    -0.218 OA
ENDBRANCH  16  18
ENDBRANCH  10  11
BRANCH   8  20
HETATM   20  C10   D T 577       2.186   5.177   9.544  1.00 85.71     0.298 C 
HETATM   21  N11   D T 577       3.140   4.261   9.637  1.00 86.33    -0.102 N 
HETATM   22  O12   D T 577       1.188   5.116  10.236  1.00 85.41    -0.264 OA
ENDBRANCH   8  20
TORSDOF 3
ENDMDL
MODEL 5
REMARK VINA RESULT:    -5.971      2.357      4.519
REMARK INTER + INTRA:          -7.405
REMARK INTER:                  -7.144
REMARK INTRA:                  -0.261
REMARK UNBOUND:                -0.387
REMARK  3 active torsions:
REMARK  status: ('A' for Active; 'I' for Inactive)
REMARK    1  A    between atoms: C7_8  and  C10_12 
REMARK    2  A    between atoms: N9_10  and  C1'_11 
REMARK    3  A    between atoms: C4'_19  and  C5'_21 
ROOT
HETATM    1  N1    D T 577      -0.183   8.831   5.994  1.00 85.37    -0.203 NA
HETATM    2  C2    D T 577       0.927   9.252   5.353  1.00 86.80     0.202 A 
HETATM    3  N3    D T 577       2.137   8.673   5.507  1.00 86.97    -0.206 NA
HETATM    4  C4    D T 577       2.311   7.611   6.329  1.00 86.50     0.151 A 
HETATM    5  C5    D T 577       1.143   7.097   7.063  1.00 85.57     0.078 A 
HETATM    6  C6    D T 577      -0.153   7.784   6.844  1.00 85.00     0.188 A 
HETATM    7  N6    D T 577      -1.285   7.401   7.463  1.00 84.84    -0.127 N 
HETATM    8  C7    D T 577       1.716   5.977   7.830  1.00 85.86     0.083 A 
HETATM    9  C8    D T 577       3.057   5.902   7.533  1.00 86.68     0.084 A 
HETATM   10  N9    D T 577       3.381   6.868   6.650  1.00 87.05    -0.287 N 
ENDROOT
BRANCH  10  11
HETATM   11  C1'   D T 577       4.738   7.108   6.094  1.00 88.13     0.240 C 
HETATM   12  C2'   D T 577       5.365   8.196   6.940  1.00 88.30     0.234 C 
HETATM   13  O2'   D T 577       6.271   8.977   6.151  1.00 89.07    -0.216 OA
HETATM   14  C3'   D T 577       6.059   7.406   8.022  1.00 88.03     0.216 C 
HETATM   15  O3'   D T 577       7.180   8.120   8.533  1.00 88.96    -0.218 OA
HETATM   16  C4'   D T 577       6.468   6.106   7.337  1.00 88.80     0.183 C 
HETATM   17  O4'   D T 577       5.589   5.961   6.218  1.00 88.48    -0.331 OA
BRANCH  16  18
HETATM   18  C5'   D T 577       6.424   4.865   8.236  1.00 89.18     0.214 C 
HETATM   19  O5'   D T 577       7.574   4.790   9.103  1.00 89.91    -0.218 OA
ENDBRANCH  16  18
ENDBRANCH  10  11
BRANCH   8  20
HETATM   20  C10   D T 577       0.857   5.163   8.731  1.00 85.71     0.298 C 
HETATM   21  N11   D T 577      -0.100   4.419   8.194  1.00 86.33    -0.102 N 
HETATM   22  O12   D T 577       1.039   5.180   9.933  1.00 85.41    -0.264 OA
ENDBRANCH   8  20
TORSDOF 3
ENDMDL
MODEL 6
REMARK VINA RESULT:    -5.919      2.267      4.219
REMARK INTER + INTRA:          -7.344
REMARK INTER:                  -6.967
REMARK INTRA:                  -0.377
REMARK UNBOUND:                -0.387
REMARK  3 active torsions:
REMARK  status: ('A' for Active; 'I' for Inactive)
REMARK    1  A    between atoms: C7_8  and  C10_12 
REMARK    2  A    between atoms: N9_10  and  C1'_11 
REMARK    3  A    between atoms: C4'_19  and  C5'_21 
ROOT
HETATM    1  N1    D T 577       0.398   5.802   8.453  1.00 85.37    -0.203 NA
HETATM    2  C2    D T 577       0.624   6.646   7.425  1.00 86.80     0.202 A 
HETATM    3  N3    D T 577       1.857   6.911   6.940  1.00 86.97    -0.206 NA
HETATM    4  C4    D T 577       2.961   6.330   7.466  1.00 86.50     0.151 A 
HETATM    5  C5    D T 577       2.790   5.396   8.591  1.00 85.57     0.078 A 
HETATM    6  C6    D T 577       1.407   5.155   9.070  1.00 85.00     0.188 A 
HETATM    7  N6    D T 577       1.134   4.323  10.091  1.00 84.84    -0.127 N 
HETATM    8  C7    D T 577       4.176   4.986   8.878  1.00 85.86     0.083 A 
HETATM    9  C8    D T 577       5.003   5.639   7.992  1.00 86.68     0.084 A 
HETATM   10  N9    D T 577       4.268   6.418   7.174  1.00 87.05    -0.287 N 
ENDROOT
BRANCH  10  11
HETATM   11  C1'   D T 577       4.806   7.278   6.088  1.00 88.13     0.240 C 
HETATM   12  C2'   D T 577       4.880   8.683   6.647  1.00 88.30     0.234 C 
HETATM   13  O2'   D T 577       4.684   9.643   5.602  1.00 89.07    -0.216 OA
HETATM   14  C3'   D T 577       6.270   8.726   7.232  1.00 88.03     0.216 C 
HETATM   15  O3'   D T 577       6.777  10.057   7.240  1.00 88.96    -0.218 OA
HETATM   16  C4'   D T 577       7.087   7.805   6.333  1.00 88.80     0.183 C 
HETATM   17  O4'   D T 577       6.144   6.918   5.721  1.00 88.48    -0.331 OA
BRANCH  16  18
HETATM   18  C5'   D T 577       8.193   7.021   7.051  1.00 89.18     0.214 C 
HETATM   19  O5'   D T 577       9.442   7.742   7.056  1.00 89.91    -0.218 OA
ENDBRANCH  16  18
ENDBRANCH  10  11
BRANCH   8  20
HETATM   20  C10   D T 577       4.466   4.025   9.975  1.00 85.71     0.298 C 
HETATM   21  N11   D T 577       4.873   2.805   9.658  1.00 86.33    -0.102 N 
HETATM   22  O12   D T 577       4.336   4.362  11.137  1.00 85.41    -0.264 OA
ENDBRANCH   8  20
TORSDOF 3
ENDMDL
MODEL 7
REMARK VINA RESULT:    -5.885      2.412      3.656
REMARK INTER + INTRA:          -7.305
REMARK INTER:                  -6.810
REMARK INTRA:                  -0.494
REMARK UNBOUND:                -0.387
REMARK  3 active torsions:
REMARK  status: ('A' for Active; 'I' for Inactive)
REMARK    1  A    between atoms: C7_8  and  C10_12 
REMARK    2  A    between atoms: N9_10  and  C1'_11 
REMARK    3  A    between atoms: C4'_19  and  C5'_21 
ROOT
HETATM    1  N1    D T 577       6.968   4.400   8.891  1.00 85.37    -0.203 NA
HETATM    2  C2    D T 577       7.559   4.754   7.731  1.00 86.80     0.202 A 
HETATM    3  N3    D T 577       6.940   5.478   6.773  1.00 86.97    -0.206 NA
HETATM    4  C4    D T 577       5.663   5.902   6.924  1.00 86.50     0.151 A 
HETATM    5  C5    D T 577       4.954   5.552   8.166  1.00 85.57     0.078 A 
HETATM    6  C6    D T 577       5.698   4.755   9.172  1.00 85.00     0.188 A 
HETATM    7  N6    D T 577       5.148   4.378  10.341  1.00 84.84    -0.127 N 
HETATM    8  C7    D T 577       3.631   6.170   7.963  1.00 85.86     0.083 A 
HETATM    9  C8    D T 577       3.637   6.788   6.733  1.00 86.68     0.084 A 
HETATM   10  N9    D T 577       4.839   6.619   6.146  1.00 87.05    -0.287 N 
ENDROOT
BRANCH  10  11
HETATM   11  C1'   D T 577       5.225   7.139   4.808  1.00 88.13     0.240 C 
HETATM   12  C2'   D T 577       4.176   8.160   4.422  1.00 88.30     0.234 C 
HETATM   13  O2'   D T 577       4.014   8.189   2.999  1.00 89.07    -0.216 OA
HETATM   14  C3'   D T 577       4.752   9.440   4.975  1.00 88.03     0.216 C 
HETATM   15  O3'   D T 577       4.299  10.565   4.228  1.00 88.96    -0.218 OA
HETATM   16  C4'   D T 577       6.262   9.251   4.872  1.00 88.80     0.183 C 
HETATM   17  O4'   D T 577       6.477   7.837   4.837  1.00 88.48    -0.331 OA
BRANCH  16  18
HETATM   18  C5'   D T 577       7.069   9.903   6.001  1.00 89.18     0.214 C 
HETATM   19  O5'   D T 577       6.494   9.632   7.296  1.00 89.91    -0.218 OA
ENDBRANCH  16  18
ENDBRANCH  10  11
BRANCH   8  20
HETATM   20  C10   D T 577       2.576   6.052   9.004  1.00 85.71     0.298 C 
HETATM   21  N11   D T 577       1.518   5.295   8.752  1.00 86.33    -0.102 N 
HETATM   22  O12   D T 577       2.693   6.635  10.065  1.00 85.41    -0.264 OA
ENDBRANCH   8  20
TORSDOF 3
ENDMDL
MODEL 8
REMARK VINA RESULT:    -5.700      2.031      4.806
REMARK INTER + INTRA:          -7.087
REMARK INTER:                  -6.733
REMARK INTRA:                  -0.353
REMARK UNBOUND:                -0.387
REMARK  3 active torsions:
REMARK  status: ('A' for Active; 'I' for Inactive)
REMARK    1  A    between atoms: C7_8  and  C10_12 
REMARK    2  A    between atoms: N9_10  and  C1'_11 
REMARK    3  A    between atoms: C4'_19  and  C5'_21 
ROOT
HETATM    1  N1    D T 577       4.320   4.333   9.876  1.00 85.37    -0.203 NA
HETATM    2  C2    D T 577       3.059   4.720  10.160  1.00 86.80     0.202 A 
HETATM    3  N3    D T 577       2.372   5.616   9.418  1.00 86.97    -0.206 NA
HETATM    4  C4    D T 577       2.920   6.188   8.320  1.00 86.50     0.151 A 
HETATM    5  C5    D T 577       4.294   5.814   7.949  1.00 85.57     0.078 A 
HETATM    6  C6    D T 577       4.986   4.824   8.812  1.00 85.00     0.188 A 
HETATM    7  N6    D T 577       6.242   4.411   8.568  1.00 84.84    -0.127 N 
HETATM    8  C7    D T 577       4.530   6.623   6.740  1.00 85.86     0.083 A 
HETATM    9  C8    D T 577       3.392   7.356   6.493  1.00 86.68     0.084 A 
HETATM   10  N9    D T 577       2.463   7.083   7.430  1.00 87.05    -0.287 N 
ENDROOT
BRANCH  10  11
HETATM   11  C1'   D T 577       1.105   7.683   7.500  1.00 88.13     0.240 C 
HETATM   12  C2'   D T 577       0.632   7.847   6.071  1.00 88.30     0.234 C 
HETATM   13  O2'   D T 577      -0.239   8.979   5.965  1.00 89.07    -0.216 OA
HETATM   14  C3'   D T 577      -0.070   6.538   5.810  1.00 88.03     0.216 C 
HETATM   15  O3'   D T 577      -1.089   6.695   4.826  1.00 88.96    -0.218 OA
HETATM   16  C4'   D T 577      -0.638   6.136   7.167  1.00 88.80     0.183 C 
HETATM   17  O4'   D T 577       0.159   6.817   8.141  1.00 88.48    -0.331 OA
BRANCH  16  18
HETATM   18  C5'   D T 577      -0.660   4.626   7.432  1.00 89.18     0.214 C 
HETATM   19  O5'   D T 577      -1.652   4.270   8.417  1.00 89.91    -0.218 OA
ENDBRANCH  16  18
ENDBRANCH  10  11
BRANCH   8  20
HETATM   20  C10   D T 577       5.833   6.550   6.026  1.00 85.71     0.298 C 
HETATM   21  N11   D T 577       6.861   7.231   6.511  1.00 86.33    -0.102 N 
HETATM   22  O12   D T 577       5.945   5.871   5.023  1.00 85.41    -0.264 OA
ENDBRANCH   8  20
TORSDOF 3
ENDMDL
MODEL 9
REMARK VINA RESULT:    -5.515      2.252      3.915
REMARK INTER + INTRA:          -6.869
REMARK INTER:                  -6.566
REMARK INTRA:                  -0.303
REMARK UNBOUND:                -0.387
REMARK  3 active torsions:
REMARK  status: ('A' for Active; 'I' for Inactive)
REMARK    1  A    between atoms: C7_8  and  C10_12 
REMARK    2  A    between atoms: N9_10  and  C1'_11 
REMARK    3  A    between atoms: C4'_19  and  C5'_21 
ROOT
HETATM    1  N1    D T 577      -0.155   9.195   5.411  1.00 85.37    -0.203 NA
HETATM    2  C2    D T 577       1.056   9.790   5.414  1.00 86.80     0.202 A 
HETATM    3  N3    D T 577       2.134   9.278   6.047  1.00 86.97    -0.206 NA
HETATM    4  C4    D T 577       2.062   8.110   6.729  1.00 86.50     0.151 A 
HETATM    5  C5    D T 577       0.771   7.404   6.770  1.00 85.57     0.078 A 
HETATM    6  C6    D T 577      -0.368   8.027   6.052  1.00 85.00     0.188 A 
HETATM    7  N6    D T 577      -1.593   7.471   6.024  1.00 84.84    -0.127 N 
HETATM    8  C7    D T 577       1.083   6.215   7.582  1.00 85.86     0.083 A 
HETATM    9  C8    D T 577       2.410   6.282   7.939  1.00 86.68     0.084 A 
HETATM   10  N9    D T 577       2.962   7.400   7.425  1.00 87.05    -0.287 N 
ENDROOT
BRANCH  10  11
HETATM   11  C1'   D T 577       4.377   7.821   7.597  1.00 88.13     0.240 C 
HETATM   12  C2'   D T 577       5.195   6.551   7.707  1.00 88.30     0.234 C 
HETATM   13  O2'   D T 577       6.340   6.771   8.540  1.00 89.07    -0.216 OA
HETATM   14  C3'   D T 577       5.558   6.274   6.270  1.00 88.03     0.216 C 
HETATM   15  O3'   D T 577       6.780   5.548   6.185  1.00 88.96    -0.218 OA
HETATM   16  C4'   D T 577       5.665   7.656   5.634  1.00 88.80     0.183 C 
HETATM   17  O4'   D T 577       4.879   8.526   6.454  1.00 88.48    -0.331 OA
BRANCH  16  18
HETATM   18  C5'   D T 577       5.216   7.726   4.169  1.00 89.18     0.214 C 
HETATM   19  O5'   D T 577       4.681   9.024   3.835  1.00 89.91    -0.218 OA
ENDBRANCH  16  18
ENDBRANCH  10  11
BRANCH   8  20
HETATM   20  C10   D T 577       0.030   5.208   7.881  1.00 85.71     0.298 C 
HETATM   21  N11   D T 577      -0.507   4.535   6.873  1.00 86.33    -0.102 N 
HETATM   22  O12   D T 577      -0.320   5.006   9.028  1.00 85.41    -0.264 OA
ENDBRANCH   8  20
TORSDOF 3
ENDMDL
