MODEL 1
REMARK VINA RESULT:    -6.794      0.000      0.000
REMARK INTER + INTRA:          -8.422
REMARK INTER:                  -7.986
REMARK INTRA:                  -0.436
REMARK UNBOUND:                -0.436
REMARK  3 active torsions:
REMARK  status: ('A' for Active; 'I' for Inactive)
REMARK    1  A    between atoms: C7_8  and  C10_12 
REMARK    2  A    between atoms: N9_10  and  C1'_11 
REMARK    3  A    between atoms: C4'_19  and  C5'_21 
ROOT
HETATM    1  N1    D T 577       6.741  11.120   3.819  1.00 85.37    -0.203 NA
HETATM    2  C2    D T 577       7.599  11.995   3.252  1.00 86.80     0.202 A 
HETATM    3  N3    D T 577       7.232  12.884   2.304  1.00 86.97    -0.206 NA
HETATM    4  C4    D T 577       5.953  12.955   1.861  1.00 86.50     0.151 A 
HETATM    5  C5    D T 577       4.963  12.033   2.436  1.00 85.57     0.078 A 
HETATM    6  C6    D T 577       5.439  11.083   3.472  1.00 85.00     0.188 A 
HETATM    7  N6    D T 577       4.621  10.193   4.063  1.00 84.84    -0.127 N 
HETATM    8  C7    D T 577       3.729  12.403   1.721  1.00 85.86     0.083 A 
HETATM    9  C8    D T 577       4.034  13.424   0.852  1.00 86.68     0.084 A 
HETATM   10  N9    D T 577       5.342  13.732   0.953  1.00 87.05    -0.287 N 
ENDROOT
BRANCH  10  11
HETATM   11  C1'   D T 577       6.045  14.780   0.170  1.00 88.13     0.240 C 
HETATM   12  C2'   D T 577       7.065  14.066  -0.691  1.00 88.30     0.234 C 
HETATM   13  O2'   D T 577       8.204  14.909  -0.911  1.00 89.07    -0.216 OA
HETATM   14  C3'   D T 577       6.287  13.790  -1.953  1.00 88.03     0.216 C 
HETATM   15  O3'   D T 577       7.155  13.711  -3.079  1.00 88.96    -0.218 OA
HETATM   16  C4'   D T 577       5.311  14.958  -2.059  1.00 88.80     0.183 C 
HETATM   17  O4'   D T 577       5.167  15.469  -0.730  1.00 88.48    -0.331 OA
BRANCH  16  18
HETATM   18  C5'   D T 577       3.947  14.603  -2.664  1.00 89.18     0.214 C 
HETATM   19  O5'   D T 577       2.879  15.353  -2.050  1.00 89.91    -0.218 OA
ENDBRANCH  16  18
ENDBRANCH  10  11
BRANCH   8  20
HETATM   20  C10   D T 577       2.452  11.694   2.004  1.00 85.71     0.298 C 
HETATM   21  N11   D T 577       1.477  12.361   2.607  1.00 86.33    -0.102 N 
HETATM   22  O12   D T 577       2.310  10.531   1.681  1.00 85.41    -0.264 OA
ENDBRANCH   8  20
TORSDOF 3
ENDMDL
MODEL 2
REMARK VINA RESULT:    -6.613      2.052      4.148
REMARK INTER + INTRA:          -8.209
REMARK INTER:                  -7.728
REMARK INTRA:                  -0.481
REMARK UNBOUND:                -0.436
REMARK  3 active torsions:
REMARK  status: ('A' for Active; 'I' for Inactive)
REMARK    1  A    between atoms: C7_8  and  C10_12 
REMARK    2  A    between atoms: N9_10  and  C1'_11 
REMARK    3  A    between atoms: C4'_19  and  C5'_21 
ROOT
HETATM    1  N1    D T 577       3.868  11.659   3.046  1.00 85.37    -0.203 NA
HETATM    2  C2    D T 577       2.777  11.918   2.296  1.00 86.80     0.202 A 
HETATM    3  N3    D T 577       2.836  12.480   1.069  1.00 86.97    -0.206 NA
HETATM    4  C4    D T 577       4.021  12.820   0.506  1.00 86.50     0.151 A 
HETATM    5  C5    D T 577       5.254  12.565   1.266  1.00 85.57     0.078 A 
HETATM    6  C6    D T 577       5.110  11.947   2.608  1.00 85.00     0.188 A 
HETATM    7  N6    D T 577       6.169  11.673   3.391  1.00 84.84    -0.127 N 
HETATM    8  C7    D T 577       6.300  13.057   0.353  1.00 85.86     0.083 A 
HETATM    9  C8    D T 577       5.683  13.525  -0.784  1.00 86.68     0.084 A 
HETATM   10  N9    D T 577       4.349  13.374  -0.672  1.00 87.05    -0.287 N 
ENDROOT
BRANCH  10  11
HETATM   11  C1'   D T 577       3.346  13.768  -1.695  1.00 88.13     0.240 C 
HETATM   12  C2'   D T 577       2.532  14.893  -1.093  1.00 88.30     0.234 C 
HETATM   13  O2'   D T 577       1.194  14.866  -1.607  1.00 89.07    -0.216 OA
HETATM   14  C3'   D T 577       3.302  16.116  -1.524  1.00 88.03     0.216 C 
HETATM   15  O3'   D T 577       2.443  17.248  -1.626  1.00 88.96    -0.218 OA
HETATM   16  C4'   D T 577       3.904  15.728  -2.871  1.00 88.80     0.183 C 
HETATM   17  O4'   D T 577       3.956  14.298  -2.880  1.00 88.48    -0.331 OA
BRANCH  16  18
HETATM   18  C5'   D T 577       5.286  16.331  -3.154  1.00 89.18     0.214 C 
HETATM   19  O5'   D T 577       5.779  17.089  -2.030  1.00 89.91    -0.218 OA
ENDBRANCH  16  18
ENDBRANCH  10  11
BRANCH   8  20
HETATM   20  C10   D T 577       7.734  12.990   0.742  1.00 85.71     0.298 C 
HETATM   21  N11   D T 577       8.342  11.812   0.724  1.00 86.33    -0.102 N 
HETATM   22  O12   D T 577       8.331  14.000   1.062  1.00 85.41    -0.264 OA
ENDBRANCH   8  20
TORSDOF 3
ENDMDL
MODEL 3
REMARK VINA RESULT:    -6.529      2.837      5.500
REMARK INTER + INTRA:          -8.110
REMARK INTER:                  -7.656
REMARK INTRA:                  -0.454
REMARK UNBOUND:                -0.436
REMARK  3 active torsions:
REMARK  status: ('A' for Active; 'I' for Inactive)
REMARK    1  A    between atoms: C7_8  and  C10_12 
REMARK    2  A    between atoms: N9_10  and  C1'_11 
REMARK    3  A    between atoms: C4'_19  and  C5'_21 
ROOT
HETATM    1  N1    D T 577       1.709  12.023   1.066  1.00 85.37    -0.203 NA
HETATM    2  C2    D T 577       2.218  11.690   2.271  1.00 86.80     0.202 A 
HETATM    3  N3    D T 577       3.520  11.844   2.594  1.00 86.97    -0.206 NA
HETATM    4  C4    D T 577       4.410  12.359   1.711  1.00 86.50     0.151 A 
HETATM    5  C5    D T 577       3.926  12.746   0.378  1.00 85.57     0.078 A 
HETATM    6  C6    D T 577       2.484  12.545   0.093  1.00 85.00     0.188 A 
HETATM    7  N6    D T 577       1.933  12.861  -1.093  1.00 84.84    -0.127 N 
HETATM    8  C7    D T 577       5.150  13.243  -0.275  1.00 85.86     0.083 A 
HETATM    9  C8    D T 577       6.184  13.132   0.626  1.00 86.68     0.084 A 
HETATM   10  N9    D T 577       5.726  12.613   1.782  1.00 87.05    -0.287 N 
ENDROOT
BRANCH  10  11
HETATM   11  C1'   D T 577       6.546  12.341   2.990  1.00 88.13     0.240 C 
HETATM   12  C2'   D T 577       6.594  10.836   3.149  1.00 88.30     0.234 C 
HETATM   13  O2'   D T 577       6.699  10.488   4.536  1.00 89.07    -0.216 OA
HETATM   14  C3'   D T 577       7.823  10.466   2.357  1.00 88.03     0.216 C 
HETATM   15  O3'   D T 577       8.408   9.267   2.855  1.00 88.96    -0.218 OA
HETATM   16  C4'   D T 577       8.750  11.667   2.514  1.00 88.80     0.183 C 
HETATM   17  O4'   D T 577       7.904  12.775   2.837  1.00 88.48    -0.331 OA
BRANCH  16  18
HETATM   18  C5'   D T 577       9.616  11.975   1.285  1.00 89.18     0.214 C 
HETATM   19  O5'   D T 577      10.706  11.040   1.152  1.00 89.91    -0.218 OA
ENDBRANCH  16  18
ENDBRANCH  10  11
BRANCH   8  20
HETATM   20  C10   D T 577       5.109  13.743  -1.675  1.00 85.71     0.298 C 
HETATM   21  N11   D T 577       5.196  12.865  -2.665  1.00 86.33    -0.102 N 
HETATM   22  O12   D T 577       4.991  14.932  -1.899  1.00 85.41    -0.264 OA
ENDBRANCH   8  20
TORSDOF 3
ENDMDL
MODEL 4
REMARK VINA RESULT:    -6.483      1.823      2.353
REMARK INTER + INTRA:          -8.056
REMARK INTER:                  -7.879
REMARK INTRA:                  -0.177
REMARK UNBOUND:                -0.436
REMARK  3 active torsions:
REMARK  status: ('A' for Active; 'I' for Inactive)
REMARK    1  A    between atoms: C7_8  and  C10_12 
REMARK    2  A    between atoms: N9_10  and  C1'_11 
REMARK    3  A    between atoms: C4'_19  and  C5'_21 
ROOT
HETATM    1  N1    D T 577       4.300  11.551   2.986  1.00 85.37    -0.203 NA
HETATM    2  C2    D T 577       5.492  12.078   2.637  1.00 86.80     0.202 A 
HETATM    3  N3    D T 577       5.656  12.909   1.585  1.00 86.97    -0.206 NA
HETATM    4  C4    D T 577       4.609  13.275   0.806  1.00 86.50     0.151 A 
HETATM    5  C5    D T 577       3.279  12.740   1.129  1.00 85.57     0.078 A 
HETATM    6  C6    D T 577       3.175  11.831   2.297  1.00 85.00     0.188 A 
HETATM    7  N6    D T 577       2.009  11.282   2.681  1.00 84.84    -0.127 N 
HETATM    8  C7    D T 577       2.430  13.344   0.087  1.00 85.86     0.083 A 
HETATM    9  C8    D T 577       3.233  14.126  -0.712  1.00 86.68     0.084 A 
HETATM   10  N9    D T 577       4.504  14.071  -0.269  1.00 87.05    -0.287 N 
ENDROOT
BRANCH  10  11
HETATM   11  C1'   D T 577       5.660  14.780  -0.876  1.00 88.13     0.240 C 
HETATM   12  C2'   D T 577       5.661  14.425  -2.348  1.00 88.30     0.234 C 
HETATM   13  O2'   D T 577       7.002  14.422  -2.856  1.00 89.07    -0.216 OA
HETATM   14  C3'   D T 577       4.809  15.516  -2.945  1.00 88.03     0.216 C 
HETATM   15  O3'   D T 577       5.168  15.758  -4.302  1.00 88.96    -0.218 OA
HETATM   16  C4'   D T 577       5.071  16.728  -2.056  1.00 88.80     0.183 C 
HETATM   17  O4'   D T 577       5.524  16.206  -0.804  1.00 88.48    -0.331 OA
BRANCH  16  18
HETATM   18  C5'   D T 577       3.863  17.654  -1.861  1.00 89.18     0.214 C 
HETATM   19  O5'   D T 577       2.676  17.123  -2.485  1.00 89.91    -0.218 OA
ENDBRANCH  16  18
ENDBRANCH  10  11
BRANCH   8  20
HETATM   20  C10   D T 577       0.971  13.056   0.040  1.00 85.71     0.298 C 
HETATM   21  N11   D T 577       0.169  13.714   0.865  1.00 86.33    -0.102 N 
HETATM   22  O12   D T 577       0.532  12.238  -0.745  1.00 85.41    -0.264 OA
ENDBRANCH   8  20
TORSDOF 3
ENDMDL
MODEL 5
REMARK VINA RESULT:    -6.481      2.640      4.191
REMARK INTER + INTRA:          -8.054
REMARK INTER:                  -7.655
REMARK INTRA:                  -0.399
REMARK UNBOUND:                -0.436
REMARK  3 active torsions:
REMARK  status: ('A' for Active; 'I' for Inactive)
REMARK    1  A    between atoms: C7_8  and  C10_12 
REMARK    2  A    between atoms: N9_10  and  C1'_11 
REMARK    3  A    between atoms: C4'_19  and  C5'_21 
ROOT
HETATM    1  N1    D T 577       4.687  11.961   0.658  1.00 85.37    -0.203 NA
HETATM    2  C2    D T 577       5.310  12.656  -0.316  1.00 86.80     0.202 A 
HETATM    3  N3    D T 577       4.726  13.668  -0.994  1.00 86.97    -0.206 NA
HETATM    4  C4    D T 577       3.455  14.055  -0.727  1.00 86.50     0.151 A 
HETATM    5  C5    D T 577       2.715  13.341   0.324  1.00 85.57     0.078 A 
HETATM    6  C6    D T 577       3.420  12.240   1.025  1.00 85.00     0.188 A 
HETATM    7  N6    D T 577       2.838  11.519   2.000  1.00 84.84    -0.127 N 
HETATM    8  C7    D T 577       1.410  14.027   0.317  1.00 85.86     0.083 A 
HETATM    9  C8    D T 577       1.454  15.011  -0.643  1.00 86.68     0.084 A 
HETATM   10  N9    D T 577       2.662  15.008  -1.240  1.00 87.05    -0.287 N 
ENDROOT
BRANCH  10  11
HETATM   11  C1'   D T 577       3.088  15.924  -2.331  1.00 88.13     0.240 C 
HETATM   12  C2'   D T 577       2.312  17.210  -2.143  1.00 88.30     0.234 C 
HETATM   13  O2'   D T 577       2.078  17.837  -3.410  1.00 89.07    -0.216 OA
HETATM   14  C3'   D T 577       3.228  18.012  -1.252  1.00 88.03     0.216 C 
HETATM   15  O3'   D T 577       3.033  19.409  -1.448  1.00 88.96    -0.218 OA
HETATM   16  C4'   D T 577       4.631  17.565  -1.651  1.00 88.80     0.183 C 
HETATM   17  O4'   D T 577       4.476  16.271  -2.241  1.00 88.48    -0.331 OA
BRANCH  16  18
HETATM   18  C5'   D T 577       5.645  17.528  -0.500  1.00 89.18     0.214 C 
HETATM   19  O5'   D T 577       6.544  16.406  -0.616  1.00 89.91    -0.218 OA
ENDBRANCH  16  18
ENDBRANCH  10  11
BRANCH   8  20
HETATM   20  C10   D T 577       0.332  13.606   1.251  1.00 85.71     0.298 C 
HETATM   21  N11   D T 577       0.468  13.878   2.542  1.00 86.33    -0.102 N 
HETATM   22  O12   D T 577      -0.654  13.031   0.832  1.00 85.41    -0.264 OA
ENDBRANCH   8  20
TORSDOF 3
ENDMDL
MODEL 6
REMARK VINA RESULT:    -6.346      2.743      5.608
REMARK INTER + INTRA:          -7.896
REMARK INTER:                  -7.484
REMARK INTRA:                  -0.412
REMARK UNBOUND:                -0.436
REMARK  3 active torsions:
REMARK  status: ('A' for Active; 'I' for Inactive)
REMARK    1  A    between atoms: C7_8  and  C10_12 
REMARK    2  A    between atoms: N9_10  and  C1'_11 
REMARK    3  A    between atoms: C4'_19  and  C5'_21 
ROOT
HETATM    1  N1    D T 577       7.458  14.442   0.689  1.00 85.37    -0.203 NA
HETATM    2  C2    D T 577       6.847  13.403   1.297  1.00 86.80     0.202 A 
HETATM    3  N3    D T 577       5.572  13.039   1.041  1.00 86.97    -0.206 NA
HETATM    4  C4    D T 577       4.817  13.706   0.134  1.00 86.50     0.151 A 
HETATM    5  C5    D T 577       5.418  14.849  -0.569  1.00 85.57     0.078 A 
HETATM    6  C6    D T 577       6.823  15.192  -0.234  1.00 85.00     0.188 A 
HETATM    7  N6    D T 577       7.471  16.218  -0.813  1.00 84.84    -0.127 N 
HETATM    8  C7    D T 577       4.320  15.301  -1.441  1.00 85.86     0.083 A 
HETATM    9  C8    D T 577       3.241  14.476  -1.224  1.00 86.68     0.084 A 
HETATM   10  N9    D T 577       3.557  13.549  -0.298  1.00 87.05    -0.287 N 
ENDROOT
BRANCH  10  11
HETATM   11  C1'   D T 577       2.648  12.486   0.203  1.00 88.13     0.240 C 
HETATM   12  C2'   D T 577       2.160  12.940   1.563  1.00 88.30     0.234 C 
HETATM   13  O2'   D T 577       1.907  11.806   2.402  1.00 89.07    -0.216 OA
HETATM   14  C3'   D T 577       0.908  13.706   1.218  1.00 88.03     0.216 C 
HETATM   15  O3'   D T 577      -0.018  13.682   2.300  1.00 88.96    -0.218 OA
HETATM   16  C4'   D T 577       0.363  13.002  -0.021  1.00 88.80     0.183 C 
HETATM   17  O4'   D T 577       1.480  12.336  -0.616  1.00 88.48    -0.331 OA
BRANCH  16  18
HETATM   18  C5'   D T 577      -0.330  13.925  -1.031  1.00 89.18     0.214 C 
HETATM   19  O5'   D T 577      -1.742  13.645  -1.131  1.00 89.91    -0.218 OA
ENDBRANCH  16  18
ENDBRANCH  10  11
BRANCH   8  20
HETATM   20  C10   D T 577       4.506  16.468  -2.344  1.00 85.71     0.298 C 
HETATM   21  N11   D T 577       4.966  16.255  -3.569  1.00 86.33    -0.102 N 
HETATM   22  O12   D T 577       4.233  17.589  -1.962  1.00 85.41    -0.264 OA
ENDBRANCH   8  20
TORSDOF 3
ENDMDL
MODEL 7
REMARK VINA RESULT:    -5.997      2.049      5.019
REMARK INTER + INTRA:          -7.485
REMARK INTER:                  -7.141
REMARK INTRA:                  -0.345
REMARK UNBOUND:                -0.436
REMARK  3 active torsions:
REMARK  status: ('A' for Active; 'I' for Inactive)
REMARK    1  A    between atoms: C7_8  and  C10_12 
REMARK    2  A    between atoms: N9_10  and  C1'_11 
REMARK    3  A    between atoms: C4'_19  and  C5'_21 
ROOT
HETATM    1  N1    D T 577       7.582  12.374   2.673  1.00 85.37    -0.203 NA
HETATM    2  C2    D T 577       6.542  11.655   3.146  1.00 86.80     0.202 A 
HETATM    3  N3    D T 577       5.347  11.579   2.521  1.00 86.97    -0.206 NA
HETATM    4  C4    D T 577       5.120  12.230   1.354  1.00 86.50     0.151 A 
HETATM    5  C5    D T 577       6.209  13.032   0.778  1.00 85.57     0.078 A 
HETATM    6  C6    D T 577       7.492  13.071   1.522  1.00 85.00     0.188 A 
HETATM    7  N6    D T 577       8.554  13.775   1.090  1.00 84.84    -0.127 N 
HETATM    8  C7    D T 577       5.595  13.571  -0.448  1.00 85.86     0.083 A 
HETATM    9  C8    D T 577       4.305  13.098  -0.518  1.00 86.68     0.084 A 
HETATM   10  N9    D T 577       4.050  12.314   0.547  1.00 87.05    -0.287 N 
ENDROOT
BRANCH  10  11
HETATM   11  C1'   D T 577       2.763  11.626   0.824  1.00 88.13     0.240 C 
HETATM   12  C2'   D T 577       2.373  11.991   2.241  1.00 88.30     0.234 C 
HETATM   13  O2'   D T 577       1.632  10.922   2.842  1.00 89.07    -0.216 OA
HETATM   14  C3'   D T 577       1.547  13.236   2.038  1.00 88.03     0.216 C 
HETATM   15  O3'   D T 577       0.595  13.392   3.086  1.00 88.96    -0.218 OA
HETATM   16  C4'   D T 577       0.881  13.031   0.681  1.00 88.80     0.183 C 
HETATM   17  O4'   D T 577       1.702  12.093  -0.020  1.00 88.48    -0.331 OA
BRANCH  16  18
HETATM   18  C5'   D T 577       0.686  14.313  -0.139  1.00 89.18     0.214 C 
HETATM   19  O5'   D T 577       0.337  14.024  -1.508  1.00 89.91    -0.218 OA
ENDBRANCH  16  18
ENDBRANCH  10  11
BRANCH   8  20
HETATM   20  C10   D T 577       6.371  14.463  -1.351  1.00 85.71     0.298 C 
HETATM   21  N11   D T 577       6.932  13.938  -2.432  1.00 86.33    -0.102 N 
HETATM   22  O12   D T 577       6.477  15.648  -1.101  1.00 85.41    -0.264 OA
ENDBRANCH   8  20
TORSDOF 3
ENDMDL
MODEL 8
REMARK VINA RESULT:    -5.942      2.178      3.394
REMARK INTER + INTRA:          -7.421
REMARK INTER:                  -6.984
REMARK INTRA:                  -0.437
REMARK UNBOUND:                -0.436
REMARK  3 active torsions:
REMARK  status: ('A' for Active; 'I' for Inactive)
REMARK    1  A    between atoms: C7_8  and  C10_12 
REMARK    2  A    between atoms: N9_10  and  C1'_11 
REMARK    3  A    between atoms: C4'_19  and  C5'_21 
ROOT
HETATM    1  N1    D T 577       5.666  12.069   1.725  1.00 85.37    -0.203 NA
HETATM    2  C2    D T 577       6.689  12.287   0.872  1.00 86.80     0.202 A 
HETATM    3  N3    D T 577       6.531  12.835  -0.352  1.00 86.97    -0.206 NA
HETATM    4  C4    D T 577       5.309  13.211  -0.804  1.00 86.50     0.151 A 
HETATM    5  C5    D T 577       4.147  13.004   0.073  1.00 85.57     0.078 A 
HETATM    6  C6    D T 577       4.398  12.395   1.403  1.00 85.00     0.188 A 
HETATM    7  N6    D T 577       3.409  12.158   2.284  1.00 84.84    -0.127 N 
HETATM    8  C7    D T 577       3.034  13.518  -0.745  1.00 85.86     0.083 A 
HETATM    9  C8    D T 577       3.556  13.957  -1.940  1.00 86.68     0.084 A 
HETATM   10  N9    D T 577       4.890  13.768  -1.950  1.00 87.05    -0.287 N 
ENDROOT
BRANCH  10  11
HETATM   11  C1'   D T 577       5.802  14.114  -3.071  1.00 88.13     0.240 C 
HETATM   12  C2'   D T 577       5.167  15.280  -3.800  1.00 88.30     0.234 C 
HETATM   13  O2'   D T 577       5.509  15.237  -5.192  1.00 89.07    -0.216 OA
HETATM   14  C3'   D T 577       5.760  16.469  -3.087  1.00 88.03     0.216 C 
HETATM   15  O3'   D T 577       5.817  17.602  -3.947  1.00 88.96    -0.218 OA
HETATM   16  C4'   D T 577       7.147  16.000  -2.658  1.00 88.80     0.183 C 
HETATM   17  O4'   D T 577       7.081  14.572  -2.612  1.00 88.48    -0.331 OA
BRANCH  16  18
HETATM   18  C5'   D T 577       7.633  16.573  -1.320  1.00 89.18     0.214 C 
HETATM   19  O5'   D T 577       8.226  15.555  -0.487  1.00 89.91    -0.218 OA
ENDBRANCH  16  18
ENDBRANCH  10  11
BRANCH   8  20
HETATM   20  C10   D T 577       1.641  13.493  -0.224  1.00 85.71     0.298 C 
HETATM   21  N11   D T 577       0.858  12.476  -0.558  1.00 86.33    -0.102 N 
HETATM   22  O12   D T 577       1.239  14.386   0.496  1.00 85.41    -0.264 OA
ENDBRANCH   8  20
TORSDOF 3
ENDMDL
MODEL 9
REMARK VINA RESULT:    -5.796      2.157      4.166
REMARK INTER + INTRA:          -7.249
REMARK INTER:                  -6.735
REMARK INTRA:                  -0.513
REMARK UNBOUND:                -0.436
REMARK  3 active torsions:
REMARK  status: ('A' for Active; 'I' for Inactive)
REMARK    1  A    between atoms: C7_8  and  C10_12 
REMARK    2  A    between atoms: N9_10  and  C1'_11 
REMARK    3  A    between atoms: C4'_19  and  C5'_21 
ROOT
HETATM    1  N1    D T 577       2.599  12.375   0.939  1.00 85.37    -0.203 NA
HETATM    2  C2    D T 577       2.401  12.820  -0.319  1.00 86.80     0.202 A 
HETATM    3  N3    D T 577       3.409  13.149  -1.156  1.00 86.97    -0.206 NA
HETATM    4  C4    D T 577       4.706  13.044  -0.774  1.00 86.50     0.151 A 
HETATM    5  C5    D T 577       4.996  12.565   0.585  1.00 85.57     0.078 A 
HETATM    6  C6    D T 577       3.838  12.224   1.448  1.00 85.00     0.188 A 
HETATM    7  N6    D T 577       3.987  11.779   2.709  1.00 84.84    -0.127 N 
HETATM    8  C7    D T 577       6.469  12.591   0.625  1.00 85.86     0.083 A 
HETATM    9  C8    D T 577       6.917  13.039  -0.596  1.00 86.68     0.084 A 
HETATM   10  N9    D T 577       5.866  13.297  -1.399  1.00 87.05    -0.287 N 
ENDROOT
BRANCH  10  11
HETATM   11  C1'   D T 577       5.949  13.802  -2.794  1.00 88.13     0.240 C 
HETATM   12  C2'   D T 577       5.214  15.125  -2.819  1.00 88.30     0.234 C 
HETATM   13  O2'   D T 577       4.624  15.339  -4.107  1.00 89.07    -0.216 OA
HETATM   14  C3'   D T 577       6.311  16.111  -2.504  1.00 88.03     0.216 C 
HETATM   15  O3'   D T 577       6.026  17.387  -3.070  1.00 88.96    -0.218 OA
HETATM   16  C4'   D T 577       7.566  15.483  -3.103  1.00 88.80     0.183 C 
HETATM   17  O4'   D T 577       7.298  14.081  -3.193  1.00 88.48    -0.331 OA
BRANCH  16  18
HETATM   18  C5'   D T 577       8.855  15.748  -2.315  1.00 89.18     0.214 C 
HETATM   19  O5'   D T 577       8.581  16.297  -1.010  1.00 89.91    -0.218 OA
ENDBRANCH  16  18
ENDBRANCH  10  11
BRANCH   8  20
HETATM   20  C10   D T 577       7.198  12.174   1.853  1.00 85.71     0.298 C 
HETATM   21  N11   D T 577       7.577  10.909   1.967  1.00 86.33    -0.102 N 
HETATM   22  O12   D T 577       7.443  12.984   2.726  1.00 85.41    -0.264 OA
ENDBRANCH   8  20
TORSDOF 3
ENDMDL
