MODEL 1
REMARK VINA RESULT:    -6.526      0.000      0.000
REMARK INTER + INTRA:          -7.907
REMARK INTER:                  -7.671
REMARK INTRA:                  -0.236
REMARK UNBOUND:                -0.236
REMARK  3 active torsions:
REMARK  status: ('A' for Active; 'I' for Inactive)
REMARK    1  A    between atoms: C7_8  and  C10_12 
REMARK    2  A    between atoms: N9_10  and  C1'_11 
REMARK    3  A    between atoms: C4'_19  and  C5'_21 
ROOT
HETATM    1  N1    D T 577     -13.211   1.128  -7.464  1.00 85.37    -0.203 NA
HETATM    2  C2    D T 577     -14.286   1.627  -6.818  1.00 86.80     0.202 A 
HETATM    3  N3    D T 577     -14.205   2.604  -5.889  1.00 86.97    -0.206 NA
HETATM    4  C4    D T 577     -13.015   3.154  -5.547  1.00 86.50     0.151 A 
HETATM    5  C5    D T 577     -11.799   2.660  -6.212  1.00 85.57     0.078 A 
HETATM    6  C6    D T 577     -11.966   1.584  -7.220  1.00 85.00     0.188 A 
HETATM    7  N6    D T 577     -10.924   1.056  -7.888  1.00 84.84    -0.127 N 
HETATM    8  C7    D T 577     -10.741   3.476  -5.592  1.00 85.86     0.083 A 
HETATM    9  C8    D T 577     -11.336   4.322  -4.685  1.00 86.68     0.084 A 
HETATM   10  N9    D T 577     -12.669   4.118  -4.679  1.00 87.05    -0.287 N 
ENDROOT
BRANCH  10  11
HETATM   11  C1'   D T 577     -13.649   4.841  -3.827  1.00 88.13     0.240 C 
HETATM   12  C2'   D T 577     -13.475   4.307  -2.421  1.00 88.30     0.234 C 
HETATM   13  O2'   D T 577     -14.724   4.354  -1.717  1.00 89.07    -0.216 OA
HETATM   14  C3'   D T 577     -12.441   5.242  -1.846  1.00 88.03     0.216 C 
HETATM   15  O3'   D T 577     -12.576   5.343  -0.431  1.00 88.96    -0.218 OA
HETATM   16  C4'   D T 577     -12.703   6.572  -2.545  1.00 88.80     0.183 C 
HETATM   17  O4'   D T 577     -13.381   6.247  -3.762  1.00 88.48    -0.331 OA
BRANCH  16  18
HETATM   18  C5'   D T 577     -11.449   7.411  -2.821  1.00 89.18     0.214 C 
HETATM   19  O5'   D T 577     -10.255   6.766  -2.330  1.00 89.91    -0.218 OA
ENDBRANCH  16  18
ENDBRANCH  10  11
BRANCH   8  20
HETATM   20  C10   D T 577      -9.319   3.292  -5.984  1.00 85.71     0.298 C 
HETATM   21  N11   D T 577      -8.588   2.404  -5.324  1.00 86.33    -0.102 N 
HETATM   22  O12   D T 577      -8.845   3.941  -6.897  1.00 85.41    -0.264 OA
ENDBRANCH   8  20
TORSDOF 3
ENDMDL
MODEL 2
REMARK VINA RESULT:    -6.470      4.060      7.040
REMARK INTER + INTRA:          -7.841
REMARK INTER:                  -7.347
REMARK INTRA:                  -0.494
REMARK UNBOUND:                -0.236
REMARK  3 active torsions:
REMARK  status: ('A' for Active; 'I' for Inactive)
REMARK    1  A    between atoms: C7_8  and  C10_12 
REMARK    2  A    between atoms: N9_10  and  C1'_11 
REMARK    3  A    between atoms: C4'_19  and  C5'_21 
ROOT
HETATM    1  N1    D T 577      -9.273   2.168  -7.115  1.00 85.37    -0.203 NA
HETATM    2  C2    D T 577      -9.357   1.153  -8.001  1.00 86.80     0.202 A 
HETATM    3  N3    D T 577     -10.522   0.558  -8.338  1.00 86.97    -0.206 NA
HETATM    4  C4    D T 577     -11.698   0.957  -7.799  1.00 86.50     0.151 A 
HETATM    5  C5    D T 577     -11.684   2.060  -6.825  1.00 85.57     0.078 A 
HETATM    6  C6    D T 577     -10.367   2.663  -6.502  1.00 85.00     0.188 A 
HETATM    7  N6    D T 577     -10.235   3.676  -5.626  1.00 84.84    -0.127 N 
HETATM    8  C7    D T 577     -13.108   2.197  -6.476  1.00 85.86     0.083 A 
HETATM    9  C8    D T 577     -13.813   1.259  -7.193  1.00 86.68     0.084 A 
HETATM   10  N9    D T 577     -12.966   0.546  -7.964  1.00 87.05    -0.287 N 
ENDROOT
BRANCH  10  11
HETATM   11  C1'   D T 577     -13.353  -0.561  -8.877  1.00 88.13     0.240 C 
HETATM   12  C2'   D T 577     -13.039  -1.851  -8.150  1.00 88.30     0.234 C 
HETATM   13  O2'   D T 577     -12.689  -2.875  -9.090  1.00 89.07    -0.216 OA
HETATM   14  C3'   D T 577     -14.329  -2.135  -7.424  1.00 88.03     0.216 C 
HETATM   15  O3'   D T 577     -14.492  -3.533  -7.204  1.00 88.96    -0.218 OA
HETATM   16  C4'   D T 577     -15.411  -1.566  -8.336  1.00 88.80     0.183 C 
HETATM   17  O4'   D T 577     -14.762  -0.580  -9.143  1.00 88.48    -0.331 OA
BRANCH  16  18
HETATM   18  C5'   D T 577     -16.620  -0.970  -7.605  1.00 89.18     0.214 C 
HETATM   19  O5'   D T 577     -16.419  -0.937  -6.176  1.00 89.91    -0.218 OA
ENDBRANCH  16  18
ENDBRANCH  10  11
BRANCH   8  20
HETATM   20  C10   D T 577     -13.548   3.222  -5.493  1.00 85.71     0.298 C 
HETATM   21  N11   D T 577     -13.555   2.905  -4.205  1.00 86.33    -0.102 N 
HETATM   22  O12   D T 577     -13.887   4.328  -5.869  1.00 85.41    -0.264 OA
ENDBRANCH   8  20
TORSDOF 3
ENDMDL
MODEL 3
REMARK VINA RESULT:    -6.362      2.580      4.048
REMARK INTER + INTRA:          -7.714
REMARK INTER:                  -7.317
REMARK INTRA:                  -0.396
REMARK UNBOUND:                -0.236
REMARK  3 active torsions:
REMARK  status: ('A' for Active; 'I' for Inactive)
REMARK    1  A    between atoms: C7_8  and  C10_12 
REMARK    2  A    between atoms: N9_10  and  C1'_11 
REMARK    3  A    between atoms: C4'_19  and  C5'_21 
ROOT
HETATM    1  N1    D T 577     -11.976   2.878  -5.080  1.00 85.37    -0.203 NA
HETATM    2  C2    D T 577     -13.142   2.311  -4.704  1.00 86.80     0.202 A 
HETATM    3  N3    D T 577     -14.003   2.889  -3.839  1.00 86.97    -0.206 NA
HETATM    4  C4    D T 577     -13.743   4.100  -3.290  1.00 86.50     0.151 A 
HETATM    5  C5    D T 577     -12.490   4.779  -3.655  1.00 85.57     0.078 A 
HETATM    6  C6    D T 577     -11.593   4.081  -4.609  1.00 85.00     0.188 A 
HETATM    7  N6    D T 577     -10.422   4.608  -5.011  1.00 84.84    -0.127 N 
HETATM    8  C7    D T 577     -12.565   6.028  -2.877  1.00 85.86     0.083 A 
HETATM    9  C8    D T 577     -13.743   6.015  -2.168  1.00 86.68     0.084 A 
HETATM   10  N9    D T 577     -14.418   4.877  -2.428  1.00 87.05    -0.287 N 
ENDROOT
BRANCH  10  11
HETATM   11  C1'   D T 577     -15.732   4.501  -1.845  1.00 88.13     0.240 C 
HETATM   12  C2'   D T 577     -15.437   3.672  -0.613  1.00 88.30     0.234 C 
HETATM   13  O2'   D T 577     -16.480   2.712  -0.401  1.00 89.07    -0.216 OA
HETATM   14  C3'   D T 577     -15.370   4.717   0.471  1.00 88.03     0.216 C 
HETATM   15  O3'   D T 577     -15.724   4.162   1.735  1.00 88.96    -0.218 OA
HETATM   16  C4'   D T 577     -16.353   5.794   0.020  1.00 88.80     0.183 C 
HETATM   17  O4'   D T 577     -16.476   5.641  -1.396  1.00 88.48    -0.331 OA
BRANCH  16  18
HETATM   18  C5'   D T 577     -15.948   7.227   0.387  1.00 89.18     0.214 C 
HETATM   19  O5'   D T 577     -14.694   7.263   1.100  1.00 89.91    -0.218 OA
ENDBRANCH  16  18
ENDBRANCH  10  11
BRANCH   8  20
HETATM   20  C10   D T 577     -11.468   7.029  -2.952  1.00 85.71     0.298 C 
HETATM   21  N11   D T 577     -10.339   6.784  -2.302  1.00 86.33    -0.102 N 
HETATM   22  O12   D T 577     -11.609   8.046  -3.604  1.00 85.41    -0.264 OA
ENDBRANCH   8  20
TORSDOF 3
ENDMDL
MODEL 4
REMARK VINA RESULT:    -6.320      1.686      3.480
REMARK INTER + INTRA:          -7.665
REMARK INTER:                  -7.518
REMARK INTRA:                  -0.147
REMARK UNBOUND:                -0.236
REMARK  3 active torsions:
REMARK  status: ('A' for Active; 'I' for Inactive)
REMARK    1  A    between atoms: C7_8  and  C10_12 
REMARK    2  A    between atoms: N9_10  and  C1'_11 
REMARK    3  A    between atoms: C4'_19  and  C5'_21 
ROOT
HETATM    1  N1    D T 577      -9.389   4.629  -4.480  1.00 85.37    -0.203 NA
HETATM    2  C2    D T 577     -10.205   5.382  -3.711  1.00 86.80     0.202 A 
HETATM    3  N3    D T 577     -11.552   5.327  -3.784  1.00 86.97    -0.206 NA
HETATM    4  C4    D T 577     -12.178   4.492  -4.648  1.00 86.50     0.151 A 
HETATM    5  C5    D T 577     -11.352   3.639  -5.518  1.00 85.57     0.078 A 
HETATM    6  C6    D T 577      -9.879   3.756  -5.384  1.00 85.00     0.188 A 
HETATM    7  N6    D T 577      -9.029   3.027  -6.129  1.00 84.84    -0.127 N 
HETATM    8  C7    D T 577     -12.363   2.899  -6.292  1.00 85.86     0.083 A 
HETATM    9  C8    D T 577     -13.606   3.316  -5.874  1.00 86.68     0.084 A 
HETATM   10  N9    D T 577     -13.472   4.247  -4.908  1.00 87.05    -0.287 N 
ENDROOT
BRANCH  10  11
HETATM   11  C1'   D T 577     -14.589   4.937  -4.213  1.00 88.13     0.240 C 
HETATM   12  C2'   D T 577     -15.633   3.880  -3.918  1.00 88.30     0.234 C 
HETATM   13  O2'   D T 577     -16.943   4.462  -3.932  1.00 89.07    -0.216 OA
HETATM   14  C3'   D T 577     -15.221   3.391  -2.553  1.00 88.03     0.216 C 
HETATM   15  O3'   D T 577     -16.342   2.890  -1.832  1.00 88.96    -0.218 OA
HETATM   16  C4'   D T 577     -14.605   4.615  -1.882  1.00 88.80     0.183 C 
HETATM   17  O4'   D T 577     -14.192   5.477  -2.946  1.00 88.48    -0.331 OA
BRANCH  16  18
HETATM   18  C5'   D T 577     -13.437   4.310  -0.936  1.00 89.18     0.214 C 
HETATM   19  O5'   D T 577     -12.708   5.504  -0.583  1.00 89.91    -0.218 OA
ENDBRANCH  16  18
ENDBRANCH  10  11
BRANCH   8  20
HETATM   20  C10   D T 577     -11.949   1.905  -7.317  1.00 85.71     0.298 C 
HETATM   21  N11   D T 577     -12.458   0.682  -7.258  1.00 86.33    -0.102 N 
HETATM   22  O12   D T 577     -11.165   2.217  -8.193  1.00 85.41    -0.264 OA
ENDBRANCH   8  20
TORSDOF 3
ENDMDL
MODEL 5
REMARK VINA RESULT:    -6.285      4.973      7.727
REMARK INTER + INTRA:          -7.623
REMARK INTER:                  -7.192
REMARK INTRA:                  -0.432
REMARK UNBOUND:                -0.236
REMARK  3 active torsions:
REMARK  status: ('A' for Active; 'I' for Inactive)
REMARK    1  A    between atoms: C7_8  and  C10_12 
REMARK    2  A    between atoms: N9_10  and  C1'_11 
REMARK    3  A    between atoms: C4'_19  and  C5'_21 
ROOT
HETATM    1  N1    D T 577     -19.452   2.809   0.169  1.00 85.37    -0.203 NA
HETATM    2  C2    D T 577     -18.471   2.021  -0.319  1.00 86.80     0.202 A 
HETATM    3  N3    D T 577     -17.194   2.434  -0.470  1.00 86.97    -0.206 NA
HETATM    4  C4    D T 577     -16.814   3.688  -0.128  1.00 86.50     0.151 A 
HETATM    5  C5    D T 577     -17.831   4.604   0.413  1.00 85.57     0.078 A 
HETATM    6  C6    D T 577     -19.214   4.080   0.547  1.00 85.00     0.188 A 
HETATM    7  N6    D T 577     -20.222   4.830   1.028  1.00 84.84    -0.127 N 
HETATM    8  C7    D T 577     -17.058   5.834   0.655  1.00 85.86     0.083 A 
HETATM    9  C8    D T 577     -15.756   5.596   0.280  1.00 86.68     0.084 A 
HETATM   10  N9    D T 577     -15.637   4.332  -0.173  1.00 87.05    -0.287 N 
ENDROOT
BRANCH  10  11
HETATM   11  C1'   D T 577     -14.384   3.707  -0.672  1.00 88.13     0.240 C 
HETATM   12  C2'   D T 577     -14.561   3.514  -2.162  1.00 88.30     0.234 C 
HETATM   13  O2'   D T 577     -13.828   2.363  -2.603  1.00 89.07    -0.216 OA
HETATM   14  C3'   D T 577     -14.020   4.805  -2.722  1.00 88.03     0.216 C 
HETATM   15  O3'   D T 577     -13.514   4.616  -4.041  1.00 88.96    -0.218 OA
HETATM   16  C4'   D T 577     -12.928   5.216  -1.740  1.00 88.80     0.183 C 
HETATM   17  O4'   D T 577     -13.246   4.564  -0.508  1.00 88.48    -0.331 OA
BRANCH  16  18
HETATM   18  C5'   D T 577     -12.780   6.729  -1.540  1.00 89.18     0.214 C 
HETATM   19  O5'   D T 577     -11.450   7.185  -1.867  1.00 89.91    -0.218 OA
ENDBRANCH  16  18
ENDBRANCH  10  11
BRANCH   8  20
HETATM   20  C10   D T 577     -17.720   7.043   1.211  1.00 85.71     0.298 C 
HETATM   21  N11   D T 577     -18.370   7.849   0.382  1.00 86.33    -0.102 N 
HETATM   22  O12   D T 577     -17.667   7.279   2.403  1.00 85.41    -0.264 OA
ENDBRANCH   8  20
TORSDOF 3
ENDMDL
MODEL 6
REMARK VINA RESULT:    -6.242      3.323      5.332
REMARK INTER + INTRA:          -7.573
REMARK INTER:                  -7.178
REMARK INTRA:                  -0.394
REMARK UNBOUND:                -0.236
REMARK  3 active torsions:
REMARK  status: ('A' for Active; 'I' for Inactive)
REMARK    1  A    between atoms: C7_8  and  C10_12 
REMARK    2  A    between atoms: N9_10  and  C1'_11 
REMARK    3  A    between atoms: C4'_19  and  C5'_21 
ROOT
HETATM    1  N1    D T 577     -13.485   3.022  -3.673  1.00 85.37    -0.203 NA
HETATM    2  C2    D T 577     -14.404   2.710  -2.735  1.00 86.80     0.202 A 
HETATM    3  N3    D T 577     -14.713   3.521  -1.700  1.00 86.97    -0.206 NA
HETATM    4  C4    D T 577     -14.109   4.723  -1.543  1.00 86.50     0.151 A 
HETATM    5  C5    D T 577     -13.096   5.131  -2.529  1.00 85.57     0.078 A 
HETATM    6  C6    D T 577     -12.808   4.187  -3.637  1.00 85.00     0.188 A 
HETATM    7  N6    D T 577     -11.900   4.456  -4.593  1.00 84.84    -0.127 N 
HETATM    8  C7    D T 577     -12.680   6.454  -2.032  1.00 85.86     0.083 A 
HETATM    9  C8    D T 577     -13.401   6.724  -0.892  1.00 86.68     0.084 A 
HETATM   10  N9    D T 577     -14.234   5.697  -0.627  1.00 87.05    -0.287 N 
ENDROOT
BRANCH  10  11
HETATM   11  C1'   D T 577     -15.170   5.620   0.524  1.00 88.13     0.240 C 
HETATM   12  C2'   D T 577     -15.761   7.003   0.694  1.00 88.30     0.234 C 
HETATM   13  O2'   D T 577     -16.067   7.244   2.074  1.00 89.07    -0.216 OA
HETATM   14  C3'   D T 577     -16.989   6.940  -0.178  1.00 88.03     0.216 C 
HETATM   15  O3'   D T 577     -17.993   7.836   0.290  1.00 88.96    -0.218 OA
HETATM   16  C4'   D T 577     -17.435   5.483  -0.098  1.00 88.80     0.183 C 
HETATM   17  O4'   D T 577     -16.272   4.738   0.272  1.00 88.48    -0.331 OA
BRANCH  16  18
HETATM   18  C5'   D T 577     -18.057   4.930  -1.386  1.00 89.18     0.214 C 
HETATM   19  O5'   D T 577     -18.162   3.491  -1.355  1.00 89.91    -0.218 OA
ENDBRANCH  16  18
ENDBRANCH  10  11
BRANCH   8  20
HETATM   20  C10   D T 577     -11.641   7.237  -2.751  1.00 85.71     0.298 C 
HETATM   21  N11   D T 577     -10.364   6.993  -2.485  1.00 86.33    -0.102 N 
HETATM   22  O12   D T 577     -11.962   8.077  -3.569  1.00 85.41    -0.264 OA
ENDBRANCH   8  20
TORSDOF 3
ENDMDL
MODEL 7
REMARK VINA RESULT:    -6.223      4.316      7.129
REMARK INTER + INTRA:          -7.551
REMARK INTER:                  -7.094
REMARK INTRA:                  -0.457
REMARK UNBOUND:                -0.236
REMARK  3 active torsions:
REMARK  status: ('A' for Active; 'I' for Inactive)
REMARK    1  A    between atoms: C7_8  and  C10_12 
REMARK    2  A    between atoms: N9_10  and  C1'_11 
REMARK    3  A    between atoms: C4'_19  and  C5'_21 
ROOT
HETATM    1  N1    D T 577     -12.748   9.470  -0.727  1.00 85.37    -0.203 NA
HETATM    2  C2    D T 577     -13.437   9.408   0.432  1.00 86.80     0.202 A 
HETATM    3  N3    D T 577     -14.113   8.311   0.836  1.00 86.97    -0.206 NA
HETATM    4  C4    D T 577     -14.135   7.182   0.088  1.00 86.50     0.151 A 
HETATM    5  C5    D T 577     -13.404   7.175  -1.189  1.00 85.57     0.078 A 
HETATM    6  C6    D T 577     -12.687   8.418  -1.568  1.00 85.00     0.188 A 
HETATM    7  N6    D T 577     -11.988   8.524  -2.713  1.00 84.84    -0.127 N 
HETATM    8  C7    D T 577     -13.660   5.816  -1.696  1.00 85.86     0.083 A 
HETATM    9  C8    D T 577     -14.450   5.163  -0.779  1.00 86.68     0.084 A 
HETATM   10  N9    D T 577     -14.713   5.982   0.260  1.00 87.05    -0.287 N 
ENDROOT
BRANCH  10  11
HETATM   11  C1'   D T 577     -15.538   5.635   1.446  1.00 88.13     0.240 C 
HETATM   12  C2'   D T 577     -16.746   6.546   1.413  1.00 88.30     0.234 C 
HETATM   13  O2'   D T 577     -17.195   6.822   2.747  1.00 89.07    -0.216 OA
HETATM   14  C3'   D T 577     -17.738   5.739   0.615  1.00 88.03     0.216 C 
HETATM   15  O3'   D T 577     -19.075   6.077   0.972  1.00 88.96    -0.218 OA
HETATM   16  C4'   D T 577     -17.402   4.289   0.949  1.00 88.80     0.183 C 
HETATM   17  O4'   D T 577     -16.041   4.294   1.386  1.00 88.48    -0.331 OA
BRANCH  16  18
HETATM   18  C5'   D T 577     -17.606   3.300  -0.206  1.00 89.18     0.214 C 
HETATM   19  O5'   D T 577     -16.457   2.445  -0.387  1.00 89.91    -0.218 OA
ENDBRANCH  16  18
ENDBRANCH  10  11
BRANCH   8  20
HETATM   20  C10   D T 577     -13.092   5.378  -2.998  1.00 85.71     0.298 C 
HETATM   21  N11   D T 577     -13.884   5.358  -4.062  1.00 86.33    -0.102 N 
HETATM   22  O12   D T 577     -11.923   5.052  -3.081  1.00 85.41    -0.264 OA
ENDBRANCH   8  20
TORSDOF 3
ENDMDL
MODEL 8
REMARK VINA RESULT:    -6.190      3.564      5.803
REMARK INTER + INTRA:          -7.512
REMARK INTER:                  -7.003
REMARK INTRA:                  -0.509
REMARK UNBOUND:                -0.236
REMARK  3 active torsions:
REMARK  status: ('A' for Active; 'I' for Inactive)
REMARK    1  A    between atoms: C7_8  and  C10_12 
REMARK    2  A    between atoms: N9_10  and  C1'_11 
REMARK    3  A    between atoms: C4'_19  and  C5'_21 
ROOT
HETATM    1  N1    D T 577     -11.506   6.196  -3.227  1.00 85.37    -0.203 NA
HETATM    2  C2    D T 577     -11.776   6.935  -2.130  1.00 86.80     0.202 A 
HETATM    3  N3    D T 577     -12.693   6.581  -1.203  1.00 86.97    -0.206 NA
HETATM    4  C4    D T 577     -13.408   5.436  -1.322  1.00 86.50     0.151 A 
HETATM    5  C5    D T 577     -13.166   4.579  -2.493  1.00 85.57     0.078 A 
HETATM    6  C6    D T 577     -12.146   5.034  -3.469  1.00 85.00     0.188 A 
HETATM    7  N6    D T 577     -11.845   4.330  -4.576  1.00 84.84    -0.127 N 
HETATM    8  C7    D T 577     -14.105   3.465  -2.273  1.00 85.86     0.083 A 
HETATM    9  C8    D T 577     -14.781   3.706  -1.099  1.00 86.68     0.084 A 
HETATM   10  N9    D T 577     -14.353   4.865  -0.558  1.00 87.05    -0.287 N 
ENDROOT
BRANCH  10  11
HETATM   11  C1'   D T 577     -14.850   5.462   0.709  1.00 88.13     0.240 C 
HETATM   12  C2'   D T 577     -15.379   6.837   0.360  1.00 88.30     0.234 C 
HETATM   13  O2'   D T 577     -15.212   7.727   1.471  1.00 89.07    -0.216 OA
HETATM   14  C3'   D T 577     -16.826   6.557   0.043  1.00 88.03     0.216 C 
HETATM   15  O3'   D T 577     -17.634   7.702   0.299  1.00 88.96    -0.218 OA
HETATM   16  C4'   D T 577     -17.190   5.382   0.945  1.00 88.80     0.183 C 
HETATM   17  O4'   D T 577     -15.955   4.732   1.258  1.00 88.48    -0.331 OA
BRANCH  16  18
HETATM   18  C5'   D T 577     -18.194   4.394   0.339  1.00 89.18     0.214 C 
HETATM   19  O5'   D T 577     -18.254   4.506  -1.099  1.00 89.91    -0.218 OA
ENDBRANCH  16  18
ENDBRANCH  10  11
BRANCH   8  20
HETATM   20  C10   D T 577     -14.192   2.348  -3.249  1.00 85.71     0.298 C 
HETATM   21  N11   D T 577     -14.940   2.507  -4.332  1.00 86.33    -0.102 N 
HETATM   22  O12   D T 577     -13.580   1.314  -3.056  1.00 85.41    -0.264 OA
ENDBRANCH   8  20
TORSDOF 3
ENDMDL
MODEL 9
REMARK VINA RESULT:    -6.156      3.314      4.802
REMARK INTER + INTRA:          -7.472
REMARK INTER:                  -7.048
REMARK INTRA:                  -0.424
REMARK UNBOUND:                -0.236
REMARK  3 active torsions:
REMARK  status: ('A' for Active; 'I' for Inactive)
REMARK    1  A    between atoms: C7_8  and  C10_12 
REMARK    2  A    between atoms: N9_10  and  C1'_11 
REMARK    3  A    between atoms: C4'_19  and  C5'_21 
ROOT
HETATM    1  N1    D T 577     -14.511   3.682  -4.835  1.00 85.37    -0.203 NA
HETATM    2  C2    D T 577     -15.738   3.791  -4.284  1.00 86.80     0.202 A 
HETATM    3  N3    D T 577     -15.996   4.538  -3.189  1.00 86.97    -0.206 NA
HETATM    4  C4    D T 577     -15.018   5.241  -2.569  1.00 86.50     0.151 A 
HETATM    5  C5    D T 577     -13.654   5.170  -3.115  1.00 85.57     0.078 A 
HETATM    6  C6    D T 577     -13.446   4.327  -4.318  1.00 85.00     0.188 A 
HETATM    7  N6    D T 577     -12.241   4.189  -4.901  1.00 84.84    -0.127 N 
HETATM    8  C7    D T 577     -12.897   6.038  -2.196  1.00 85.86     0.083 A 
HETATM    9  C8    D T 577     -13.773   6.523  -1.254  1.00 86.68     0.084 A 
HETATM   10  N9    D T 577     -15.010   6.045  -1.494  1.00 87.05    -0.287 N 
ENDROOT
BRANCH  10  11
HETATM   11  C1'   D T 577     -16.223   6.342  -0.688  1.00 88.13     0.240 C 
HETATM   12  C2'   D T 577     -16.642   5.039  -0.041  1.00 88.30     0.234 C 
HETATM   13  O2'   D T 577     -18.065   5.009   0.133  1.00 89.07    -0.216 OA
HETATM   14  C3'   D T 577     -15.890   5.070   1.265  1.00 88.03     0.216 C 
HETATM   15  O3'   D T 577     -16.573   4.318   2.264  1.00 88.96    -0.218 OA
HETATM   16  C4'   D T 577     -15.805   6.552   1.618  1.00 88.80     0.183 C 
HETATM   17  O4'   D T 577     -15.954   7.256   0.383  1.00 88.48    -0.331 OA
BRANCH  16  18
HETATM   18  C5'   D T 577     -14.516   6.968   2.338  1.00 89.18     0.214 C 
HETATM   19  O5'   D T 577     -14.643   8.266   2.955  1.00 89.91    -0.218 OA
ENDBRANCH  16  18
ENDBRANCH  10  11
BRANCH   8  20
HETATM   20  C10   D T 577     -11.438   6.249  -2.388  1.00 85.71     0.298 C 
HETATM   21  N11   D T 577     -11.033   7.327  -3.046  1.00 86.33    -0.102 N 
HETATM   22  O12   D T 577     -10.637   5.448  -1.943  1.00 85.41    -0.264 OA
ENDBRANCH   8  20
TORSDOF 3
ENDMDL
