MODEL 1
REMARK VINA RESULT:    -7.109      0.000      0.000
REMARK INTER + INTRA:          -8.888
REMARK INTER:                  -8.355
REMARK INTRA:                  -0.532
REMARK UNBOUND:                -0.532
REMARK  3 active torsions:
REMARK  status: ('A' for Active; 'I' for Inactive)
REMARK    1  A    between atoms: C7_8  and  C10_12 
REMARK    2  A    between atoms: N9_10  and  C1'_11 
REMARK    3  A    between atoms: C4'_19  and  C5'_21 
ROOT
HETATM    1  N1    D T 577       5.528   5.313  -8.465  1.00 85.37    -0.203 NA
HETATM    2  C2    D T 577       5.863   5.729  -7.225  1.00 86.80     0.202 A 
HETATM    3  N3    D T 577       6.226   4.888  -6.233  1.00 86.97    -0.206 NA
HETATM    4  C4    D T 577       6.283   3.548  -6.430  1.00 86.50     0.151 A 
HETATM    5  C5    D T 577       5.933   3.022  -7.759  1.00 85.57     0.078 A 
HETATM    6  C6    D T 577       5.541   4.006  -8.798  1.00 85.00     0.188 A 
HETATM    7  N6    D T 577       5.200   3.637 -10.045  1.00 84.84    -0.127 N 
HETATM    8  C7    D T 577       6.108   1.570  -7.583  1.00 85.86     0.083 A 
HETATM    9  C8    D T 577       6.512   1.345  -6.287  1.00 86.68     0.084 A 
HETATM   10  N9    D T 577       6.610   2.519  -5.631  1.00 87.05    -0.287 N 
ENDROOT
BRANCH  10  11
HETATM   11  C1'   D T 577       7.014   2.684  -4.212  1.00 88.13     0.240 C 
HETATM   12  C2'   D T 577       7.913   1.512  -3.880  1.00 88.30     0.234 C 
HETATM   13  O2'   D T 577       7.782   1.165  -2.495  1.00 89.07    -0.216 OA
HETATM   14  C3'   D T 577       9.280   2.044  -4.226  1.00 88.03     0.216 C 
HETATM   15  O3'   D T 577      10.287   1.404  -3.446  1.00 88.96    -0.218 OA
HETATM   16  C4'   D T 577       9.190   3.538  -3.935  1.00 88.80     0.183 C 
HETATM   17  O4'   D T 577       7.799   3.866  -4.003  1.00 88.48    -0.331 OA
BRANCH  16  18
HETATM   18  C5'   D T 577      10.012   4.427  -4.876  1.00 89.18     0.214 C 
HETATM   19  O5'   D T 577       9.627   4.245  -6.255  1.00 89.91    -0.218 OA
ENDBRANCH  16  18
ENDBRANCH  10  11
BRANCH   8  20
HETATM   20  C10   D T 577       5.847   0.637  -8.711  1.00 85.71     0.298 C 
HETATM   21  N11   D T 577       4.598   0.255  -8.943  1.00 86.33    -0.102 N 
HETATM   22  O12   D T 577       6.763   0.243  -9.408  1.00 85.41    -0.264 OA
ENDBRANCH   8  20
TORSDOF 3
ENDMDL
MODEL 2
REMARK VINA RESULT:    -6.920      1.635      3.143
REMARK INTER + INTRA:          -8.666
REMARK INTER:                  -8.286
REMARK INTRA:                  -0.380
REMARK UNBOUND:                -0.532
REMARK  3 active torsions:
REMARK  status: ('A' for Active; 'I' for Inactive)
REMARK    1  A    between atoms: C7_8  and  C10_12 
REMARK    2  A    between atoms: N9_10  and  C1'_11 
REMARK    3  A    between atoms: C4'_19  and  C5'_21 
ROOT
HETATM    1  N1    D T 577       5.328   1.984  -9.485  1.00 85.37    -0.203 NA
HETATM    2  C2    D T 577       5.672   0.922  -8.726  1.00 86.80     0.202 A 
HETATM    3  N3    D T 577       6.131   1.032  -7.461  1.00 86.97    -0.206 NA
HETATM    4  C4    D T 577       6.271   2.241  -6.864  1.00 86.50     0.151 A 
HETATM    5  C5    D T 577       5.913   3.444  -7.631  1.00 85.57     0.078 A 
HETATM    6  C6    D T 577       5.419   3.246  -9.016  1.00 85.00     0.188 A 
HETATM    7  N6    D T 577       5.066   4.274  -9.808  1.00 84.84    -0.127 N 
HETATM    8  C7    D T 577       6.195   4.528  -6.674  1.00 85.86     0.083 A 
HETATM    9  C8    D T 577       6.657   3.956  -5.511  1.00 86.68     0.084 A 
HETATM   10  N9    D T 577       6.690   2.615  -5.645  1.00 87.05    -0.287 N 
ENDROOT
BRANCH  10  11
HETATM   11  C1'   D T 577       7.135   1.654  -4.604  1.00 88.13     0.240 C 
HETATM   12  C2'   D T 577       8.177   0.768  -5.251  1.00 88.30     0.234 C 
HETATM   13  O2'   D T 577       8.149  -0.539  -4.663  1.00 89.07    -0.216 OA
HETATM   14  C3'   D T 577       9.457   1.512  -4.967  1.00 88.03     0.216 C 
HETATM   15  O3'   D T 577      10.565   0.617  -4.913  1.00 88.96    -0.218 OA
HETATM   16  C4'   D T 577       9.207   2.199  -3.629  1.00 88.80     0.183 C 
HETATM   17  O4'   D T 577       7.786   2.306  -3.504  1.00 88.48    -0.331 OA
BRANCH  16  18
HETATM   18  C5'   D T 577       9.877   3.570  -3.474  1.00 89.18     0.214 C 
HETATM   19  O5'   D T 577      10.264   4.123  -4.749  1.00 89.91    -0.218 OA
ENDBRANCH  16  18
ENDBRANCH  10  11
BRANCH   8  20
HETATM   20  C10   D T 577       5.970   5.947  -7.055  1.00 85.71     0.298 C 
HETATM   21  N11   D T 577       4.723   6.376  -7.200  1.00 86.33    -0.102 N 
HETATM   22  O12   D T 577       6.914   6.696  -7.222  1.00 85.41    -0.264 OA
ENDBRANCH   8  20
TORSDOF 3
ENDMDL
MODEL 3
REMARK VINA RESULT:    -6.467      2.005      3.427
REMARK INTER + INTRA:          -8.134
REMARK INTER:                  -7.808
REMARK INTRA:                  -0.326
REMARK UNBOUND:                -0.532
REMARK  3 active torsions:
REMARK  status: ('A' for Active; 'I' for Inactive)
REMARK    1  A    between atoms: C7_8  and  C10_12 
REMARK    2  A    between atoms: N9_10  and  C1'_11 
REMARK    3  A    between atoms: C4'_19  and  C5'_21 
ROOT
HETATM    1  N1    D T 577       7.407  -0.598  -6.724  1.00 85.37    -0.203 NA
HETATM    2  C2    D T 577       7.685  -0.717  -5.408  1.00 86.80     0.202 A 
HETATM    3  N3    D T 577       7.701   0.331  -4.556  1.00 86.97    -0.206 NA
HETATM    4  C4    D T 577       7.429   1.589  -4.980  1.00 86.50     0.151 A 
HETATM    5  C5    D T 577       7.116   1.794  -6.402  1.00 85.57     0.078 A 
HETATM    6  C6    D T 577       7.119   0.597  -7.279  1.00 85.00     0.188 A 
HETATM    7  N6    D T 577       6.850   0.668  -8.595  1.00 84.84    -0.127 N 
HETATM    8  C7    D T 577       6.887   3.248  -6.473  1.00 85.86     0.083 A 
HETATM    9  C8    D T 577       7.061   3.765  -5.209  1.00 86.68     0.084 A 
HETATM   10  N9    D T 577       7.375   2.774  -4.351  1.00 87.05    -0.287 N 
ENDROOT
BRANCH  10  11
HETATM   11  C1'   D T 577       7.641   2.942  -2.900  1.00 88.13     0.240 C 
HETATM   12  C2'   D T 577       8.914   2.177  -2.603  1.00 88.30     0.234 C 
HETATM   13  O2'   D T 577       8.886   1.673  -1.261  1.00 89.07    -0.216 OA
HETATM   14  C3'   D T 577       9.977   3.224  -2.815  1.00 88.03     0.216 C 
HETATM   15  O3'   D T 577      11.130   2.947  -2.024  1.00 88.96    -0.218 OA
HETATM   16  C4'   D T 577       9.306   4.533  -2.414  1.00 88.80     0.183 C 
HETATM   17  O4'   D T 577       7.899   4.308  -2.547  1.00 88.48    -0.331 OA
BRANCH  16  18
HETATM   18  C5'   D T 577       9.745   5.758  -3.227  1.00 89.18     0.214 C 
HETATM   19  O5'   D T 577      10.029   5.414  -4.599  1.00 89.91    -0.218 OA
ENDBRANCH  16  18
ENDBRANCH  10  11
BRANCH   8  20
HETATM   20  C10   D T 577       6.539   3.894  -7.765  1.00 85.71     0.298 C 
HETATM   21  N11   D T 577       7.419   4.718  -8.320  1.00 86.33    -0.102 N 
HETATM   22  O12   D T 577       5.471   3.664  -8.301  1.00 85.41    -0.264 OA
ENDBRANCH   8  20
TORSDOF 3
ENDMDL
MODEL 4
REMARK VINA RESULT:    -6.117      1.955      3.816
REMARK INTER + INTRA:          -7.722
REMARK INTER:                  -7.310
REMARK INTRA:                  -0.412
REMARK UNBOUND:                -0.532
REMARK  3 active torsions:
REMARK  status: ('A' for Active; 'I' for Inactive)
REMARK    1  A    between atoms: C7_8  and  C10_12 
REMARK    2  A    between atoms: N9_10  and  C1'_11 
REMARK    3  A    between atoms: C4'_19  and  C5'_21 
ROOT
HETATM    1  N1    D T 577       6.806   0.163  -7.344  1.00 85.37    -0.203 NA
HETATM    2  C2    D T 577       7.767   0.051  -6.403  1.00 86.80     0.202 A 
HETATM    3  N3    D T 577       8.384   1.112  -5.842  1.00 86.97    -0.206 NA
HETATM    4  C4    D T 577       8.064   2.381  -6.194  1.00 86.50     0.151 A 
HETATM    5  C5    D T 577       7.023   2.581  -7.213  1.00 85.57     0.078 A 
HETATM    6  C6    D T 577       6.391   1.368  -7.788  1.00 85.00     0.188 A 
HETATM    7  N6    D T 577       5.431   1.433  -8.728  1.00 84.84    -0.127 N 
HETATM    8  C7    D T 577       6.961   4.049  -7.324  1.00 85.86     0.083 A 
HETATM    9  C8    D T 577       7.880   4.578  -6.447  1.00 86.68     0.084 A 
HETATM   10  N9    D T 577       8.512   3.582  -5.794  1.00 87.05    -0.287 N 
ENDROOT
BRANCH  10  11
HETATM   11  C1'   D T 577       9.574   3.758  -4.771  1.00 88.13     0.240 C 
HETATM   12  C2'   D T 577       9.142   4.914  -3.894  1.00 88.30     0.234 C 
HETATM   13  O2'   D T 577      10.289   5.610  -3.391  1.00 89.07    -0.216 OA
HETATM   14  C3'   D T 577       8.354   4.221  -2.811  1.00 88.03     0.216 C 
HETATM   15  O3'   D T 577       8.388   4.970  -1.599  1.00 88.96    -0.218 OA
HETATM   16  C4'   D T 577       9.025   2.860  -2.665  1.00 88.80     0.183 C 
HETATM   17  O4'   D T 577       9.692   2.618  -3.908  1.00 88.48    -0.331 OA
BRANCH  16  18
HETATM   18  C5'   D T 577       8.074   1.707  -2.319  1.00 89.18     0.214 C 
HETATM   19  O5'   D T 577       6.749   1.932  -2.842  1.00 89.91    -0.218 OA
ENDBRANCH  16  18
ENDBRANCH  10  11
BRANCH   8  20
HETATM   20  C10   D T 577       6.016   4.695  -8.272  1.00 85.71     0.298 C 
HETATM   21  N11   D T 577       5.049   5.460  -7.782  1.00 86.33    -0.102 N 
HETATM   22  O12   D T 577       6.137   4.527  -9.471  1.00 85.41    -0.264 OA
ENDBRANCH   8  20
TORSDOF 3
ENDMDL
MODEL 5
REMARK VINA RESULT:    -6.096      1.849      2.157
REMARK INTER + INTRA:          -7.697
REMARK INTER:                  -7.647
REMARK INTRA:                  -0.050
REMARK UNBOUND:                -0.532
REMARK  3 active torsions:
REMARK  status: ('A' for Active; 'I' for Inactive)
REMARK    1  A    between atoms: C7_8  and  C10_12 
REMARK    2  A    between atoms: N9_10  and  C1'_11 
REMARK    3  A    between atoms: C4'_19  and  C5'_21 
ROOT
HETATM    1  N1    D T 577       5.822   3.585  -7.712  1.00 85.37    -0.203 NA
HETATM    2  C2    D T 577       5.916   4.408  -6.646  1.00 86.80     0.202 A 
HETATM    3  N3    D T 577       6.443   4.031  -5.462  1.00 86.97    -0.206 NA
HETATM    4  C4    D T 577       6.924   2.778  -5.271  1.00 86.50     0.151 A 
HETATM    5  C5    D T 577       6.857   1.827  -6.390  1.00 85.57     0.078 A 
HETATM    6  C6    D T 577       6.262   2.311  -7.660  1.00 85.00     0.188 A 
HETATM    7  N6    D T 577       6.147   1.527  -8.746  1.00 84.84    -0.127 N 
HETATM    8  C7    D T 577       7.456   0.611  -5.813  1.00 85.86     0.083 A 
HETATM    9  C8    D T 577       7.809   0.890  -4.512  1.00 86.68     0.084 A 
HETATM   10  N9    D T 577       7.490   2.167  -4.218  1.00 87.05    -0.287 N 
ENDROOT
BRANCH  10  11
HETATM   11  C1'   D T 577       7.714   2.833  -2.910  1.00 88.13     0.240 C 
HETATM   12  C2'   D T 577       8.947   2.195  -2.306  1.00 88.30     0.234 C 
HETATM   13  O2'   D T 577       8.857   2.201  -0.875  1.00 89.07    -0.216 OA
HETATM   14  C3'   D T 577      10.055   3.074  -2.829  1.00 88.03     0.216 C 
HETATM   15  O3'   D T 577      11.170   3.070  -1.941  1.00 88.96    -0.218 OA
HETATM   16  C4'   D T 577       9.419   4.455  -2.947  1.00 88.80     0.183 C 
HETATM   17  O4'   D T 577       8.011   4.229  -3.053  1.00 88.48    -0.331 OA
BRANCH  16  18
HETATM   18  C5'   D T 577       9.930   5.300  -4.121  1.00 89.18     0.214 C 
HETATM   19  O5'   D T 577       9.962   4.545  -5.350  1.00 89.91    -0.218 OA
ENDBRANCH  16  18
ENDBRANCH  10  11
BRANCH   8  20
HETATM   20  C10   D T 577       7.582  -0.627  -6.626  1.00 85.71     0.298 C 
HETATM   21  N11   D T 577       8.078  -0.533  -7.852  1.00 86.33    -0.102 N 
HETATM   22  O12   D T 577       7.241  -1.702  -6.168  1.00 85.41    -0.264 OA
ENDBRANCH   8  20
TORSDOF 3
ENDMDL
MODEL 6
REMARK VINA RESULT:    -5.827      2.179      3.383
REMARK INTER + INTRA:          -7.382
REMARK INTER:                  -7.175
REMARK INTRA:                  -0.207
REMARK UNBOUND:                -0.532
REMARK  3 active torsions:
REMARK  status: ('A' for Active; 'I' for Inactive)
REMARK    1  A    between atoms: C7_8  and  C10_12 
REMARK    2  A    between atoms: N9_10  and  C1'_11 
REMARK    3  A    between atoms: C4'_19  and  C5'_21 
ROOT
HETATM    1  N1    D T 577       5.945   3.631  -7.550  1.00 85.37    -0.203 NA
HETATM    2  C2    D T 577       6.632   4.672  -7.033  1.00 86.80     0.202 A 
HETATM    3  N3    D T 577       7.696   4.526  -6.215  1.00 86.97    -0.206 NA
HETATM    4  C4    D T 577       8.149   3.299  -5.860  1.00 86.50     0.151 A 
HETATM    5  C5    D T 577       7.450   2.117  -6.386  1.00 85.57     0.078 A 
HETATM    6  C6    D T 577       6.288   2.355  -7.278  1.00 85.00     0.188 A 
HETATM    7  N6    D T 577       5.574   1.349  -7.813  1.00 84.84    -0.127 N 
HETATM    8  C7    D T 577       8.212   1.004  -5.793  1.00 85.86     0.083 A 
HETATM    9  C8    D T 577       9.219   1.543  -5.026  1.00 86.68     0.084 A 
HETATM   10  N9    D T 577       9.164   2.889  -5.082  1.00 87.05    -0.287 N 
ENDROOT
BRANCH  10  11
HETATM   11  C1'   D T 577      10.084   3.820  -4.382  1.00 88.13     0.240 C 
HETATM   12  C2'   D T 577       9.221   4.903  -3.772  1.00 88.30     0.234 C 
HETATM   13  O2'   D T 577       9.943   6.140  -3.717  1.00 89.07    -0.216 OA
HETATM   14  C3'   D T 577       8.914   4.342  -2.407  1.00 88.03     0.216 C 
HETATM   15  O3'   D T 577       8.673   5.387  -1.468  1.00 88.96    -0.218 OA
HETATM   16  C4'   D T 577      10.148   3.521  -2.049  1.00 88.80     0.183 C 
HETATM   17  O4'   D T 577      10.772   3.190  -3.293  1.00 88.48    -0.331 OA
BRANCH  16  18
HETATM   18  C5'   D T 577       9.865   2.259  -1.223  1.00 89.18     0.214 C 
HETATM   19  O5'   D T 577       8.607   1.654  -1.587  1.00 89.91    -0.218 OA
ENDBRANCH  16  18
ENDBRANCH  10  11
BRANCH   8  20
HETATM   20  C10   D T 577       7.827  -0.405  -6.070  1.00 85.71     0.298 C 
HETATM   21  N11   D T 577       7.933  -0.859  -7.312  1.00 86.33    -0.102 N 
HETATM   22  O12   D T 577       7.431  -1.122  -5.171  1.00 85.41    -0.264 OA
ENDBRANCH   8  20
TORSDOF 3
ENDMDL
MODEL 7
REMARK VINA RESULT:    -5.808      1.249      2.364
REMARK INTER + INTRA:          -7.359
REMARK INTER:                  -7.293
REMARK INTRA:                  -0.066
REMARK UNBOUND:                -0.532
REMARK  3 active torsions:
REMARK  status: ('A' for Active; 'I' for Inactive)
REMARK    1  A    between atoms: C7_8  and  C10_12 
REMARK    2  A    between atoms: N9_10  and  C1'_11 
REMARK    3  A    between atoms: C4'_19  and  C5'_21 
ROOT
HETATM    1  N1    D T 577       5.147   5.319  -8.708  1.00 85.37    -0.203 NA
HETATM    2  C2    D T 577       5.992   5.843  -7.795  1.00 86.80     0.202 A 
HETATM    3  N3    D T 577       6.862   5.101  -7.077  1.00 86.97    -0.206 NA
HETATM    4  C4    D T 577       6.943   3.758  -7.237  1.00 86.50     0.151 A 
HETATM    5  C5    D T 577       6.054   3.117  -8.218  1.00 85.57     0.078 A 
HETATM    6  C6    D T 577       5.123   3.996  -8.968  1.00 85.00     0.188 A 
HETATM    7  N6    D T 577       4.264   3.517  -9.885  1.00 84.84    -0.127 N 
HETATM    8  C7    D T 577       6.426   1.696  -8.106  1.00 85.86     0.083 A 
HETATM    9  C8    D T 577       7.419   1.592  -7.158  1.00 86.68     0.084 A 
HETATM   10  N9    D T 577       7.707   2.813  -6.665  1.00 87.05    -0.287 N 
ENDROOT
BRANCH  10  11
HETATM   11  C1'   D T 577       8.722   3.105  -5.622  1.00 88.13     0.240 C 
HETATM   12  C2'   D T 577       8.148   4.206  -4.756  1.00 88.30     0.234 C 
HETATM   13  O2'   D T 577       9.202   5.024  -4.232  1.00 89.07    -0.216 OA
HETATM   14  C3'   D T 577       7.420   3.430  -3.687  1.00 88.03     0.216 C 
HETATM   15  O3'   D T 577       7.348   4.178  -2.476  1.00 88.96    -0.218 OA
HETATM   16  C4'   D T 577       8.235   2.152  -3.526  1.00 88.80     0.183 C 
HETATM   17  O4'   D T 577       8.949   1.985  -4.755  1.00 88.48    -0.331 OA
BRANCH  16  18
HETATM   18  C5'   D T 577       7.410   0.901  -3.196  1.00 89.18     0.214 C 
HETATM   19  O5'   D T 577       7.448  -0.063  -4.269  1.00 89.91    -0.218 OA
ENDBRANCH  16  18
ENDBRANCH  10  11
BRANCH   8  20
HETATM   20  C10   D T 577       5.747   0.671  -8.942  1.00 85.71     0.298 C 
HETATM   21  N11   D T 577       4.517   0.298  -8.614  1.00 86.33    -0.102 N 
HETATM   22  O12   D T 577       6.312   0.193  -9.908  1.00 85.41    -0.264 OA
ENDBRANCH   8  20
TORSDOF 3
ENDMDL
MODEL 8
REMARK VINA RESULT:    -5.772      4.201      7.094
REMARK INTER + INTRA:          -7.317
REMARK INTER:                  -6.802
REMARK INTRA:                  -0.515
REMARK UNBOUND:                -0.532
REMARK  3 active torsions:
REMARK  status: ('A' for Active; 'I' for Inactive)
REMARK    1  A    between atoms: C7_8  and  C10_12 
REMARK    2  A    between atoms: N9_10  and  C1'_11 
REMARK    3  A    between atoms: C4'_19  and  C5'_21 
ROOT
HETATM    1  N1    D T 577       9.084   5.928  -0.269  1.00 85.37    -0.203 NA
HETATM    2  C2    D T 577       9.178   6.059  -1.610  1.00 86.80     0.202 A 
HETATM    3  N3    D T 577       9.549   5.052  -2.429  1.00 86.97    -0.206 NA
HETATM    4  C4    D T 577       9.851   3.823  -1.944  1.00 86.50     0.151 A 
HETATM    5  C5    D T 577       9.770   3.606  -0.492  1.00 85.57     0.078 A 
HETATM    6  C6    D T 577       9.357   4.759   0.346  1.00 85.00     0.188 A 
HETATM    7  N6    D T 577       9.253   4.675   1.684  1.00 84.84    -0.127 N 
HETATM    8  C7    D T 577      10.162   2.192  -0.358  1.00 85.86     0.083 A 
HETATM    9  C8    D T 577      10.425   1.705  -1.617  1.00 86.68     0.084 A 
HETATM   10  N9    D T 577      10.234   2.678  -2.531  1.00 87.05    -0.287 N 
ENDROOT
BRANCH  10  11
HETATM   11  C1'   D T 577      10.422   2.534  -3.997  1.00 88.13     0.240 C 
HETATM   12  C2'   D T 577      10.320   1.055  -4.303  1.00 88.30     0.234 C 
HETATM   13  O2'   D T 577      11.142   0.725  -5.431  1.00 89.07    -0.216 OA
HETATM   14  C3'   D T 577       8.848   0.882  -4.577  1.00 88.03     0.216 C 
HETATM   15  O3'   D T 577       8.620  -0.213  -5.460  1.00 88.96    -0.218 OA
HETATM   16  C4'   D T 577       8.418   2.211  -5.187  1.00 88.80     0.183 C 
HETATM   17  O4'   D T 577       9.379   3.174  -4.745  1.00 88.48    -0.331 OA
BRANCH  16  18
HETATM   18  C5'   D T 577       6.993   2.653  -4.829  1.00 89.18     0.214 C 
HETATM   19  O5'   D T 577       6.763   2.612  -3.405  1.00 89.91    -0.218 OA
ENDBRANCH  16  18
ENDBRANCH  10  11
BRANCH   8  20
HETATM   20  C10   D T 577      10.219   1.550   0.982  1.00 85.71     0.298 C 
HETATM   21  N11   D T 577       9.316   0.625   1.281  1.00 86.33    -0.102 N 
HETATM   22  O12   D T 577      11.082   1.865   1.779  1.00 85.41    -0.264 OA
ENDBRANCH   8  20
TORSDOF 3
ENDMDL
MODEL 9
REMARK VINA RESULT:    -5.672      2.817      5.805
REMARK INTER + INTRA:          -7.199
REMARK INTER:                  -6.743
REMARK INTRA:                  -0.456
REMARK UNBOUND:                -0.532
REMARK  3 active torsions:
REMARK  status: ('A' for Active; 'I' for Inactive)
REMARK    1  A    between atoms: C7_8  and  C10_12 
REMARK    2  A    between atoms: N9_10  and  C1'_11 
REMARK    3  A    between atoms: C4'_19  and  C5'_21 
ROOT
HETATM    1  N1    D T 577       7.336  -0.744  -6.743  1.00 85.37    -0.203 NA
HETATM    2  C2    D T 577       6.955  -0.270  -7.949  1.00 86.80     0.202 A 
HETATM    3  N3    D T 577       6.909   1.045  -8.249  1.00 86.97    -0.206 NA
HETATM    4  C4    D T 577       7.255   1.989  -7.339  1.00 86.50     0.151 A 
HETATM    5  C5    D T 577       7.682   1.546  -6.003  1.00 85.57     0.078 A 
HETATM    6  C6    D T 577       7.706   0.085  -5.745  1.00 85.00     0.188 A 
HETATM    7  N6    D T 577       8.077  -0.430  -4.560  1.00 84.84    -0.127 N 
HETATM    8  C7    D T 577       7.964   2.821  -5.320  1.00 85.86     0.083 A 
HETATM    9  C8    D T 577       7.712   3.842  -6.207  1.00 86.68     0.084 A 
HETATM   10  N9    D T 577       7.300   3.330  -7.384  1.00 87.05    -0.287 N 
ENDROOT
BRANCH  10  11
HETATM   11  C1'   D T 577       6.930   4.119  -8.586  1.00 88.13     0.240 C 
HETATM   12  C2'   D T 577       5.431   3.983  -8.748  1.00 88.30     0.234 C 
HETATM   13  O2'   D T 577       5.074   4.055 -10.134  1.00 89.07    -0.216 OA
HETATM   14  C3'   D T 577       4.912   5.150  -7.947  1.00 88.03     0.216 C 
HETATM   15  O3'   D T 577       3.650   5.587  -8.443  1.00 88.96    -0.218 OA
HETATM   16  C4'   D T 577       5.989   6.219  -8.094  1.00 88.80     0.183 C 
HETATM   17  O4'   D T 577       7.193   5.519  -8.421  1.00 88.48    -0.331 OA
BRANCH  16  18
HETATM   18  C5'   D T 577       6.188   7.107  -6.859  1.00 89.18     0.214 C 
HETATM   19  O5'   D T 577       5.197   8.154  -6.789  1.00 89.91    -0.218 OA
ENDBRANCH  16  18
ENDBRANCH  10  11
BRANCH   8  20
HETATM   20  C10   D T 577       8.431   2.832  -3.908  1.00 85.71     0.298 C 
HETATM   21  N11   D T 577       9.733   2.920  -3.671  1.00 86.33    -0.102 N 
HETATM   22  O12   D T 577       7.629   2.769  -2.995  1.00 85.41    -0.264 OA
ENDBRANCH   8  20
TORSDOF 3
ENDMDL
