MODEL 1
REMARK VINA RESULT:    -7.645      0.000      0.000
REMARK INTER + INTRA:          -9.388
REMARK INTER:                  -8.985
REMARK INTRA:                  -0.402
REMARK UNBOUND:                -0.402
REMARK  3 active torsions:
REMARK  status: ('A' for Active; 'I' for Inactive)
REMARK    1  A    between atoms: C7_8  and  C10_12 
REMARK    2  A    between atoms: N9_10  and  C1'_11 
REMARK    3  A    between atoms: C4'_19  and  C5'_21 
ROOT
HETATM    1  N1    D T 577      -1.506  -4.178  11.592  1.00 85.37    -0.203 NA
HETATM    2  C2    D T 577      -1.110  -2.954  11.996  1.00 86.80     0.202 A 
HETATM    3  N3    D T 577      -1.856  -1.840  11.829  1.00 86.97    -0.206 NA
HETATM    4  C4    D T 577      -3.074  -1.889  11.237  1.00 86.50     0.151 A 
HETATM    5  C5    D T 577      -3.572  -3.193  10.772  1.00 85.57     0.078 A 
HETATM    6  C6    D T 577      -2.697  -4.372  10.989  1.00 85.00     0.188 A 
HETATM    7  N6    D T 577      -3.051  -5.611  10.602  1.00 84.84    -0.127 N 
HETATM    8  C7    D T 577      -4.885  -2.848  10.201  1.00 85.86     0.083 A 
HETATM    9  C8    D T 577      -5.068  -1.492  10.347  1.00 86.68     0.084 A 
HETATM   10  N9    D T 577      -3.994  -0.953  10.960  1.00 87.05    -0.287 N 
ENDROOT
BRANCH  10  11
HETATM   11  C1'   D T 577      -3.821   0.486  11.289  1.00 88.13     0.240 C 
HETATM   12  C2'   D T 577      -2.562   0.941  10.583  1.00 88.30     0.234 C 
HETATM   13  O2'   D T 577      -1.924   1.984  11.332  1.00 89.07    -0.216 OA
HETATM   14  C3'   D T 577      -3.091   1.415   9.253  1.00 88.03     0.216 C 
HETATM   15  O3'   D T 577      -2.247   2.419   8.696  1.00 88.96    -0.218 OA
HETATM   16  C4'   D T 577      -4.486   1.944   9.567  1.00 88.80     0.183 C 
HETATM   17  O4'   D T 577      -4.888   1.295  10.776  1.00 88.48    -0.331 OA
BRANCH  16  18
HETATM   18  C5'   D T 577      -5.522   1.727   8.456  1.00 89.18     0.214 C 
HETATM   19  O5'   D T 577      -5.160   0.627   7.595  1.00 89.91    -0.218 OA
ENDBRANCH  16  18
ENDBRANCH  10  11
BRANCH   8  20
HETATM   20  C10   D T 577      -5.747  -3.900   9.600  1.00 85.71     0.298 C 
HETATM   21  N11   D T 577      -6.265  -4.826  10.395  1.00 86.33    -0.102 N 
HETATM   22  O12   D T 577      -5.974  -3.901   8.405  1.00 85.41    -0.264 OA
ENDBRANCH   8  20
TORSDOF 3
ENDMDL
MODEL 2
REMARK VINA RESULT:    -7.181      1.534      2.859
REMARK INTER + INTRA:          -8.843
REMARK INTER:                  -8.497
REMARK INTRA:                  -0.346
REMARK UNBOUND:                -0.402
REMARK  3 active torsions:
REMARK  status: ('A' for Active; 'I' for Inactive)
REMARK    1  A    between atoms: C7_8  and  C10_12 
REMARK    2  A    between atoms: N9_10  and  C1'_11 
REMARK    3  A    between atoms: C4'_19  and  C5'_21 
ROOT
HETATM    1  N1    D T 577      -6.264  -3.630   9.377  1.00 85.37    -0.203 NA
HETATM    2  C2    D T 577      -6.551  -2.314   9.460  1.00 86.80     0.202 A 
HETATM    3  N3    D T 577      -5.707  -1.404   9.992  1.00 86.97    -0.206 NA
HETATM    4  C4    D T 577      -4.496  -1.765  10.481  1.00 86.50     0.151 A 
HETATM    5  C5    D T 577      -4.115  -3.185  10.421  1.00 85.57     0.078 A 
HETATM    6  C6    D T 577      -5.093  -4.127   9.824  1.00 85.00     0.188 A 
HETATM    7  N6    D T 577      -4.850  -5.446   9.721  1.00 84.84    -0.127 N 
HETATM    8  C7    D T 577      -2.773  -3.181  11.029  1.00 85.86     0.083 A 
HETATM    9  C8    D T 577      -2.470  -1.885  11.379  1.00 86.68     0.084 A 
HETATM   10  N9    D T 577      -3.493  -1.073  11.044  1.00 87.05    -0.287 N 
ENDROOT
BRANCH  10  11
HETATM   11  C1'   D T 577      -3.538   0.395  11.266  1.00 88.13     0.240 C 
HETATM   12  C2'   D T 577      -2.177   0.932  10.881  1.00 88.30     0.234 C 
HETATM   13  O2'   D T 577      -1.859   2.087  11.668  1.00 89.07    -0.216 OA
HETATM   14  C3'   D T 577      -2.356   1.251   9.419  1.00 88.03     0.216 C 
HETATM   15  O3'   D T 577      -1.479   2.298   9.013  1.00 88.96    -0.218 OA
HETATM   16  C4'   D T 577      -3.823   1.648   9.295  1.00 88.80     0.183 C 
HETATM   17  O4'   D T 577      -4.487   1.047  10.410  1.00 88.48    -0.331 OA
BRANCH  16  18
HETATM   18  C5'   D T 577      -4.490   1.243   7.974  1.00 89.18     0.214 C 
HETATM   19  O5'   D T 577      -5.925   1.382   8.035  1.00 89.91    -0.218 OA
ENDBRANCH  16  18
ENDBRANCH  10  11
BRANCH   8  20
HETATM   20  C10   D T 577      -2.007  -4.447  11.175  1.00 85.71     0.298 C 
HETATM   21  N11   D T 577      -2.282  -5.241  12.199  1.00 86.33    -0.102 N 
HETATM   22  O12   D T 577      -1.153  -4.745  10.361  1.00 85.41    -0.264 OA
ENDBRANCH   8  20
TORSDOF 3
ENDMDL
MODEL 3
REMARK VINA RESULT:    -7.041      2.522      4.328
REMARK INTER + INTRA:          -8.679
REMARK INTER:                  -8.205
REMARK INTRA:                  -0.474
REMARK UNBOUND:                -0.402
REMARK  3 active torsions:
REMARK  status: ('A' for Active; 'I' for Inactive)
REMARK    1  A    between atoms: C7_8  and  C10_12 
REMARK    2  A    between atoms: N9_10  and  C1'_11 
REMARK    3  A    between atoms: C4'_19  and  C5'_21 
ROOT
HETATM    1  N1    D T 577      -4.895  -5.449  10.087  1.00 85.37    -0.203 NA
HETATM    2  C2    D T 577      -3.710  -5.766  10.649  1.00 86.80     0.202 A 
HETATM    3  N3    D T 577      -2.826  -4.843  11.087  1.00 86.97    -0.206 NA
HETATM    4  C4    D T 577      -3.085  -3.516  10.988  1.00 86.50     0.151 A 
HETATM    5  C5    D T 577      -4.361  -3.097  10.387  1.00 85.57     0.078 A 
HETATM    6  C6    D T 577      -5.280  -4.166   9.928  1.00 85.00     0.188 A 
HETATM    7  N6    D T 577      -6.471  -3.897   9.363  1.00 84.84    -0.127 N 
HETATM    8  C7    D T 577      -4.277  -1.627  10.455  1.00 85.86     0.083 A 
HETATM    9  C8    D T 577      -3.074  -1.297  11.035  1.00 86.68     0.084 A 
HETATM   10  N9    D T 577      -2.394  -2.421  11.342  1.00 87.05    -0.287 N 
ENDROOT
BRANCH  10  11
HETATM   11  C1'   D T 577      -1.053  -2.472  11.979  1.00 88.13     0.240 C 
HETATM   12  C2'   D T 577      -0.133  -3.158  10.993  1.00 88.30     0.234 C 
HETATM   13  O2'   D T 577       0.893  -3.877  11.691  1.00 89.07    -0.216 OA
HETATM   14  C3'   D T 577       0.405  -2.001  10.191  1.00 88.03     0.216 C 
HETATM   15  O3'   D T 577       1.694  -2.300   9.663  1.00 88.96    -0.218 OA
HETATM   16  C4'   D T 577       0.443  -0.840  11.180  1.00 88.80     0.183 C 
HETATM   17  O4'   D T 577      -0.505  -1.165  12.201  1.00 88.48    -0.331 OA
BRANCH  16  18
HETATM   18  C5'   D T 577       0.145   0.536  10.570  1.00 89.18     0.214 C 
HETATM   19  O5'   D T 577      -0.715   1.323  11.420  1.00 89.91    -0.218 OA
ENDBRANCH  16  18
ENDBRANCH  10  11
BRANCH   8  20
HETATM   20  C10   D T 577      -5.386  -0.784   9.936  1.00 85.71     0.298 C 
HETATM   21  N11   D T 577      -5.279  -0.274   8.717  1.00 86.33    -0.102 N 
HETATM   22  O12   D T 577      -6.372  -0.577  10.618  1.00 85.41    -0.264 OA
ENDBRANCH   8  20
TORSDOF 3
ENDMDL
MODEL 4
REMARK VINA RESULT:    -7.026      2.558      4.355
REMARK INTER + INTRA:          -8.661
REMARK INTER:                  -8.303
REMARK INTRA:                  -0.358
REMARK UNBOUND:                -0.402
REMARK  3 active torsions:
REMARK  status: ('A' for Active; 'I' for Inactive)
REMARK    1  A    between atoms: C7_8  and  C10_12 
REMARK    2  A    between atoms: N9_10  and  C1'_11 
REMARK    3  A    between atoms: C4'_19  and  C5'_21 
ROOT
HETATM    1  N1    D T 577      -5.319   0.425  10.126  1.00 85.37    -0.203 NA
HETATM    2  C2    D T 577      -4.154   0.873  10.637  1.00 86.80     0.202 A 
HETATM    3  N3    D T 577      -3.160   0.055  11.046  1.00 86.97    -0.206 NA
HETATM    4  C4    D T 577      -3.276  -1.292  10.964  1.00 86.50     0.151 A 
HETATM    5  C5    D T 577      -4.521  -1.853  10.415  1.00 85.57     0.078 A 
HETATM    6  C6    D T 577      -5.568  -0.894   9.986  1.00 85.00     0.188 A 
HETATM    7  N6    D T 577      -6.744  -1.295   9.472  1.00 84.84    -0.127 N 
HETATM    8  C7    D T 577      -4.276  -3.304  10.486  1.00 85.86     0.083 A 
HETATM    9  C8    D T 577      -3.023  -3.496  11.022  1.00 86.68     0.084 A 
HETATM   10  N9    D T 577      -2.456  -2.303  11.290  1.00 87.05    -0.287 N 
ENDROOT
BRANCH  10  11
HETATM   11  C1'   D T 577      -1.106  -2.101  11.879  1.00 88.13     0.240 C 
HETATM   12  C2'   D T 577      -0.219  -3.184  11.304  1.00 88.30     0.234 C 
HETATM   13  O2'   D T 577       0.799  -3.542  12.248  1.00 89.07    -0.216 OA
HETATM   14  C3'   D T 577       0.335  -2.526  10.067  1.00 88.03     0.216 C 
HETATM   15  O3'   D T 577       1.608  -3.068   9.727  1.00 88.96    -0.218 OA
HETATM   16  C4'   D T 577       0.418  -1.047  10.429  1.00 88.80     0.183 C 
HETATM   17  O4'   D T 577      -0.522  -0.851  11.489  1.00 88.48    -0.331 OA
BRANCH  16  18
HETATM   18  C5'   D T 577       0.145  -0.083   9.266  1.00 89.18     0.214 C 
HETATM   19  O5'   D T 577      -0.132   1.253   9.733  1.00 89.91    -0.218 OA
ENDBRANCH  16  18
ENDBRANCH  10  11
BRANCH   8  20
HETATM   20  C10   D T 577      -5.309  -4.267  10.023  1.00 85.71     0.298 C 
HETATM   21  N11   D T 577      -5.870  -5.072  10.914  1.00 86.33    -0.102 N 
HETATM   22  O12   D T 577      -5.634  -4.304   8.852  1.00 85.41    -0.264 OA
ENDBRANCH   8  20
TORSDOF 3
ENDMDL
MODEL 5
REMARK VINA RESULT:    -6.767      2.370      3.812
REMARK INTER + INTRA:          -8.356
REMARK INTER:                  -7.869
REMARK INTRA:                  -0.486
REMARK UNBOUND:                -0.402
REMARK  3 active torsions:
REMARK  status: ('A' for Active; 'I' for Inactive)
REMARK    1  A    between atoms: C7_8  and  C10_12 
REMARK    2  A    between atoms: N9_10  and  C1'_11 
REMARK    3  A    between atoms: C4'_19  and  C5'_21 
ROOT
HETATM    1  N1    D T 577       1.201   0.648  11.492  1.00 85.37    -0.203 NA
HETATM    2  C2    D T 577       0.481   1.739  11.157  1.00 86.80     0.202 A 
HETATM    3  N3    D T 577      -0.847   1.704  10.912  1.00 86.97    -0.206 NA
HETATM    4  C4    D T 577      -1.549   0.548  10.993  1.00 86.50     0.151 A 
HETATM    5  C5    D T 577      -0.829  -0.682  11.355  1.00 85.57     0.078 A 
HETATM    6  C6    D T 577       0.628  -0.567  11.609  1.00 85.00     0.188 A 
HETATM    7  N6    D T 577       1.385  -1.627  11.945  1.00 84.84    -0.127 N 
HETATM    8  C7    D T 577      -1.899  -1.695  11.339  1.00 85.86     0.083 A 
HETATM    9  C8    D T 577      -3.074  -1.065  11.001  1.00 86.68     0.084 A 
HETATM   10  N9    D T 577      -2.845   0.250  10.806  1.00 87.05    -0.287 N 
ENDROOT
BRANCH  10  11
HETATM   11  C1'   D T 577      -3.868   1.258  10.425  1.00 88.13     0.240 C 
HETATM   12  C2'   D T 577      -3.702   1.501   8.941  1.00 88.30     0.234 C 
HETATM   13  O2'   D T 577      -4.069   2.849   8.617  1.00 89.07    -0.216 OA
HETATM   14  C3'   D T 577      -4.632   0.480   8.339  1.00 88.03     0.216 C 
HETATM   15  O3'   D T 577      -5.111   0.911   7.068  1.00 88.96    -0.218 OA
HETATM   16  C4'   D T 577      -5.756   0.342   9.361  1.00 88.80     0.183 C 
HETATM   17  O4'   D T 577      -5.205   0.773  10.609  1.00 88.48    -0.331 OA
BRANCH  16  18
HETATM   18  C5'   D T 577      -6.350  -1.068   9.478  1.00 89.18     0.214 C 
HETATM   19  O5'   D T 577      -5.588  -2.034   8.724  1.00 89.91    -0.218 OA
ENDBRANCH  16  18
ENDBRANCH  10  11
BRANCH   8  20
HETATM   20  C10   D T 577      -1.597  -3.117  11.653  1.00 85.71     0.298 C 
HETATM   21  N11   D T 577      -1.043  -3.870  10.714  1.00 86.33    -0.102 N 
HETATM   22  O12   D T 577      -1.847  -3.570  12.754  1.00 85.41    -0.264 OA
ENDBRANCH   8  20
TORSDOF 3
ENDMDL
MODEL 6
REMARK VINA RESULT:    -6.677      2.101      4.119
REMARK INTER + INTRA:          -8.251
REMARK INTER:                  -7.795
REMARK INTRA:                  -0.456
REMARK UNBOUND:                -0.402
REMARK  3 active torsions:
REMARK  status: ('A' for Active; 'I' for Inactive)
REMARK    1  A    between atoms: C7_8  and  C10_12 
REMARK    2  A    between atoms: N9_10  and  C1'_11 
REMARK    3  A    between atoms: C4'_19  and  C5'_21 
ROOT
HETATM    1  N1    D T 577      -1.055  -5.012  11.540  1.00 85.37    -0.203 NA
HETATM    2  C2    D T 577      -2.354  -4.814  11.847  1.00 86.80     0.202 A 
HETATM    3  N3    D T 577      -2.979  -3.625  11.697  1.00 86.97    -0.206 NA
HETATM    4  C4    D T 577      -2.325  -2.540  11.216  1.00 86.50     0.151 A 
HETATM    5  C5    D T 577      -0.905  -2.683  10.858  1.00 85.57     0.078 A 
HETATM    6  C6    D T 577      -0.286  -4.017  11.050  1.00 85.00     0.188 A 
HETATM    7  N6    D T 577       1.004  -4.260  10.758  1.00 84.84    -0.127 N 
HETATM    8  C7    D T 577      -0.557  -1.330  10.389  1.00 85.86     0.083 A 
HETATM    9  C8    D T 577      -1.682  -0.545  10.489  1.00 86.68     0.084 A 
HETATM   10  N9    D T 577      -2.706  -1.277  10.973  1.00 87.05    -0.287 N 
ENDROOT
BRANCH  10  11
HETATM   11  C1'   D T 577      -4.082  -0.776  11.224  1.00 88.13     0.240 C 
HETATM   12  C2'   D T 577      -4.294   0.392  10.285  1.00 88.30     0.234 C 
HETATM   13  O2'   D T 577      -5.190   1.344  10.873  1.00 89.07    -0.216 OA
HETATM   14  C3'   D T 577      -4.870  -0.276   9.062  1.00 88.03     0.216 C 
HETATM   15  O3'   D T 577      -5.699   0.623   8.332  1.00 88.96    -0.218 OA
HETATM   16  C4'   D T 577      -5.654  -1.463   9.613  1.00 88.80     0.183 C 
HETATM   17  O4'   D T 577      -5.084  -1.747  10.894  1.00 88.48    -0.331 OA
BRANCH  16  18
HETATM   18  C5'   D T 577      -5.647  -2.710   8.718  1.00 89.18     0.214 C 
HETATM   19  O5'   D T 577      -5.791  -3.921   9.488  1.00 89.91    -0.218 OA
ENDBRANCH  16  18
ENDBRANCH  10  11
BRANCH   8  20
HETATM   20  C10   D T 577       0.822  -1.025   9.924  1.00 85.71     0.298 C 
HETATM   21  N11   D T 577       1.761  -0.794  10.831  1.00 86.33    -0.102 N 
HETATM   22  O12   D T 577       1.078  -0.997   8.736  1.00 85.41    -0.264 OA
ENDBRANCH   8  20
TORSDOF 3
ENDMDL
MODEL 7
REMARK VINA RESULT:    -6.392      2.225      5.092
REMARK INTER + INTRA:          -7.916
REMARK INTER:                  -7.896
REMARK INTRA:                  -0.020
REMARK UNBOUND:                -0.402
REMARK  3 active torsions:
REMARK  status: ('A' for Active; 'I' for Inactive)
REMARK    1  A    between atoms: C7_8  and  C10_12 
REMARK    2  A    between atoms: N9_10  and  C1'_11 
REMARK    3  A    between atoms: C4'_19  and  C5'_21 
ROOT
HETATM    1  N1    D T 577       0.065  -3.197  12.150  1.00 85.37    -0.203 NA
HETATM    2  C2    D T 577      -1.129  -3.737  12.468  1.00 86.80     0.202 A 
HETATM    3  N3    D T 577      -2.309  -3.215  12.069  1.00 86.97    -0.206 NA
HETATM    4  C4    D T 577      -2.364  -2.096  11.307  1.00 86.50     0.151 A 
HETATM    5  C5    D T 577      -1.099  -1.453  10.919  1.00 85.57     0.078 A 
HETATM    6  C6    D T 577       0.157  -2.082  11.395  1.00 85.00     0.188 A 
HETATM    7  N6    D T 577       1.369  -1.578  11.102  1.00 84.84    -0.127 N 
HETATM    8  C7    D T 577      -1.558  -0.303  10.121  1.00 85.86     0.083 A 
HETATM    9  C8    D T 577      -2.933  -0.332  10.088  1.00 86.68     0.084 A 
HETATM   10  N9    D T 577      -3.382  -1.394  10.787  1.00 87.05    -0.287 N 
ENDROOT
BRANCH  10  11
HETATM   11  C1'   D T 577      -4.810  -1.757  10.981  1.00 88.13     0.240 C 
HETATM   12  C2'   D T 577      -5.440  -1.785   9.606  1.00 88.30     0.234 C 
HETATM   13  O2'   D T 577      -6.823  -1.417   9.687  1.00 89.07    -0.216 OA
HETATM   14  C3'   D T 577      -5.238  -3.218   9.185  1.00 88.03     0.216 C 
HETATM   15  O3'   D T 577      -6.246  -3.627   8.265  1.00 88.96    -0.218 OA
HETATM   16  C4'   D T 577      -5.295  -4.007  10.490  1.00 88.80     0.183 C 
HETATM   17  O4'   D T 577      -4.967  -3.075  11.525  1.00 88.48    -0.331 OA
BRANCH  16  18
HETATM   18  C5'   D T 577      -4.374  -5.233  10.542  1.00 89.18     0.214 C 
HETATM   19  O5'   D T 577      -4.311  -5.908   9.268  1.00 89.91    -0.218 OA
ENDBRANCH  16  18
ENDBRANCH  10  11
BRANCH   8  20
HETATM   20  C10   D T 577      -0.576   0.641   9.524  1.00 85.71     0.298 C 
HETATM   21  N11   D T 577      -0.069   0.359   8.332  1.00 86.33    -0.102 N 
HETATM   22  O12   D T 577      -0.254   1.651  10.120  1.00 85.41    -0.264 OA
ENDBRANCH   8  20
TORSDOF 3
ENDMDL
MODEL 8
REMARK VINA RESULT:    -6.346      2.668      4.278
REMARK INTER + INTRA:          -7.861
REMARK INTER:                  -7.379
REMARK INTRA:                  -0.483
REMARK UNBOUND:                -0.402
REMARK  3 active torsions:
REMARK  status: ('A' for Active; 'I' for Inactive)
REMARK    1  A    between atoms: C7_8  and  C10_12 
REMARK    2  A    between atoms: N9_10  and  C1'_11 
REMARK    3  A    between atoms: C4'_19  and  C5'_21 
ROOT
HETATM    1  N1    D T 577      -5.123  -2.248  10.231  1.00 85.37    -0.203 NA
HETATM    2  C2    D T 577      -4.509  -1.080  10.514  1.00 86.80     0.202 A 
HETATM    3  N3    D T 577      -3.251  -1.004  11.002  1.00 86.97    -0.206 NA
HETATM    4  C4    D T 577      -2.517  -2.118  11.238  1.00 86.50     0.151 A 
HETATM    5  C5    D T 577      -3.123  -3.427  10.950  1.00 85.57     0.078 A 
HETATM    6  C6    D T 577      -4.507  -3.433  10.417  1.00 85.00     0.188 A 
HETATM    7  N6    D T 577      -5.158  -4.572  10.121  1.00 84.84    -0.127 N 
HETATM    8  C7    D T 577      -2.049  -4.364  11.324  1.00 85.86     0.083 A 
HETATM    9  C8    D T 577      -0.977  -3.625  11.768  1.00 86.68     0.084 A 
HETATM   10  N9    D T 577      -1.274  -2.311  11.705  1.00 87.05    -0.287 N 
ENDROOT
BRANCH  10  11
HETATM   11  C1'   D T 577      -0.368  -1.202  12.102  1.00 88.13     0.240 C 
HETATM   12  C2'   D T 577       1.045  -1.720  11.944  1.00 88.30     0.234 C 
HETATM   13  O2'   D T 577       1.911  -1.096  12.900  1.00 89.07    -0.216 OA
HETATM   14  C3'   D T 577       1.371  -1.341  10.522  1.00 88.03     0.216 C 
HETATM   15  O3'   D T 577       2.773  -1.155  10.352  1.00 88.96    -0.218 OA
HETATM   16  C4'   D T 577       0.587  -0.054  10.284  1.00 88.80     0.183 C 
HETATM   17  O4'   D T 577      -0.483  -0.067  11.233  1.00 88.48    -0.331 OA
BRANCH  16  18
HETATM   18  C5'   D T 577       0.053   0.119   8.856  1.00 89.18     0.214 C 
HETATM   19  O5'   D T 577      -1.218   0.802   8.839  1.00 89.91    -0.218 OA
ENDBRANCH  16  18
ENDBRANCH  10  11
BRANCH   8  20
HETATM   20  C10   D T 577      -2.249  -5.832  11.191  1.00 85.71     0.298 C 
HETATM   21  N11   D T 577      -1.968  -6.407  10.031  1.00 86.33    -0.102 N 
HETATM   22  O12   D T 577      -2.654  -6.485  12.134  1.00 85.41    -0.264 OA
ENDBRANCH   8  20
TORSDOF 3
ENDMDL
MODEL 9
REMARK VINA RESULT:    -6.311      2.268      4.422
REMARK INTER + INTRA:          -7.820
REMARK INTER:                  -7.523
REMARK INTRA:                  -0.297
REMARK UNBOUND:                -0.402
REMARK  3 active torsions:
REMARK  status: ('A' for Active; 'I' for Inactive)
REMARK    1  A    between atoms: C7_8  and  C10_12 
REMARK    2  A    between atoms: N9_10  and  C1'_11 
REMARK    3  A    between atoms: C4'_19  and  C5'_21 
ROOT
HETATM    1  N1    D T 577      -1.383  -2.868  11.212  1.00 85.37    -0.203 NA
HETATM    2  C2    D T 577      -2.681  -2.535  11.365  1.00 86.80     0.202 A 
HETATM    3  N3    D T 577      -3.158  -1.289  11.150  1.00 86.97    -0.206 NA
HETATM    4  C4    D T 577      -2.343  -0.281  10.756  1.00 86.50     0.151 A 
HETATM    5  C5    D T 577      -0.913  -0.572  10.566  1.00 85.57     0.078 A 
HETATM    6  C6    D T 577      -0.463  -1.962  10.822  1.00 85.00     0.188 A 
HETATM    7  N6    D T 577       0.821  -2.338  10.682  1.00 84.84    -0.127 N 
HETATM    8  C7    D T 577      -0.374   0.735  10.150  1.00 85.86     0.083 A 
HETATM    9  C8    D T 577      -1.416   1.633  10.122  1.00 86.68     0.084 A 
HETATM   10  N9    D T 577      -2.560   1.014  10.477  1.00 87.05    -0.287 N 
ENDROOT
BRANCH  10  11
HETATM   11  C1'   D T 577      -3.897   1.656  10.567  1.00 88.13     0.240 C 
HETATM   12  C2'   D T 577      -4.033   2.542   9.347  1.00 88.30     0.234 C 
HETATM   13  O2'   D T 577      -4.858   3.675   9.648  1.00 89.07    -0.216 OA
HETATM   14  C3'   D T 577      -4.661   1.612   8.340  1.00 88.03     0.216 C 
HETATM   15  O3'   D T 577      -5.430   2.337   7.386  1.00 88.96    -0.218 OA
HETATM   16  C4'   D T 577      -5.522   0.672   9.179  1.00 88.80     0.183 C 
HETATM   17  O4'   D T 577      -4.966   0.703  10.496  1.00 88.48    -0.331 OA
BRANCH  16  18
HETATM   18  C5'   D T 577      -5.606  -0.766   8.650  1.00 89.18     0.214 C 
HETATM   19  O5'   D T 577      -6.641  -1.520   9.315  1.00 89.91    -0.218 OA
ENDBRANCH  16  18
ENDBRANCH  10  11
BRANCH   8  20
HETATM   20  C10   D T 577       1.074   0.893   9.852  1.00 85.71     0.298 C 
HETATM   21  N11   D T 577       1.919   1.024  10.865  1.00 86.33    -0.102 N 
HETATM   22  O12   D T 577       1.468   0.893   8.702  1.00 85.41    -0.264 OA
ENDBRANCH   8  20
TORSDOF 3
ENDMDL
