MODEL 1
REMARK VINA RESULT:    -6.665      0.000      0.000
REMARK INTER + INTRA:          -7.909
REMARK INTER:                  -7.444
REMARK INTRA:                  -0.465
REMARK UNBOUND:                -0.465
REMARK  2 active torsions:
REMARK  status: ('A' for Active; 'I' for Inactive)
REMARK    1  A    between atoms: C5_4  and  O7_13 
REMARK    2  A    between atoms: C8_10  and  O7_13 
ROOT
HETATM    1  O7    D T 601       2.218   8.403  -4.974  1.00 13.27    -0.304 OA
ENDROOT
BRANCH   1   2
HETATM    2  C5    D T 601       1.885   7.205  -5.498  1.00 11.04     0.125 A 
HETATM    3  C6    D T 601       0.746   7.168  -6.426  1.00 10.21     0.154 A 
HETATM    4  C1    D T 601       0.332   5.939  -6.958  1.00 10.91     0.041 A 
HETATM    5  O17   D T 601       0.051   8.297  -6.670  1.00 11.89    -0.188 OA
HETATM    6  C2    D T 601       1.071   4.826  -6.577  1.00 13.41     0.060 A 
HETATM    7  C3    D T 601       2.166   4.851  -5.708  1.00 12.99     0.014 A 
HETATM    8 CL14   D T 601       0.573   3.298  -7.348  1.00 16.37    -0.082 Cl
HETATM    9  C4    D T 601       2.576   6.036  -5.127  1.00 14.16     0.028 A 
ENDBRANCH   1   2
BRANCH   1  10
HETATM   10  C8    D T 601       3.532   8.787  -4.944  1.00 12.42     0.111 A 
HETATM   11  C9    D T 601       4.144   9.044  -3.646  1.00 13.41     0.081 A 
HETATM   12  C10   D T 601       5.431   9.479  -3.474  1.00 15.42     0.025 A 
HETATM   13 CL16   D T 601       3.139   8.828  -2.250  1.00 23.85    -0.080 Cl
HETATM   14  C11   D T 601       6.093   9.613  -4.679  1.00 16.71     0.059 A 
HETATM   15  C12   D T 601       5.559   9.418  -5.956  1.00 16.50     0.013 A 
HETATM   16 CL15   D T 601       7.764  10.233  -4.547  1.00 21.71    -0.082 Cl
HETATM   17  C13   D T 601       4.244   8.992  -6.127  1.00 13.25     0.026 A 
ENDBRANCH   1  10
TORSDOF 2
ENDMDL
MODEL 2
REMARK VINA RESULT:    -6.568      1.485      6.069
REMARK INTER + INTRA:          -7.800
REMARK INTER:                  -7.328
REMARK INTRA:                  -0.472
REMARK UNBOUND:                -0.465
REMARK  2 active torsions:
REMARK  status: ('A' for Active; 'I' for Inactive)
REMARK    1  A    between atoms: C5_4  and  O7_13 
REMARK    2  A    between atoms: C8_10  and  O7_13 
ROOT
HETATM    1  O7    D T 601       2.217   8.167  -4.666  1.00 13.27    -0.304 OA
ENDROOT
BRANCH   1   2
HETATM    2  C5    D T 601       3.484   8.631  -4.684  1.00 11.04     0.125 A 
HETATM    3  C6    D T 601       4.141   8.846  -3.387  1.00 10.21     0.154 A 
HETATM    4  C1    D T 601       5.439   9.373  -3.354  1.00 10.91     0.041 A 
HETATM    5  O17   D T 601       3.450   8.634  -2.250  1.00 11.89    -0.188 OA
HETATM    6  C2    D T 601       6.028   9.631  -4.585  1.00 13.41     0.060 A 
HETATM    7  C3    D T 601       5.419   9.415  -5.825  1.00 12.99     0.014 A 
HETATM    8 CL14   D T 601       7.712  10.210  -4.502  1.00 16.37    -0.082 Cl
HETATM    9  C4    D T 601       4.124   8.940  -5.899  1.00 14.16     0.028 A 
ENDBRANCH   1   2
BRANCH   1  10
HETATM   10  C8    D T 601       1.906   7.020  -5.347  1.00 12.42     0.111 A 
HETATM   11  C9    D T 601       0.775   7.050  -6.266  1.00 13.41     0.081 A 
HETATM   12  C10   D T 601       0.328   5.965  -6.973  1.00 15.42     0.025 A 
HETATM   13 CL16   D T 601      -0.072   8.555  -6.416  1.00 23.85    -0.080 Cl
HETATM   14  C11   D T 601       1.100   4.844  -6.735  1.00 16.71     0.059 A 
HETATM   15  C12   D T 601       2.171   4.736  -5.845  1.00 16.50     0.013 A 
HETATM   16 CL15   D T 601       0.547   3.367  -7.577  1.00 21.71    -0.082 Cl
HETATM   17  C13   D T 601       2.613   5.838  -5.116  1.00 13.25     0.026 A 
ENDBRANCH   1  10
TORSDOF 2
ENDMDL
MODEL 3
REMARK VINA RESULT:    -6.545     10.957     13.453
REMARK INTER + INTRA:          -7.775
REMARK INTER:                  -7.250
REMARK INTRA:                  -0.524
REMARK UNBOUND:                -0.465
REMARK  2 active torsions:
REMARK  status: ('A' for Active; 'I' for Inactive)
REMARK    1  A    between atoms: C5_4  and  O7_13 
REMARK    2  A    between atoms: C8_10  and  O7_13 
ROOT
HETATM    1  O7    D T 601       4.993  -4.923  -9.715  1.00 13.27    -0.304 OA
ENDROOT
BRANCH   1   2
HETATM    2  C5    D T 601       4.567  -4.017  -8.812  1.00 11.04     0.125 A 
HETATM    3  C6    D T 601       4.709  -4.362  -7.391  1.00 10.21     0.154 A 
HETATM    4  C1    D T 601       4.236  -3.474  -6.416  1.00 10.91     0.041 A 
HETATM    5  O17   D T 601       5.194  -5.572  -7.047  1.00 11.89    -0.188 OA
HETATM    6  C2    D T 601       3.680  -2.290  -6.884  1.00 13.41     0.060 A 
HETATM    7  C3    D T 601       3.554  -1.943  -8.233  1.00 12.99     0.014 A 
HETATM    8 CL14   D T 601       3.178  -1.145  -5.613  1.00 16.37    -0.082 Cl
HETATM    9  C4    D T 601       3.967  -2.812  -9.224  1.00 14.16     0.028 A 
ENDBRANCH   1   2
BRANCH   1  10
HETATM   10  C8    D T 601       6.119  -4.668 -10.451  1.00 12.42     0.111 A 
HETATM   11  C9    D T 601       6.002  -4.643 -11.904  1.00 13.41     0.081 A 
HETATM   12  C10   D T 601       7.053  -4.447 -12.759  1.00 15.42     0.025 A 
HETATM   13 CL16   D T 601       4.426  -4.933 -12.566  1.00 23.85    -0.080 Cl
HETATM   14  C11   D T 601       8.237  -4.243 -12.077  1.00 16.71     0.059 A 
HETATM   15  C12   D T 601       8.428  -4.289 -10.693  1.00 16.50     0.013 A 
HETATM   16 CL15   D T 601       9.673  -4.037 -13.122  1.00 21.71    -0.082 Cl
HETATM   17  C13   D T 601       7.359  -4.505  -9.828  1.00 13.25     0.026 A 
ENDBRANCH   1  10
TORSDOF 2
ENDMDL
MODEL 4
REMARK VINA RESULT:    -6.240     10.939     13.313
REMARK INTER + INTRA:          -7.435
REMARK INTER:                  -6.953
REMARK INTRA:                  -0.482
REMARK UNBOUND:                -0.465
REMARK  2 active torsions:
REMARK  status: ('A' for Active; 'I' for Inactive)
REMARK    1  A    between atoms: C5_4  and  O7_13 
REMARK    2  A    between atoms: C8_10  and  O7_13 
ROOT
HETATM    1  O7    D T 601       4.774  -4.883  -9.815  1.00 13.27    -0.304 OA
ENDROOT
BRANCH   1   2
HETATM    2  C5    D T 601       5.921  -4.692 -10.499  1.00 11.04     0.125 A 
HETATM    3  C6    D T 601       5.849  -4.745 -11.965  1.00 10.21     0.154 A 
HETATM    4  C1    D T 601       7.023  -4.602 -12.717  1.00 10.91     0.041 A 
HETATM    5  O17   D T 601       4.677  -5.037 -12.562  1.00 11.89    -0.188 OA
HETATM    6  C2    D T 601       8.190  -4.386 -11.996  1.00 13.41     0.060 A 
HETATM    7  C3    D T 601       8.268  -4.317 -10.602  1.00 12.99     0.014 A 
HETATM    8 CL14   D T 601       9.645  -4.113 -12.990  1.00 16.37    -0.082 Cl
HETATM    9  C4    D T 601       7.141  -4.498  -9.824  1.00 14.16     0.028 A 
ENDBRANCH   1   2
BRANCH   1  10
HETATM   10  C8    D T 601       4.323  -3.910  -8.963  1.00 12.42     0.111 A 
HETATM   11  C9    D T 601       4.467  -4.130  -7.529  1.00 13.41     0.081 A 
HETATM   12  C10   D T 601       4.018  -3.263  -6.568  1.00 15.42     0.025 A 
HETATM   13 CL16   D T 601       5.211  -5.616  -7.037  1.00 23.85    -0.080 Cl
HETATM   14  C11   D T 601       3.440  -2.138  -7.122  1.00 16.71     0.059 A 
HETATM   15  C12   D T 601       3.239  -1.879  -8.481  1.00 16.50     0.013 A 
HETATM   16 CL15   D T 601       2.776  -0.980  -5.933  1.00 21.71    -0.082 Cl
HETATM   17  C13   D T 601       3.683  -2.770  -9.454  1.00 13.25     0.026 A 
ENDBRANCH   1  10
TORSDOF 2
ENDMDL
MODEL 5
REMARK VINA RESULT:    -5.966      2.394      3.087
REMARK INTER + INTRA:          -7.128
REMARK INTER:                  -6.772
REMARK INTRA:                  -0.356
REMARK UNBOUND:                -0.465
REMARK  2 active torsions:
REMARK  status: ('A' for Active; 'I' for Inactive)
REMARK    1  A    between atoms: C5_4  and  O7_13 
REMARK    2  A    between atoms: C8_10  and  O7_13 
ROOT
HETATM    1  O7    D T 601       2.432   6.399  -6.970  1.00 13.27    -0.304 OA
ENDROOT
BRANCH   1   2
HETATM    2  C5    D T 601       2.316   5.059  -6.862  1.00 11.04     0.125 A 
HETATM    3  C6    D T 601       2.361   4.276  -8.105  1.00 10.21     0.154 A 
HETATM    4  C1    D T 601       2.196   2.885  -8.048  1.00 10.91     0.041 A 
HETATM    5  O17   D T 601       2.452   4.914  -9.289  1.00 11.89    -0.188 OA
HETATM    6  C2    D T 601       2.028   2.340  -6.782  1.00 13.41     0.060 A 
HETATM    7  C3    D T 601       2.000   3.072  -5.591  1.00 12.99     0.014 A 
HETATM    8 CL14   D T 601       1.917   0.561  -6.742  1.00 16.37    -0.082 Cl
HETATM    9  C4    D T 601       2.114   4.449  -5.610  1.00 14.16     0.028 A 
ENDBRANCH   1   2
BRANCH   1  10
HETATM   10  C8    D T 601       2.948   7.120  -5.927  1.00 12.42     0.111 A 
HETATM   11  C9    D T 601       2.031   7.916  -5.121  1.00 13.41     0.081 A 
HETATM   12  C10   D T 601       2.419   8.719  -4.081  1.00 15.42     0.025 A 
HETATM   13 CL16   D T 601       0.355   7.864  -5.560  1.00 23.85    -0.080 Cl
HETATM   14  C11   D T 601       3.782   8.659  -3.867  1.00 16.71     0.059 A 
HETATM   15  C12   D T 601       4.720   7.948  -4.621  1.00 16.50     0.013 A 
HETATM   16 CL15   D T 601       4.378   9.725  -2.562  1.00 21.71    -0.082 Cl
HETATM   17  C13   D T 601       4.324   7.146  -5.687  1.00 13.25     0.026 A 
ENDBRANCH   1  10
TORSDOF 2
ENDMDL
MODEL 6
REMARK VINA RESULT:    -5.947      2.171      6.322
REMARK INTER + INTRA:          -7.107
REMARK INTER:                  -6.958
REMARK INTRA:                  -0.149
REMARK UNBOUND:                -0.465
REMARK  2 active torsions:
REMARK  status: ('A' for Active; 'I' for Inactive)
REMARK    1  A    between atoms: C5_4  and  O7_13 
REMARK    2  A    between atoms: C8_10  and  O7_13 
ROOT
HETATM    1  O7    D T 601       3.202   6.143  -7.040  1.00 13.27    -0.304 OA
ENDROOT
BRANCH   1   2
HETATM    2  C5    D T 601       3.275   6.856  -5.897  1.00 11.04     0.125 A 
HETATM    3  C6    D T 601       2.159   7.764  -5.597  1.00 10.21     0.154 A 
HETATM    4  C1    D T 601       2.213   8.562  -4.446  1.00 10.91     0.041 A 
HETATM    5  O17   D T 601       1.154   7.897  -6.484  1.00 11.89    -0.188 OA
HETATM    6  C2    D T 601       3.335   8.404  -3.642  1.00 13.41     0.060 A 
HETATM    7  C3    D T 601       4.394   7.531  -3.908  1.00 12.99     0.014 A 
HETATM    8 CL14   D T 601       3.320   9.365  -2.141  1.00 16.37    -0.082 Cl
HETATM    9  C4    D T 601       4.400   6.762  -5.056  1.00 14.16     0.028 A 
ENDBRANCH   1   2
BRANCH   1  10
HETATM   10  C8    D T 601       2.531   4.949  -7.052  1.00 12.42     0.111 A 
HETATM   11  C9    D T 601       2.200   4.359  -8.343  1.00 13.41     0.081 A 
HETATM   12  C10   D T 601       1.492   3.196  -8.500  1.00 15.42     0.025 A 
HETATM   13 CL16   D T 601       2.701   5.232  -9.754  1.00 23.85    -0.080 Cl
HETATM   14  C11   D T 601       1.157   2.632  -7.284  1.00 16.71     0.059 A 
HETATM   15  C12   D T 601       1.411   3.159  -6.015  1.00 16.50     0.013 A 
HETATM   16 CL15   D T 601       0.181   1.139  -7.400  1.00 21.71    -0.082 Cl
HETATM   17  C13   D T 601       2.117   4.350  -5.861  1.00 13.25     0.026 A 
ENDBRANCH   1  10
TORSDOF 2
ENDMDL
MODEL 7
REMARK VINA RESULT:    -5.940     11.862     14.146
REMARK INTER + INTRA:          -7.099
REMARK INTER:                  -6.837
REMARK INTRA:                  -0.262
REMARK UNBOUND:                -0.465
REMARK  2 active torsions:
REMARK  status: ('A' for Active; 'I' for Inactive)
REMARK    1  A    between atoms: C5_4  and  O7_13 
REMARK    2  A    between atoms: C8_10  and  O7_13 
ROOT
HETATM    1  O7    D T 601       5.435  -5.276 -11.454  1.00 13.27    -0.304 OA
ENDROOT
BRANCH   1   2
HETATM    2  C5    D T 601       4.734  -4.374 -10.737  1.00 11.04     0.125 A 
HETATM    3  C6    D T 601       5.250  -4.021  -9.408  1.00 10.21     0.154 A 
HETATM    4  C1    D T 601       4.530  -3.125  -8.607  1.00 10.91     0.041 A 
HETATM    5  O17   D T 601       6.350  -4.641  -8.936  1.00 11.89    -0.188 OA
HETATM    6  C2    D T 601       3.367  -2.606  -9.160  1.00 13.41     0.060 A 
HETATM    7  C3    D T 601       2.874  -2.922 -10.430  1.00 12.99     0.014 A 
HETATM    8 CL14   D T 601       2.530  -1.399  -8.149  1.00 16.37    -0.082 Cl
HETATM    9  C4    D T 601       3.531  -3.835 -11.232  1.00 14.16     0.028 A 
ENDBRANCH   1   2
BRANCH   1  10
HETATM   10  C8    D T 601       6.565  -4.882 -12.120  1.00 12.42     0.111 A 
HETATM   11  C9    D T 601       7.783  -5.659 -11.929  1.00 13.41     0.081 A 
HETATM   12  C10   D T 601       8.991  -5.349 -12.496  1.00 15.42     0.025 A 
HETATM   13 CL16   D T 601       7.680  -7.029 -10.872  1.00 23.85    -0.080 Cl
HETATM   14  C11   D T 601       8.909  -4.227 -13.297  1.00 16.71     0.059 A 
HETATM   15  C12   D T 601       7.788  -3.418 -13.496  1.00 16.50     0.013 A 
HETATM   16 CL15   D T 601      10.459  -3.720 -14.030  1.00 21.71    -0.082 Cl
HETATM   17  C13   D T 601       6.565  -3.728 -12.906  1.00 13.25     0.026 A 
ENDBRANCH   1  10
TORSDOF 2
ENDMDL
MODEL 8
REMARK VINA RESULT:    -5.904     11.761     14.012
REMARK INTER + INTRA:          -7.059
REMARK INTER:                  -6.573
REMARK INTRA:                  -0.486
REMARK UNBOUND:                -0.465
REMARK  2 active torsions:
REMARK  status: ('A' for Active; 'I' for Inactive)
REMARK    1  A    between atoms: C5_4  and  O7_13 
REMARK    2  A    between atoms: C8_10  and  O7_13 
ROOT
HETATM    1  O7    D T 601       5.263  -5.262 -11.328  1.00 13.27    -0.304 OA
ENDROOT
BRANCH   1   2
HETATM    2  C5    D T 601       4.824  -4.525 -10.286  1.00 11.04     0.125 A 
HETATM    3  C6    D T 601       3.665  -3.653 -10.519  1.00 10.21     0.154 A 
HETATM    4  C1    D T 601       3.202  -2.833  -9.480  1.00 10.91     0.041 A 
HETATM    5  O17   D T 601       3.130  -3.574 -11.753  1.00 11.89    -0.188 OA
HETATM    6  C2    D T 601       3.879  -2.935  -8.272  1.00 13.41     0.060 A 
HETATM    7  C3    D T 601       4.972  -3.773  -8.034  1.00 12.99     0.014 A 
HETATM    8 CL14   D T 601       3.202  -1.948  -6.950  1.00 16.37    -0.082 Cl
HETATM    9  C4    D T 601       5.486  -4.563  -9.045  1.00 14.16     0.028 A 
ENDBRANCH   1   2
BRANCH   1  10
HETATM   10  C8    D T 601       6.407  -4.893 -11.985  1.00 12.42     0.111 A 
HETATM   11  C9    D T 601       7.611  -5.686 -11.769  1.00 13.41     0.081 A 
HETATM   12  C10   D T 601       8.830  -5.401 -12.324  1.00 15.42     0.025 A 
HETATM   13 CL16   D T 601       7.474  -7.040 -10.696  1.00 23.85    -0.080 Cl
HETATM   14  C11   D T 601       8.775  -4.289 -13.141  1.00 16.71     0.059 A 
HETATM   15  C12   D T 601       7.668  -3.465 -13.364  1.00 16.50     0.013 A 
HETATM   16 CL15   D T 601      10.341  -3.815 -13.861  1.00 21.71    -0.082 Cl
HETATM   17  C13   D T 601       6.434  -3.749 -12.785  1.00 13.25     0.026 A 
ENDBRANCH   1  10
TORSDOF 2
ENDMDL
MODEL 9
REMARK VINA RESULT:    -5.723     11.586     13.803
REMARK INTER + INTRA:          -6.857
REMARK INTER:                  -6.736
REMARK INTRA:                  -0.121
REMARK UNBOUND:                -0.465
REMARK  2 active torsions:
REMARK  status: ('A' for Active; 'I' for Inactive)
REMARK    1  A    between atoms: C5_4  and  O7_13 
REMARK    2  A    between atoms: C8_10  and  O7_13 
ROOT
HETATM    1  O7    D T 601       5.235  -3.200 -12.244  1.00 13.27    -0.304 OA
ENDROOT
BRANCH   1   2
HETATM    2  C5    D T 601       4.817  -3.404 -10.978  1.00 11.04     0.125 A 
HETATM    3  C6    D T 601       5.313  -2.482  -9.947  1.00 10.21     0.154 A 
HETATM    4  C1    D T 601       4.946  -2.684  -8.610  1.00 10.91     0.041 A 
HETATM    5  O17   D T 601       6.197  -1.522 -10.285  1.00 11.89    -0.188 OA
HETATM    6  C2    D T 601       4.094  -3.753  -8.363  1.00 13.41     0.060 A 
HETATM    7  C3    D T 601       3.603  -4.627  -9.337  1.00 12.99     0.014 A 
HETATM    8 CL14   D T 601       3.574  -3.919  -6.666  1.00 16.37    -0.082 Cl
HETATM    9  C4    D T 601       3.978  -4.489 -10.660  1.00 14.16     0.028 A 
ENDBRANCH   1   2
BRANCH   1  10
HETATM   10  C8    D T 601       6.488  -3.606 -12.619  1.00 12.42     0.111 A 
HETATM   11  C9    D T 601       7.149  -2.889 -13.702  1.00 13.41     0.081 A 
HETATM   12  C10   D T 601       8.379  -3.219 -14.206  1.00 15.42     0.025 A 
HETATM   13 CL16   D T 601       6.278  -1.570 -14.414  1.00 23.85    -0.080 Cl
HETATM   14  C11   D T 601       8.934  -4.295 -13.542  1.00 16.71     0.059 A 
HETATM   15  C12   D T 601       8.343  -5.048 -12.523  1.00 16.50     0.013 A 
HETATM   16 CL15   D T 601      10.517  -4.827 -14.178  1.00 21.71    -0.082 Cl
HETATM   17  C13   D T 601       7.086  -4.719 -12.024  1.00 13.25     0.026 A 
ENDBRANCH   1  10
TORSDOF 2
ENDMDL
