MODEL 1
REMARK VINA RESULT:    -8.246      0.000      0.000
REMARK INTER + INTRA:          -9.668
REMARK INTER:                  -9.210
REMARK INTRA:                  -0.457
REMARK UNBOUND:                -0.457
REMARK  2 active torsions:
REMARK  status: ('A' for Active; 'I' for Inactive)
REMARK    1  A    between atoms: C5_4  and  O7_13 
REMARK    2  A    between atoms: C8_10  and  O7_13 
ROOT
HETATM    1  O7    D T 502      41.117  41.635  94.039  1.00 50.24    -0.304 OA
ENDROOT
BRANCH   1   2
HETATM    2  C5    D T 502      40.536  42.430  94.976  1.00 46.69     0.125 A 
HETATM    3  C6    D T 502      39.560  43.458  94.533  1.00 45.87     0.154 A 
HETATM    4  C1    D T 502      38.949  44.261  95.490  1.00 45.29     0.041 A 
HETATM    5  O17   D T 502      39.308  43.595  93.208  1.00 43.35    -0.188 OA
HETATM    6  C2    D T 502      39.294  44.064  96.835  1.00 46.78     0.060 A 
HETATM    7  C3    D T 502      40.210  43.106  97.267  1.00 44.62     0.014 A 
HETATM    8 CL14   D T 502      38.535  45.093  98.079  1.00 50.36    -0.082 Cl
HETATM    9  C4    D T 502      40.823  42.288  96.330  1.00 46.09     0.028 A 
ENDBRANCH   1   2
BRANCH   1  10
HETATM   10  C8    D T 502      42.449  41.379  94.014  1.00 57.34     0.111 A 
HETATM   11  C9    D T 502      43.390  42.445  93.582  1.00 60.97     0.081 A 
HETATM   12  C10   D T 502      44.745  42.199  93.542  1.00 61.34     0.025 A 
HETATM   13 CL16   D T 502      42.839  44.070  93.074  1.00 70.84    -0.080 Cl
HETATM   14  C11   D T 502      45.205  40.959  93.909  1.00 60.50     0.059 A 
HETATM   15  C12   D T 502      44.352  39.940  94.322  1.00 60.51     0.013 A 
HETATM   16 CL15   D T 502      46.959  40.723  93.828  1.00 63.55    -0.082 Cl
HETATM   17  C13   D T 502      42.969  40.141  94.380  1.00 58.81     0.026 A 
ENDBRANCH   1  10
TORSDOF 2
ENDMDL
MODEL 2
REMARK VINA RESULT:    -7.842      1.204      5.811
REMARK INTER + INTRA:          -9.216
REMARK INTER:                  -8.919
REMARK INTRA:                  -0.297
REMARK UNBOUND:                -0.457
REMARK  2 active torsions:
REMARK  status: ('A' for Active; 'I' for Inactive)
REMARK    1  A    between atoms: C5_4  and  O7_13 
REMARK    2  A    between atoms: C8_10  and  O7_13 
ROOT
HETATM    1  O7    D T 502      41.231  41.517  94.335  1.00 50.24    -0.304 OA
ENDROOT
BRANCH   1   2
HETATM    2  C5    D T 502      42.568  41.311  94.207  1.00 46.69     0.125 A 
HETATM    3  C6    D T 502      43.415  42.422  93.701  1.00 45.87     0.154 A 
HETATM    4  C1    D T 502      44.786  42.222  93.587  1.00 45.29     0.041 A 
HETATM    5  O17   D T 502      42.824  43.590  93.349  1.00 43.35    -0.188 OA
HETATM    6  C2    D T 502      45.305  40.970  93.949  1.00 46.78     0.060 A 
HETATM    7  C3    D T 502      44.523  39.916  94.423  1.00 44.62     0.014 A 
HETATM    8 CL14   D T 502      47.059  40.685  93.797  1.00 50.36    -0.082 Cl
HETATM    9  C4    D T 502      43.154  40.098  94.554  1.00 46.09     0.028 A 
ENDBRANCH   1   2
BRANCH   1  10
HETATM   10  C8    D T 502      40.696  42.290  95.313  1.00 57.34     0.111 A 
HETATM   11  C9    D T 502      39.704  43.338  94.957  1.00 60.97     0.081 A 
HETATM   12  C10   D T 502      39.158  44.138  95.936  1.00 61.34     0.025 A 
HETATM   13 CL16   D T 502      39.183  43.639  93.271  1.00 70.84    -0.080 Cl
HETATM   14  C11   D T 502      39.546  43.948  97.239  1.00 60.50     0.059 A 
HETATM   15  C12   D T 502      40.469  42.974  97.609  1.00 60.51     0.013 A 
HETATM   16 CL15   D T 502      38.800  45.019  98.438  1.00 63.55    -0.082 Cl
HETATM   17  C13   D T 502      41.049  42.137  96.650  1.00 58.81     0.026 A 
ENDBRANCH   1  10
TORSDOF 2
ENDMDL
MODEL 3
REMARK VINA RESULT:    -7.726      1.482      1.906
REMARK INTER + INTRA:          -9.087
REMARK INTER:                  -8.719
REMARK INTRA:                  -0.368
REMARK UNBOUND:                -0.457
REMARK  2 active torsions:
REMARK  status: ('A' for Active; 'I' for Inactive)
REMARK    1  A    between atoms: C5_4  and  O7_13 
REMARK    2  A    between atoms: C8_10  and  O7_13 
ROOT
HETATM    1  O7    D T 502      40.820  42.242  94.333  1.00 50.24    -0.304 OA
ENDROOT
BRANCH   1   2
HETATM    2  C5    D T 502      40.323  42.906  95.410  1.00 46.69     0.125 A 
HETATM    3  C6    D T 502      39.016  43.600  95.280  1.00 45.87     0.154 A 
HETATM    4  C1    D T 502      38.496  44.264  96.385  1.00 45.29     0.041 A 
HETATM    5  O17   D T 502      38.380  43.580  94.083  1.00 43.35    -0.188 OA
HETATM    6  C2    D T 502      39.240  44.253  97.574  1.00 46.78     0.060 A 
HETATM    7  C3    D T 502      40.470  43.609  97.711  1.00 44.62     0.014 A 
HETATM    8 CL14   D T 502      38.599  45.112  99.000  1.00 50.36    -0.082 Cl
HETATM    9  C4    D T 502      41.002  42.932  96.624  1.00 46.09     0.028 A 
ENDBRANCH   1   2
BRANCH   1  10
HETATM   10  C8    D T 502      42.138  41.953  94.190  1.00 57.34     0.111 A 
HETATM   11  C9    D T 502      42.645  40.623  94.617  1.00 60.97     0.081 A 
HETATM   12  C10   D T 502      43.982  40.316  94.488  1.00 61.34     0.025 A 
HETATM   13 CL16   D T 502      41.585  39.370  95.332  1.00 70.84    -0.080 Cl
HETATM   14  C11   D T 502      44.829  41.258  93.960  1.00 60.50     0.059 A 
HETATM   15  C12   D T 502      44.388  42.511  93.546  1.00 60.51     0.013 A 
HETATM   16 CL15   D T 502      46.532  40.787  93.829  1.00 63.55    -0.082 Cl
HETATM   17  C13   D T 502      43.039  42.868  93.656  1.00 58.81     0.026 A 
ENDBRANCH   1  10
TORSDOF 2
ENDMDL
MODEL 4
REMARK VINA RESULT:    -7.471      2.501      3.070
REMARK INTER + INTRA:          -8.801
REMARK INTER:                  -8.394
REMARK INTRA:                  -0.407
REMARK UNBOUND:                -0.457
REMARK  2 active torsions:
REMARK  status: ('A' for Active; 'I' for Inactive)
REMARK    1  A    between atoms: C5_4  and  O7_13 
REMARK    2  A    between atoms: C8_10  and  O7_13 
ROOT
HETATM    1  O7    D T 502      41.740  43.143  96.674  1.00 50.24    -0.304 OA
ENDROOT
BRANCH   1   2
HETATM    2  C5    D T 502      40.468  43.218  96.200  1.00 46.69     0.125 A 
HETATM    3  C6    D T 502      39.342  43.118  97.162  1.00 45.87     0.154 A 
HETATM    4  C1    D T 502      38.039  43.213  96.685  1.00 45.29     0.041 A 
HETATM    5  O17   D T 502      39.616  42.917  98.475  1.00 43.35    -0.188 OA
HETATM    6  C2    D T 502      37.853  43.394  95.306  1.00 46.78     0.060 A 
HETATM    7  C3    D T 502      38.900  43.487  94.389  1.00 44.62     0.014 A 
HETATM    8 CL14   D T 502      36.191  43.504  94.668  1.00 50.36    -0.082 Cl
HETATM    9  C4    D T 502      40.207  43.404  94.846  1.00 46.09     0.028 A 
ENDBRANCH   1   2
BRANCH   1  10
HETATM   10  C8    D T 502      42.752  42.568  95.976  1.00 57.34     0.111 A 
HETATM   11  C9    D T 502      42.836  41.087  95.897  1.00 60.97     0.081 A 
HETATM   12  C10   D T 502      43.862  40.486  95.202  1.00 61.34     0.025 A 
HETATM   13 CL16   D T 502      41.653  40.009  96.700  1.00 70.84    -0.080 Cl
HETATM   14  C11   D T 502      44.798  41.279  94.586  1.00 60.50     0.059 A 
HETATM   15  C12   D T 502      44.748  42.669  94.637  1.00 60.51     0.013 A 
HETATM   16 CL15   D T 502      46.086  40.430  93.714  1.00 63.55    -0.082 Cl
HETATM   17  C13   D T 502      43.725  43.324  95.330  1.00 58.81     0.026 A 
ENDBRANCH   1  10
TORSDOF 2
ENDMDL
MODEL 5
REMARK VINA RESULT:    -7.411      2.377      2.720
REMARK INTER + INTRA:          -8.735
REMARK INTER:                  -8.310
REMARK INTRA:                  -0.425
REMARK UNBOUND:                -0.457
REMARK  2 active torsions:
REMARK  status: ('A' for Active; 'I' for Inactive)
REMARK    1  A    between atoms: C5_4  and  O7_13 
REMARK    2  A    between atoms: C8_10  and  O7_13 
ROOT
HETATM    1  O7    D T 502      41.247  41.040  96.943  1.00 50.24    -0.304 OA
ENDROOT
BRANCH   1   2
HETATM    2  C5    D T 502      40.104  41.619  96.487  1.00 46.69     0.125 A 
HETATM    3  C6    D T 502      39.425  42.626  97.341  1.00 45.87     0.154 A 
HETATM    4  C1    D T 502      38.267  43.235  96.871  1.00 45.29     0.041 A 
HETATM    5  O17   D T 502      39.945  42.909  98.561  1.00 43.35    -0.188 OA
HETATM    6  C2    D T 502      37.789  42.858  95.607  1.00 46.78     0.060 A 
HETATM    7  C3    D T 502      38.413  41.912  94.794  1.00 44.62     0.014 A 
HETATM    8 CL14   D T 502      36.296  43.614  94.989  1.00 50.36    -0.082 Cl
HETATM    9  C4    D T 502      39.575  41.300  95.240  1.00 46.09     0.028 A 
ENDBRANCH   1   2
BRANCH   1  10
HETATM   10  C8    D T 502      42.388  40.988  96.210  1.00 57.34     0.111 A 
HETATM   11  C9    D T 502      43.316  42.149  96.219  1.00 60.97     0.081 A 
HETATM   12  C10   D T 502      44.474  42.116  95.474  1.00 61.34     0.025 A 
HETATM   13 CL16   D T 502      42.989  43.638  97.156  1.00 70.84    -0.080 Cl
HETATM   14  C11   D T 502      44.751  40.997  94.729  1.00 60.50     0.059 A 
HETATM   15  C12   D T 502      43.906  39.892  94.701  1.00 60.51     0.013 A 
HETATM   16 CL15   D T 502      46.258  41.036  93.798  1.00 63.55    -0.082 Cl
HETATM   17  C13   D T 502      42.720  39.877  95.442  1.00 58.81     0.026 A 
ENDBRANCH   1  10
TORSDOF 2
ENDMDL
MODEL 6
REMARK VINA RESULT:    -7.362      2.205      6.151
REMARK INTER + INTRA:          -8.680
REMARK INTER:                  -8.406
REMARK INTRA:                  -0.274
REMARK UNBOUND:                -0.457
REMARK  2 active torsions:
REMARK  status: ('A' for Active; 'I' for Inactive)
REMARK    1  A    between atoms: C5_4  and  O7_13 
REMARK    2  A    between atoms: C8_10  and  O7_13 
ROOT
HETATM    1  O7    D T 502      41.405  41.594  96.986  1.00 50.24    -0.304 OA
ENDROOT
BRANCH   1   2
HETATM    2  C5    D T 502      42.524  41.404  96.237  1.00 46.69     0.125 A 
HETATM    3  C6    D T 502      43.531  42.494  96.172  1.00 45.87     0.154 A 
HETATM    4  C1    D T 502      44.686  42.297  95.423  1.00 45.29     0.041 A 
HETATM    5  O17   D T 502      43.286  43.654  96.831  1.00 43.35    -0.188 OA
HETATM    6  C2    D T 502      44.839  41.074  94.754  1.00 46.78     0.060 A 
HETATM    7  C3    D T 502      43.901  40.043  94.802  1.00 44.62     0.014 A 
HETATM    8 CL14   D T 502      46.306  40.805  93.774  1.00 50.36    -0.082 Cl
HETATM    9  C4    D T 502      42.747  40.214  95.552  1.00 46.09     0.028 A 
ENDBRANCH   1   2
BRANCH   1  10
HETATM   10  C8    D T 502      40.231  42.025  96.459  1.00 57.34     0.111 A 
HETATM   11  C9    D T 502      39.565  43.219  97.039  1.00 60.97     0.081 A 
HETATM   12  C10   D T 502      38.368  43.666  96.523  1.00 61.34     0.025 A 
HETATM   13 CL16   D T 502      40.242  44.122  98.429  1.00 70.84    -0.080 Cl
HETATM   14  C11   D T 502      37.809  42.989  95.467  1.00 60.50     0.059 A 
HETATM   15  C12   D T 502      38.408  41.870  94.897  1.00 60.51     0.013 A 
HETATM   16 CL15   D T 502      36.270  43.625  94.862  1.00 63.55    -0.082 Cl
HETATM   17  C13   D T 502      39.624  41.380  95.386  1.00 58.81     0.026 A 
ENDBRANCH   1  10
TORSDOF 2
ENDMDL
MODEL 7
REMARK VINA RESULT:    -7.229      1.754      6.123
REMARK INTER + INTRA:          -8.531
REMARK INTER:                  -8.252
REMARK INTRA:                  -0.279
REMARK UNBOUND:                -0.457
REMARK  2 active torsions:
REMARK  status: ('A' for Active; 'I' for Inactive)
REMARK    1  A    between atoms: C5_4  and  O7_13 
REMARK    2  A    between atoms: C8_10  and  O7_13 
ROOT
HETATM    1  O7    D T 502      39.695  42.777  94.794  1.00 50.24    -0.304 OA
ENDROOT
BRANCH   1   2
HETATM    2  C5    D T 502      40.887  42.173  94.543  1.00 46.69     0.125 A 
HETATM    3  C6    D T 502      41.931  42.934  93.810  1.00 45.87     0.154 A 
HETATM    4  C1    D T 502      43.158  42.327  93.568  1.00 45.29     0.041 A 
HETATM    5  O17   D T 502      41.649  44.189  93.383  1.00 43.35    -0.188 OA
HETATM    6  C2    D T 502      43.348  41.014  94.024  1.00 46.78     0.060 A 
HETATM    7  C3    D T 502      42.377  40.286  94.711  1.00 44.62     0.014 A 
HETATM    8 CL14   D T 502      44.909  40.209  93.712  1.00 50.36    -0.082 Cl
HETATM    9  C4    D T 502      41.149  40.876  94.972  1.00 46.09     0.028 A 
ENDBRANCH   1   2
BRANCH   1  10
HETATM   10  C8    D T 502      39.390  43.332  95.995  1.00 57.34     0.111 A 
HETATM   11  C9    D T 502      37.993  43.756  96.270  1.00 60.97     0.081 A 
HETATM   12  C10   D T 502      37.668  44.330  97.480  1.00 61.34     0.025 A 
HETATM   13 CL16   D T 502      36.677  43.578  95.071  1.00 70.84    -0.080 Cl
HETATM   14  C11   D T 502      38.654  44.498  98.419  1.00 60.50     0.059 A 
HETATM   15  C12   D T 502      39.971  44.109  98.196  1.00 60.51     0.013 A 
HETATM   16 CL15   D T 502      38.155  45.244  99.947  1.00 63.55    -0.082 Cl
HETATM   17  C13   D T 502      40.350  43.521  96.985  1.00 58.81     0.026 A 
ENDBRANCH   1  10
TORSDOF 2
ENDMDL
MODEL 8
REMARK VINA RESULT:    -7.144      2.570      3.164
REMARK INTER + INTRA:          -8.437
REMARK INTER:                  -7.917
REMARK INTRA:                  -0.520
REMARK UNBOUND:                -0.457
REMARK  2 active torsions:
REMARK  status: ('A' for Active; 'I' for Inactive)
REMARK    1  A    between atoms: C5_4  and  O7_13 
REMARK    2  A    between atoms: C8_10  and  O7_13 
ROOT
HETATM    1  O7    D T 502      40.444  43.858  96.153  1.00 50.24    -0.304 OA
ENDROOT
BRANCH   1   2
HETATM    2  C5    D T 502      39.423  43.455  96.954  1.00 46.69     0.125 A 
HETATM    3  C6    D T 502      39.380  43.944  98.356  1.00 45.87     0.154 A 
HETATM    4  C1    D T 502      38.327  43.549  99.173  1.00 45.29     0.041 A 
HETATM    5  O17   D T 502      40.379  44.746  98.801  1.00 43.35    -0.188 OA
HETATM    6  C2    D T 502      37.355  42.695  98.632  1.00 46.78     0.060 A 
HETATM    7  C3    D T 502      37.382  42.225  97.320  1.00 44.62     0.014 A 
HETATM    8 CL14   D T 502      36.002  42.163  99.667  1.00 50.36    -0.082 Cl
HETATM    9  C4    D T 502      38.418  42.615  96.484  1.00 46.09     0.028 A 
ENDBRANCH   1   2
BRANCH   1  10
HETATM   10  C8    D T 502      41.362  42.999  95.642  1.00 57.34     0.111 A 
HETATM   11  C9    D T 502      41.439  42.802  94.171  1.00 60.97     0.081 A 
HETATM   12  C10   D T 502      42.359  41.926  93.636  1.00 61.34     0.025 A 
HETATM   13 CL16   D T 502      40.355  43.648  93.026  1.00 70.84    -0.080 Cl
HETATM   14  C11   D T 502      43.196  41.245  94.484  1.00 60.50     0.059 A 
HETATM   15  C12   D T 502      43.153  41.409  95.865  1.00 60.51     0.013 A 
HETATM   16 CL15   D T 502      44.348  40.138  93.718  1.00 63.55    -0.082 Cl
HETATM   17  C13   D T 502      42.239  42.287  96.455  1.00 58.81     0.026 A 
ENDBRANCH   1  10
TORSDOF 2
ENDMDL
MODEL 9
REMARK VINA RESULT:    -6.964      2.095      6.253
REMARK INTER + INTRA:          -8.235
REMARK INTER:                  -7.828
REMARK INTRA:                  -0.407
REMARK UNBOUND:                -0.457
REMARK  2 active torsions:
REMARK  status: ('A' for Active; 'I' for Inactive)
REMARK    1  A    between atoms: C5_4  and  O7_13 
REMARK    2  A    between atoms: C8_10  and  O7_13 
ROOT
HETATM    1  O7    D T 502      40.309  43.853  95.753  1.00 50.24    -0.304 OA
ENDROOT
BRANCH   1   2
HETATM    2  C5    D T 502      41.265  42.992  95.313  1.00 46.69     0.125 A 
HETATM    3  C6    D T 502      41.827  43.186  93.952  1.00 45.87     0.154 A 
HETATM    4  C1    D T 502      42.818  42.319  93.505  1.00 45.29     0.041 A 
HETATM    5  O17   D T 502      41.343  44.189  93.179  1.00 43.35    -0.188 OA
HETATM    6  C2    D T 502      43.237  41.293  94.366  1.00 46.78     0.060 A 
HETATM    7  C3    D T 502      42.717  41.097  95.645  1.00 44.62     0.014 A 
HETATM    8 CL14   D T 502      44.497  40.160  93.808  1.00 50.36    -0.082 Cl
HETATM    9  C4    D T 502      41.735  41.956  96.114  1.00 46.09     0.028 A 
ENDBRANCH   1   2
BRANCH   1  10
HETATM   10  C8    D T 502      39.328  43.484  96.615  1.00 57.34     0.111 A 
HETATM   11  C9    D T 502      39.439  43.853  98.050  1.00 60.97     0.081 A 
HETATM   12  C10   D T 502      38.457  43.479  98.941  1.00 61.34     0.025 A 
HETATM   13 CL16   D T 502      40.833  44.765  98.707  1.00 70.84    -0.080 Cl
HETATM   14  C11   D T 502      37.381  42.764  98.478  1.00 60.50     0.059 A 
HETATM   15  C12   D T 502      37.243  42.405  97.140  1.00 60.51     0.013 A 
HETATM   16 CL15   D T 502      36.163  42.320  99.685  1.00 63.55    -0.082 Cl
HETATM   17  C13   D T 502      38.213  42.764  96.198  1.00 58.81     0.026 A 
ENDBRANCH   1  10
TORSDOF 2
ENDMDL
