MODEL 1
REMARK VINA RESULT:    -6.723      0.000      0.000
REMARK INTER + INTRA:          -7.904
REMARK INTER:                  -7.509
REMARK INTRA:                  -0.395
REMARK UNBOUND:                -0.395
REMARK  2 active torsions:
REMARK  status: ('A' for Active; 'I' for Inactive)
REMARK    1  A    between atoms: C5_4  and  O7_13 
REMARK    2  A    between atoms: C8_10  and  O7_13 
ROOT
HETATM    1  O7    D T 502       2.366   8.641  -5.160  1.00 50.24    -0.304 OA
ENDROOT
BRANCH   1   2
HETATM    2  C5    D T 502       1.936   7.436  -5.617  1.00 46.69     0.125 A 
HETATM    3  C6    D T 502       0.719   7.388  -6.468  1.00 45.87     0.154 A 
HETATM    4  C1    D T 502       0.288   6.160  -6.955  1.00 45.29     0.041 A 
HETATM    5  O17   D T 502       0.058   8.542  -6.730  1.00 43.35    -0.188 OA
HETATM    6  C2    D T 502       1.023   5.016  -6.608  1.00 46.78     0.060 A 
HETATM    7  C3    D T 502       2.165   5.044  -5.807  1.00 44.62     0.014 A 
HETATM    8 CL14   D T 502       0.478   3.427  -7.207  1.00 50.36    -0.082 Cl
HETATM    9  C4    D T 502       2.619   6.260  -5.321  1.00 46.09     0.028 A 
ENDBRANCH   1   2
BRANCH   1  10
HETATM   10  C8    D T 502       3.680   8.938  -4.989  1.00 57.34     0.111 A 
HETATM   11  C9    D T 502       4.221   9.095  -3.614  1.00 60.97     0.081 A 
HETATM   12  C10   D T 502       5.550   9.406  -3.423  1.00 61.34     0.025 A 
HETATM   13 CL16   D T 502       3.205   8.920  -2.151  1.00 70.84    -0.080 Cl
HETATM   14  C11   D T 502       6.357   9.564  -4.521  1.00 60.50     0.059 A 
HETATM   15  C12   D T 502       5.884   9.421  -5.822  1.00 60.51     0.013 A 
HETATM   16 CL15   D T 502       8.052   9.964  -4.190  1.00 63.55    -0.082 Cl
HETATM   17  C13   D T 502       4.543   9.104  -6.067  1.00 58.81     0.026 A 
ENDBRANCH   1  10
TORSDOF 2
ENDMDL
MODEL 2
REMARK VINA RESULT:    -6.723      1.501      6.143
REMARK INTER + INTRA:          -7.903
REMARK INTER:                  -7.466
REMARK INTRA:                  -0.438
REMARK UNBOUND:                -0.395
REMARK  2 active torsions:
REMARK  status: ('A' for Active; 'I' for Inactive)
REMARK    1  A    between atoms: C5_4  and  O7_13 
REMARK    2  A    between atoms: C8_10  and  O7_13 
ROOT
HETATM    1  O7    D T 502       2.368   8.430  -4.877  1.00 50.24    -0.304 OA
ENDROOT
BRANCH   1   2
HETATM    2  C5    D T 502       3.669   8.796  -4.733  1.00 46.69     0.125 A 
HETATM    3  C6    D T 502       4.244   8.861  -3.365  1.00 45.87     0.154 A 
HETATM    4  C1    D T 502       5.579   9.216  -3.214  1.00 45.29     0.041 A 
HETATM    5  O17   D T 502       3.444   8.588  -2.304  1.00 43.35    -0.188 OA
HETATM    6  C2    D T 502       6.321   9.505  -4.369  1.00 46.78     0.060 A 
HETATM    7  C3    D T 502       5.794   9.453  -5.660  1.00 44.62     0.014 A 
HETATM    8 CL14   D T 502       8.032   9.979  -4.198  1.00 50.36    -0.082 Cl
HETATM    9  C4    D T 502       4.468   9.091  -5.833  1.00 46.09     0.028 A 
ENDBRANCH   1   2
BRANCH   1  10
HETATM   10  C8    D T 502       1.993   7.245  -5.426  1.00 57.34     0.111 A 
HETATM   11  C9    D T 502       0.855   7.208  -6.379  1.00 60.97     0.081 A 
HETATM   12  C10   D T 502       0.456   6.014  -6.936  1.00 61.34     0.025 A 
HETATM   13 CL16   D T 502      -0.067   8.673  -6.839  1.00 70.84    -0.080 Cl
HETATM   14  C11   D T 502       1.127   4.867  -6.595  1.00 60.50     0.059 A 
HETATM   15  C12   D T 502       2.200   4.866  -5.708  1.00 60.51     0.013 A 
HETATM   16 CL15   D T 502       0.551   3.372  -7.354  1.00 63.55    -0.082 Cl
HETATM   17  C13   D T 502       2.643   6.055  -5.118  1.00 58.81     0.026 A 
ENDBRANCH   1  10
TORSDOF 2
ENDMDL
MODEL 3
REMARK VINA RESULT:    -6.617     11.288     13.648
REMARK INTER + INTRA:          -7.785
REMARK INTER:                  -7.291
REMARK INTRA:                  -0.494
REMARK UNBOUND:                -0.395
REMARK  2 active torsions:
REMARK  status: ('A' for Active; 'I' for Inactive)
REMARK    1  A    between atoms: C5_4  and  O7_13 
REMARK    2  A    between atoms: C8_10  and  O7_13 
ROOT
HETATM    1  O7    D T 502       5.556  -5.050  -9.701  1.00 50.24    -0.304 OA
ENDROOT
BRANCH   1   2
HETATM    2  C5    D T 502       4.968  -4.155  -8.864  1.00 46.69     0.125 A 
HETATM    3  C6    D T 502       4.807  -4.517  -7.432  1.00 45.87     0.154 A 
HETATM    4  C1    D T 502       4.224  -3.597  -6.569  1.00 45.29     0.041 A 
HETATM    5  O17   D T 502       5.217  -5.740  -7.015  1.00 43.35    -0.188 OA
HETATM    6  C2    D T 502       3.806  -2.367  -7.098  1.00 46.78     0.060 A 
HETATM    7  C3    D T 502       3.947  -2.013  -8.440  1.00 44.62     0.014 A 
HETATM    8 CL14   D T 502       3.041  -1.176  -6.011  1.00 50.36    -0.082 Cl
HETATM    9  C4    D T 502       4.535  -2.912  -9.316  1.00 46.09     0.028 A 
ENDBRANCH   1   2
BRANCH   1  10
HETATM   10  C8    D T 502       6.598  -4.727 -10.510  1.00 57.34     0.111 A 
HETATM   11  C9    D T 502       6.398  -4.692 -11.981  1.00 60.97     0.081 A 
HETATM   12  C10   D T 502       7.447  -4.376 -12.816  1.00 61.34     0.025 A 
HETATM   13 CL16   D T 502       4.827  -5.071 -12.751  1.00 70.84    -0.080 Cl
HETATM   14  C11   D T 502       8.672  -4.096 -12.264  1.00 60.50     0.059 A 
HETATM   15  C12   D T 502       8.892  -4.117 -10.890  1.00 60.51     0.013 A 
HETATM   16 CL15   D T 502       9.969  -3.701 -13.406  1.00 63.55    -0.082 Cl
HETATM   17  C13   D T 502       7.858  -4.430 -10.002  1.00 58.81     0.026 A 
ENDBRANCH   1  10
TORSDOF 2
ENDMDL
MODEL 4
REMARK VINA RESULT:    -6.290     11.257     13.587
REMARK INTER + INTRA:          -7.420
REMARK INTER:                  -7.001
REMARK INTRA:                  -0.419
REMARK UNBOUND:                -0.395
REMARK  2 active torsions:
REMARK  status: ('A' for Active; 'I' for Inactive)
REMARK    1  A    between atoms: C5_4  and  O7_13 
REMARK    2  A    between atoms: C8_10  and  O7_13 
ROOT
HETATM    1  O7    D T 502       5.424  -5.080  -9.809  1.00 50.24    -0.304 OA
ENDROOT
BRANCH   1   2
HETATM    2  C5    D T 502       6.430  -4.653 -10.618  1.00 46.69     0.125 A 
HETATM    3  C6    D T 502       6.278  -4.808 -12.088  1.00 45.87     0.154 A 
HETATM    4  C1    D T 502       7.295  -4.354 -12.919  1.00 45.29     0.041 A 
HETATM    5  O17   D T 502       5.160  -5.404 -12.572  1.00 43.35    -0.188 OA
HETATM    6  C2    D T 502       8.426  -3.775 -12.325  1.00 46.78     0.060 A 
HETATM    7  C3    D T 502       8.585  -3.626 -10.947  1.00 44.62     0.014 A 
HETATM    8 CL14   D T 502       9.751  -3.201 -13.372  1.00 50.36    -0.082 Cl
HETATM    9  C4    D T 502       7.578  -4.061 -10.100  1.00 46.09     0.028 A 
ENDBRANCH   1   2
BRANCH   1  10
HETATM   10  C8    D T 502       4.863  -4.294  -8.855  1.00 57.34     0.111 A 
HETATM   11  C9    D T 502       4.012  -3.146  -9.259  1.00 60.97     0.081 A 
HETATM   12  C10   D T 502       3.444  -2.333  -8.304  1.00 61.34     0.025 A 
HETATM   13 CL16   D T 502       3.695  -2.737 -10.973  1.00 70.84    -0.080 Cl
HETATM   14  C11   D T 502       3.677  -2.604  -6.979  1.00 60.50     0.059 A 
HETATM   15  C12   D T 502       4.467  -3.673  -6.565  1.00 60.51     0.013 A 
HETATM   16 CL15   D T 502       2.912  -1.511  -5.813  1.00 63.55    -0.082 Cl
HETATM   17  C13   D T 502       5.064  -4.528  -7.498  1.00 58.81     0.026 A 
ENDBRANCH   1  10
TORSDOF 2
ENDMDL
MODEL 5
REMARK VINA RESULT:    -6.251      8.091     11.131
REMARK INTER + INTRA:          -7.376
REMARK INTER:                  -6.924
REMARK INTRA:                  -0.452
REMARK UNBOUND:                -0.395
REMARK  2 active torsions:
REMARK  status: ('A' for Active; 'I' for Inactive)
REMARK    1  A    between atoms: C5_4  and  O7_13 
REMARK    2  A    between atoms: C8_10  and  O7_13 
ROOT
HETATM    1  O7    D T 502       4.351  -2.172  -7.108  1.00 50.24    -0.304 OA
ENDROOT
BRANCH   1   2
HETATM    2  C5    D T 502       3.624  -1.031  -6.980  1.00 46.69     0.125 A 
HETATM    3  C6    D T 502       4.264   0.157  -6.358  1.00 45.87     0.154 A 
HETATM    4  C1    D T 502       3.531   1.332  -6.243  1.00 45.29     0.041 A 
HETATM    5  O17   D T 502       5.538   0.053  -5.906  1.00 43.35    -0.188 OA
HETATM    6  C2    D T 502       2.210   1.336  -6.716  1.00 46.78     0.060 A 
HETATM    7  C3    D T 502       1.594   0.228  -7.299  1.00 44.62     0.014 A 
HETATM    8 CL14   D T 502       1.244   2.828  -6.564  1.00 50.36    -0.082 Cl
HETATM    9  C4    D T 502       2.310  -0.950  -7.433  1.00 46.09     0.028 A 
ENDBRANCH   1   2
BRANCH   1  10
HETATM   10  C8    D T 502       4.439  -2.862  -8.275  1.00 57.34     0.111 A 
HETATM   11  C9    D T 502       5.347  -2.376  -9.345  1.00 60.97     0.081 A 
HETATM   12  C10   D T 502       5.441  -3.058 -10.538  1.00 61.34     0.025 A 
HETATM   13 CL16   D T 502       6.339  -0.896  -9.170  1.00 70.84    -0.080 Cl
HETATM   14  C11   D T 502       4.683  -4.188 -10.716  1.00 60.50     0.059 A 
HETATM   15  C12   D T 502       3.825  -4.672  -9.733  1.00 60.51     0.013 A 
HETATM   16 CL15   D T 502       4.859  -5.006 -12.278  1.00 63.55    -0.082 Cl
HETATM   17  C13   D T 502       3.697  -4.015  -8.505  1.00 58.81     0.026 A 
ENDBRANCH   1  10
TORSDOF 2
ENDMDL
MODEL 6
REMARK VINA RESULT:    -6.152     12.053     14.209
REMARK INTER + INTRA:          -7.266
REMARK INTER:                  -6.786
REMARK INTRA:                  -0.479
REMARK UNBOUND:                -0.395
REMARK  2 active torsions:
REMARK  status: ('A' for Active; 'I' for Inactive)
REMARK    1  A    between atoms: C5_4  and  O7_13 
REMARK    2  A    between atoms: C8_10  and  O7_13 
ROOT
HETATM    1  O7    D T 502       5.373  -5.172 -11.531  1.00 50.24    -0.304 OA
ENDROOT
BRANCH   1   2
HETATM    2  C5    D T 502       4.929  -4.545 -10.410  1.00 46.69     0.125 A 
HETATM    3  C6    D T 502       3.879  -3.503 -10.544  1.00 45.87     0.154 A 
HETATM    4  C1    D T 502       3.408  -2.873  -9.397  1.00 45.29     0.041 A 
HETATM    5  O17   D T 502       3.425  -3.185 -11.781  1.00 43.35    -0.188 OA
HETATM    6  C2    D T 502       3.957  -3.251  -8.163  1.00 46.78     0.060 A 
HETATM    7  C3    D T 502       4.946  -4.225  -8.021  1.00 44.62     0.014 A 
HETATM    8 CL14   D T 502       3.380  -2.445  -6.680  1.00 50.36    -0.082 Cl
HETATM    9  C4    D T 502       5.422  -4.872  -9.150  1.00 46.09     0.028 A 
ENDBRANCH   1   2
BRANCH   1  10
HETATM   10  C8    D T 502       6.548  -4.857 -12.135  1.00 57.34     0.111 A 
HETATM   11  C9    D T 502       7.758  -5.670 -11.849  1.00 60.97     0.081 A 
HETATM   12  C10   D T 502       8.960  -5.357 -12.445  1.00 61.34     0.025 A 
HETATM   13 CL16   D T 502       7.742  -7.061 -10.722  1.00 70.84    -0.080 Cl
HETATM   14  C11   D T 502       9.016  -4.288 -13.302  1.00 60.50     0.059 A 
HETATM   15  C12   D T 502       7.901  -3.507 -13.594  1.00 60.51     0.013 A 
HETATM   16 CL15   D T 502      10.598  -3.951 -14.026  1.00 63.55    -0.082 Cl
HETATM   17  C13   D T 502       6.658  -3.786 -13.015  1.00 58.81     0.026 A 
ENDBRANCH   1  10
TORSDOF 2
ENDMDL
MODEL 7
REMARK VINA RESULT:    -5.936     11.950     14.107
REMARK INTER + INTRA:          -7.025
REMARK INTER:                  -6.636
REMARK INTRA:                  -0.389
REMARK UNBOUND:                -0.395
REMARK  2 active torsions:
REMARK  status: ('A' for Active; 'I' for Inactive)
REMARK    1  A    between atoms: C5_4  and  O7_13 
REMARK    2  A    between atoms: C8_10  and  O7_13 
ROOT
HETATM    1  O7    D T 502       5.137  -3.591 -12.293  1.00 50.24    -0.304 OA
ENDROOT
BRANCH   1   2
HETATM    2  C5    D T 502       6.416  -3.795 -12.704  1.00 46.69     0.125 A 
HETATM    3  C6    D T 502       7.007  -2.853 -13.690  1.00 45.87     0.154 A 
HETATM    4  C1    D T 502       8.322  -3.046 -14.098  1.00 45.29     0.041 A 
HETATM    5  O17   D T 502       6.240  -1.846 -14.175  1.00 43.35    -0.188 OA
HETATM    6  C2    D T 502       9.028  -4.132 -13.561  1.00 46.78     0.060 A 
HETATM    7  C3    D T 502       8.487  -5.027 -12.638  1.00 44.62     0.014 A 
HETATM    8 CL14   D T 502      10.712  -4.408 -14.083  1.00 50.36    -0.082 Cl
HETATM    9  C4    D T 502       7.181  -4.847 -12.209  1.00 46.09     0.028 A 
ENDBRANCH   1   2
BRANCH   1  10
HETATM   10  C8    D T 502       4.754  -3.704 -10.995  1.00 57.34     0.111 A 
HETATM   11  C9    D T 502       5.279  -2.744  -9.991  1.00 60.97     0.081 A 
HETATM   12  C10   D T 502       4.909  -2.851  -8.669  1.00 61.34     0.025 A 
HETATM   13 CL16   D T 502       6.419  -1.431 -10.417  1.00 70.84    -0.080 Cl
HETATM   14  C11   D T 502       4.049  -3.855  -8.301  1.00 60.50     0.059 A 
HETATM   15  C12   D T 502       3.536  -4.770  -9.217  1.00 60.51     0.013 A 
HETATM   16 CL15   D T 502       3.623  -3.926  -6.583  1.00 63.55    -0.082 Cl
HETATM   17  C13   D T 502       3.881  -4.701 -10.570  1.00 58.81     0.026 A 
ENDBRANCH   1  10
TORSDOF 2
ENDMDL
MODEL 8
REMARK VINA RESULT:    -5.850     11.730     13.935
REMARK INTER + INTRA:          -6.929
REMARK INTER:                  -6.686
REMARK INTRA:                  -0.243
REMARK UNBOUND:                -0.395
REMARK  2 active torsions:
REMARK  status: ('A' for Active; 'I' for Inactive)
REMARK    1  A    between atoms: C5_4  and  O7_13 
REMARK    2  A    between atoms: C8_10  and  O7_13 
ROOT
HETATM    1  O7    D T 502       5.218  -3.538 -12.196  1.00 50.24    -0.304 OA
ENDROOT
BRANCH   1   2
HETATM    2  C5    D T 502       4.826  -3.638 -10.899  1.00 46.69     0.125 A 
HETATM    3  C6    D T 502       5.291  -2.611  -9.932  1.00 45.87     0.154 A 
HETATM    4  C1    D T 502       4.876  -2.698  -8.608  1.00 45.29     0.041 A 
HETATM    5  O17   D T 502       6.120  -1.630 -10.366  1.00 43.35    -0.188 OA
HETATM    6  C2    D T 502       4.039  -3.764  -8.247  1.00 46.78     0.060 A 
HETATM    7  C3    D T 502       3.596  -4.738  -9.142  1.00 44.62     0.014 A 
HETATM    8 CL14   D T 502       3.507  -3.906  -6.550  1.00 50.36    -0.082 Cl
HETATM    9  C4    D T 502       3.990  -4.664 -10.469  1.00 46.09     0.028 A 
ENDBRANCH   1   2
BRANCH   1  10
HETATM   10  C8    D T 502       6.482  -3.818 -12.607  1.00 57.34     0.111 A 
HETATM   11  C9    D T 502       7.111  -2.981 -13.661  1.00 60.97     0.081 A 
HETATM   12  C10   D T 502       8.388  -3.258 -14.096  1.00 61.34     0.025 A 
HETATM   13 CL16   D T 502       6.265  -1.605 -14.433  1.00 70.84    -0.080 Cl
HETATM   14  C11   D T 502       9.063  -4.314 -13.539  1.00 60.50     0.059 A 
HETATM   15  C12   D T 502       8.505  -5.117 -12.548  1.00 60.51     0.013 A 
HETATM   16 CL15   D T 502      10.699  -4.605 -14.154  1.00 63.55    -0.082 Cl
HETATM   17  C13   D T 502       7.212  -4.874 -12.072  1.00 58.81     0.026 A 
ENDBRANCH   1  10
TORSDOF 2
ENDMDL
MODEL 9
REMARK VINA RESULT:    -5.805     13.549     14.975
REMARK INTER + INTRA:          -6.878
REMARK INTER:                  -6.451
REMARK INTRA:                  -0.428
REMARK UNBOUND:                -0.395
REMARK  2 active torsions:
REMARK  status: ('A' for Active; 'I' for Inactive)
REMARK    1  A    between atoms: C5_4  and  O7_13 
REMARK    2  A    between atoms: C8_10  and  O7_13 
ROOT
HETATM    1  O7    D T 502       7.308  -4.549 -13.263  1.00 50.24    -0.304 OA
ENDROOT
BRANCH   1   2
HETATM    2  C5    D T 502       7.625  -3.451 -13.998  1.00 46.69     0.125 A 
HETATM    3  C6    D T 502       9.045  -3.235 -14.381  1.00 45.87     0.154 A 
HETATM    4  C1    D T 502       9.371  -2.124 -15.150  1.00 45.29     0.041 A 
HETATM    5  O17   D T 502       9.980  -4.118 -13.953  1.00 43.35    -0.188 OA
HETATM    6  C2    D T 502       8.338  -1.252 -15.523  1.00 46.78     0.060 A 
HETATM    7  C3    D T 502       7.001  -1.439 -15.169  1.00 44.62     0.014 A 
HETATM    8 CL14   D T 502       8.735   0.189 -16.496  1.00 50.36    -0.082 Cl
HETATM    9  C4    D T 502       6.652  -2.546 -14.411  1.00 46.09     0.028 A 
ENDBRANCH   1   2
BRANCH   1  10
HETATM   10  C8    D T 502       6.482  -4.500 -12.186  1.00 57.34     0.111 A 
HETATM   11  C9    D T 502       7.026  -4.095 -10.865  1.00 60.97     0.081 A 
HETATM   12  C10   D T 502       6.204  -4.050  -9.760  1.00 61.34     0.025 A 
HETATM   13 CL16   D T 502       8.748  -3.671 -10.619  1.00 70.84    -0.080 Cl
HETATM   14  C11   D T 502       4.882  -4.384  -9.905  1.00 60.50     0.059 A 
HETATM   15  C12   D T 502       4.339  -4.765 -11.128  1.00 60.51     0.013 A 
HETATM   16 CL15   D T 502       3.893  -4.302  -8.437  1.00 63.55    -0.082 Cl
HETATM   17  C13   D T 502       5.133  -4.824 -12.278  1.00 58.81     0.026 A 
ENDBRANCH   1  10
TORSDOF 2
ENDMDL
