MODEL 1
REMARK VINA RESULT:    -7.716      0.000      0.000
REMARK INTER + INTRA:          -9.075
REMARK INTER:                  -8.618
REMARK INTRA:                  -0.457
REMARK UNBOUND:                -0.457
REMARK  2 active torsions:
REMARK  status: ('A' for Active; 'I' for Inactive)
REMARK    1  A    between atoms: C5_4  and  O7_13 
REMARK    2  A    between atoms: C8_10  and  O7_13 
ROOT
HETATM    1  O7    D T 502       6.254   0.844  -7.317  1.00 50.24    -0.304 OA
ENDROOT
BRANCH   1   2
HETATM    2  C5    D T 502       5.480   1.663  -6.558  1.00 46.69     0.125 A 
HETATM    3  C6    D T 502       4.326   1.078  -5.827  1.00 45.87     0.154 A 
HETATM    4  C1    D T 502       3.542   1.907  -5.033  1.00 45.29     0.041 A 
HETATM    5  O17   D T 502       4.060  -0.245  -5.973  1.00 43.35    -0.188 OA
HETATM    6  C2    D T 502       3.878   3.268  -4.967  1.00 46.78     0.060 A 
HETATM    7  C3    D T 502       4.955   3.834  -5.648  1.00 44.62     0.014 A 
HETATM    8 CL14   D T 502       2.878   4.355  -3.967  1.00 50.36    -0.082 Cl
HETATM    9  C4    D T 502       5.756   3.022  -6.438  1.00 46.09     0.028 A 
ENDBRANCH   1   2
BRANCH   1  10
HETATM   10  C8    D T 502       6.672   1.177  -8.565  1.00 57.34     0.111 A 
HETATM   11  C9    D T 502       5.703   1.154  -9.690  1.00 60.97     0.081 A 
HETATM   12  C10   D T 502       6.111   1.480 -10.965  1.00 61.34     0.025 A 
HETATM   13 CL16   D T 502       3.987   0.691  -9.477  1.00 70.84    -0.080 Cl
HETATM   14  C11   D T 502       7.424   1.825 -11.172  1.00 60.50     0.059 A 
HETATM   15  C12   D T 502       8.358   1.860 -10.140  1.00 60.51     0.013 A 
HETATM   16 CL15   D T 502       7.869   2.228 -12.838  1.00 63.55    -0.082 Cl
HETATM   17  C13   D T 502       7.990   1.538  -8.829  1.00 58.81     0.026 A 
ENDBRANCH   1  10
TORSDOF 2
ENDMDL
MODEL 2
REMARK VINA RESULT:    -7.709      1.375      6.053
REMARK INTER + INTRA:          -9.067
REMARK INTER:                  -8.536
REMARK INTRA:                  -0.531
REMARK UNBOUND:                -0.457
REMARK  2 active torsions:
REMARK  status: ('A' for Active; 'I' for Inactive)
REMARK    1  A    between atoms: C5_4  and  O7_13 
REMARK    2  A    between atoms: C8_10  and  O7_13 
ROOT
HETATM    1  O7    D T 502       6.944   1.354  -6.762  1.00 50.24    -0.304 OA
ENDROOT
BRANCH   1   2
HETATM    2  C5    D T 502       7.153   1.505  -8.097  1.00 46.69     0.125 A 
HETATM    3  C6    D T 502       8.404   2.164  -8.553  1.00 45.87     0.154 A 
HETATM    4  C1    D T 502       8.631   2.304  -9.917  1.00 45.29     0.041 A 
HETATM    5  O17   D T 502       9.276   2.628  -7.624  1.00 43.35    -0.188 OA
HETATM    6  C2    D T 502       7.657   1.818 -10.802  1.00 46.78     0.060 A 
HETATM    7  C3    D T 502       6.477   1.199 -10.391  1.00 44.62     0.014 A 
HETATM    8 CL14   D T 502       7.921   2.000 -12.557  1.00 50.36    -0.082 Cl
HETATM    9  C4    D T 502       6.235   1.041  -9.035  1.00 46.09     0.028 A 
ENDBRANCH   1   2
BRANCH   1  10
HETATM   10  C8    D T 502       5.988   2.041  -6.086  1.00 57.34     0.111 A 
HETATM   11  C9    D T 502       4.757   1.337  -5.645  1.00 60.97     0.081 A 
HETATM   12  C10   D T 502       3.772   2.020  -4.965  1.00 61.34     0.025 A 
HETATM   13 CL16   D T 502       4.465  -0.397  -5.978  1.00 70.84    -0.080 Cl
HETATM   14  C11   D T 502       3.953   3.356  -4.705  1.00 60.50     0.059 A 
HETATM   15  C12   D T 502       5.096   4.046  -5.101  1.00 60.51     0.013 A 
HETATM   16 CL15   D T 502       2.641   4.162  -3.828  1.00 63.55    -0.082 Cl
HETATM   17  C13   D T 502       6.122   3.394  -5.792  1.00 58.81     0.026 A 
ENDBRANCH   1  10
TORSDOF 2
ENDMDL
MODEL 3
REMARK VINA RESULT:    -7.457      1.207      5.809
REMARK INTER + INTRA:          -8.786
REMARK INTER:                  -8.479
REMARK INTRA:                  -0.307
REMARK UNBOUND:                -0.457
REMARK  2 active torsions:
REMARK  status: ('A' for Active; 'I' for Inactive)
REMARK    1  A    between atoms: C5_4  and  O7_13 
REMARK    2  A    between atoms: C8_10  and  O7_13 
ROOT
HETATM    1  O7    D T 502       6.497   1.038  -7.154  1.00 50.24    -0.304 OA
ENDROOT
BRANCH   1   2
HETATM    2  C5    D T 502       6.844   1.304  -8.441  1.00 46.69     0.125 A 
HETATM    3  C6    D T 502       5.836   1.086  -9.510  1.00 45.87     0.154 A 
HETATM    4  C1    D T 502       6.180   1.375 -10.826  1.00 45.29     0.041 A 
HETATM    5  O17   D T 502       4.618   0.594  -9.173  1.00 43.35    -0.188 OA
HETATM    6  C2    D T 502       7.473   1.854 -11.081  1.00 46.78     0.060 A 
HETATM    7  C3    D T 502       8.432   2.062 -10.089  1.00 44.62     0.014 A 
HETATM    8 CL14   D T 502       7.942   2.217 -12.764  1.00 50.36    -0.082 Cl
HETATM    9  C4    D T 502       8.106   1.789  -8.769  1.00 46.09     0.028 A 
ENDBRANCH   1   2
BRANCH   1  10
HETATM   10  C8    D T 502       5.684   1.849  -6.429  1.00 57.34     0.111 A 
HETATM   11  C9    D T 502       4.515   1.267  -5.720  1.00 60.97     0.081 A 
HETATM   12  C10   D T 502       3.674   2.076  -4.988  1.00 61.34     0.025 A 
HETATM   13 CL16   D T 502       4.117  -0.477  -5.786  1.00 70.84    -0.080 Cl
HETATM   14  C11   D T 502       3.938   3.422  -4.927  1.00 60.50     0.059 A 
HETATM   15  C12   D T 502       5.025   4.000  -5.577  1.00 60.51     0.013 A 
HETATM   16 CL15   D T 502       2.808   4.393  -3.967  1.00 63.55    -0.082 Cl
HETATM   17  C13   D T 502       5.907   3.219  -6.330  1.00 58.81     0.026 A 
ENDBRANCH   1  10
TORSDOF 2
ENDMDL
MODEL 4
REMARK VINA RESULT:    -7.347      2.450      3.023
REMARK INTER + INTRA:          -8.662
REMARK INTER:                  -8.232
REMARK INTRA:                  -0.431
REMARK UNBOUND:                -0.457
REMARK  2 active torsions:
REMARK  status: ('A' for Active; 'I' for Inactive)
REMARK    1  A    between atoms: C5_4  and  O7_13 
REMARK    2  A    between atoms: C8_10  and  O7_13 
ROOT
HETATM    1  O7    D T 502       5.088   3.536  -7.154  1.00 50.24    -0.304 OA
ENDROOT
BRANCH   1   2
HETATM    2  C5    D T 502       4.688   2.716  -6.147  1.00 46.69     0.125 A 
HETATM    3  C6    D T 502       4.780   3.209  -4.748  1.00 45.87     0.154 A 
HETATM    4  C1    D T 502       4.353   2.382  -3.715  1.00 45.29     0.041 A 
HETATM    5  O17   D T 502       5.295   4.443  -4.520  1.00 43.35    -0.188 OA
HETATM    6  C2    D T 502       3.860   1.111  -4.047  1.00 46.78     0.060 A 
HETATM    7  C3    D T 502       3.770   0.633  -5.353  1.00 44.62     0.014 A 
HETATM    8 CL14   D T 502       3.322   0.027  -2.737  1.00 50.36    -0.082 Cl
HETATM    9  C4    D T 502       4.181   1.445  -6.399  1.00 46.09     0.028 A 
ENDBRANCH   1   2
BRANCH   1  10
HETATM   10  C8    D T 502       5.754   3.085  -8.248  1.00 57.34     0.111 A 
HETATM   11  C9    D T 502       7.190   2.724  -8.131  1.00 60.97     0.081 A 
HETATM   12  C10   D T 502       7.885   2.273  -9.232  1.00 61.34     0.025 A 
HETATM   13 CL16   D T 502       8.100   2.869  -6.595  1.00 70.84    -0.080 Cl
HETATM   14  C11   D T 502       7.226   2.165 -10.431  1.00 60.50     0.059 A 
HETATM   15  C12   D T 502       5.880   2.491 -10.576  1.00 60.51     0.013 A 
HETATM   16 CL15   D T 502       8.189   1.580 -11.798  1.00 63.55    -0.082 Cl
HETATM   17  C13   D T 502       5.134   2.952  -9.486  1.00 58.81     0.026 A 
ENDBRANCH   1  10
TORSDOF 2
ENDMDL
MODEL 5
REMARK VINA RESULT:    -7.330      2.075      6.126
REMARK INTER + INTRA:          -8.644
REMARK INTER:                  -8.207
REMARK INTRA:                  -0.437
REMARK UNBOUND:                -0.457
REMARK  2 active torsions:
REMARK  status: ('A' for Active; 'I' for Inactive)
REMARK    1  A    between atoms: C5_4  and  O7_13 
REMARK    2  A    between atoms: C8_10  and  O7_13 
ROOT
HETATM    1  O7    D T 502       6.528   3.400  -6.877  1.00 50.24    -0.304 OA
ENDROOT
BRANCH   1   2
HETATM    2  C5    D T 502       6.760   3.095  -8.181  1.00 46.69     0.125 A 
HETATM    3  C6    D T 502       8.102   2.590  -8.567  1.00 45.87     0.154 A 
HETATM    4  C1    D T 502       8.339   2.259  -9.897  1.00 45.29     0.041 A 
HETATM    5  O17   D T 502       9.063   2.487  -7.615  1.00 43.35    -0.188 OA
HETATM    6  C2    D T 502       7.292   2.426 -10.815  1.00 46.78     0.060 A 
HETATM    7  C3    D T 502       6.027   2.901 -10.470  1.00 44.62     0.014 A 
HETATM    8 CL14   D T 502       7.576   2.021 -12.529  1.00 50.36    -0.082 Cl
HETATM    9  C4    D T 502       5.767   3.228  -9.148  1.00 46.09     0.028 A 
ENDBRANCH   1   2
BRANCH   1  10
HETATM   10  C8    D T 502       5.868   2.565  -6.033  1.00 57.34     0.111 A 
HETATM   11  C9    D T 502       4.697   3.072  -5.272  1.00 60.97     0.081 A 
HETATM   12  C10   D T 502       4.021   2.243  -4.405  1.00 61.34     0.025 A 
HETATM   13 CL16   D T 502       4.114   4.759  -5.410  1.00 70.84    -0.080 Cl
HETATM   14  C11   D T 502       4.449   0.946  -4.260  1.00 60.50     0.059 A 
HETATM   15  C12   D T 502       5.540   0.438  -4.959  1.00 60.51     0.013 A 
HETATM   16 CL15   D T 502       3.528  -0.055  -3.125  1.00 63.55    -0.082 Cl
HETATM   17  C13   D T 502       6.257   1.242  -5.852  1.00 58.81     0.026 A 
ENDBRANCH   1  10
TORSDOF 2
ENDMDL
MODEL 6
REMARK VINA RESULT:    -7.277      2.229      6.185
REMARK INTER + INTRA:          -8.585
REMARK INTER:                  -8.096
REMARK INTRA:                  -0.490
REMARK UNBOUND:                -0.457
REMARK  2 active torsions:
REMARK  status: ('A' for Active; 'I' for Inactive)
REMARK    1  A    between atoms: C5_4  and  O7_13 
REMARK    2  A    between atoms: C8_10  and  O7_13 
ROOT
HETATM    1  O7    D T 502       4.256   2.164  -7.197  1.00 50.24    -0.304 OA
ENDROOT
BRANCH   1   2
HETATM    2  C5    D T 502       5.194   1.919  -8.150  1.00 46.69     0.125 A 
HETATM    3  C6    D T 502       5.514   2.991  -9.127  1.00 45.87     0.154 A 
HETATM    4  C1    D T 502       6.487   2.753 -10.092  1.00 45.29     0.041 A 
HETATM    5  O17   D T 502       4.835   4.163  -9.060  1.00 43.35    -0.188 OA
HETATM    6  C2    D T 502       7.116   1.499 -10.099  1.00 46.78     0.060 A 
HETATM    7  C3    D T 502       6.825   0.481  -9.191  1.00 44.62     0.014 A 
HETATM    8 CL14   D T 502       8.356   1.165 -11.337  1.00 50.36    -0.082 Cl
HETATM    9  C4    D T 502       5.866   0.701  -8.215  1.00 46.09     0.028 A 
ENDBRANCH   1   2
BRANCH   1  10
HETATM   10  C8    D T 502       4.575   2.519  -5.926  1.00 57.34     0.111 A 
HETATM   11  C9    D T 502       4.540   1.494  -4.851  1.00 60.97     0.081 A 
HETATM   12  C10   D T 502       4.852   1.838  -3.554  1.00 61.34     0.025 A 
HETATM   13 CL16   D T 502       4.081  -0.209  -5.155  1.00 70.84    -0.080 Cl
HETATM   14  C11   D T 502       5.194   3.139  -3.278  1.00 60.50     0.059 A 
HETATM   15  C12   D T 502       5.239   4.124  -4.261  1.00 60.51     0.013 A 
HETATM   16 CL15   D T 502       5.578   3.500  -1.587  1.00 63.55    -0.082 Cl
HETATM   17  C13   D T 502       4.932   3.821  -5.592  1.00 58.81     0.026 A 
ENDBRANCH   1  10
TORSDOF 2
ENDMDL
MODEL 7
REMARK VINA RESULT:    -7.121      2.428      6.150
REMARK INTER + INTRA:          -8.410
REMARK INTER:                  -8.193
REMARK INTRA:                  -0.217
REMARK UNBOUND:                -0.457
REMARK  2 active torsions:
REMARK  status: ('A' for Active; 'I' for Inactive)
REMARK    1  A    between atoms: C5_4  and  O7_13 
REMARK    2  A    between atoms: C8_10  and  O7_13 
ROOT
HETATM    1  O7    D T 502       6.924   3.310  -7.180  1.00 50.24    -0.304 OA
ENDROOT
BRANCH   1   2
HETATM    2  C5    D T 502       7.125   2.976  -8.482  1.00 46.69     0.125 A 
HETATM    3  C6    D T 502       6.152   3.453  -9.499  1.00 45.87     0.154 A 
HETATM    4  C1    D T 502       6.363   3.131 -10.834  1.00 45.29     0.041 A 
HETATM    5  O17   D T 502       5.076   4.172  -9.090  1.00 43.35    -0.188 OA
HETATM    6  C2    D T 502       7.489   2.359 -11.158  1.00 46.78     0.060 A 
HETATM    7  C3    D T 502       8.410   1.901 -10.216  1.00 44.62     0.014 A 
HETATM    8 CL14   D T 502       7.772   1.920 -12.863  1.00 50.36    -0.082 Cl
HETATM    9  C4    D T 502       8.223   2.219  -8.879  1.00 46.09     0.028 A 
ENDBRANCH   1   2
BRANCH   1  10
HETATM   10  C8    D T 502       6.153   2.571  -6.342  1.00 57.34     0.111 A 
HETATM   11  C9    D T 502       6.773   1.477  -5.553  1.00 60.97     0.081 A 
HETATM   12  C10   D T 502       6.005   0.710  -4.705  1.00 61.34     0.025 A 
HETATM   13 CL16   D T 502       8.514   1.073  -5.665  1.00 70.84    -0.080 Cl
HETATM   14  C11   D T 502       4.662   0.979  -4.604  1.00 60.50     0.059 A 
HETATM   15  C12   D T 502       4.049   1.999  -5.326  1.00 60.51     0.013 A 
HETATM   16 CL15   D T 502       3.744  -0.052  -3.494  1.00 63.55    -0.082 Cl
HETATM   17  C13   D T 502       4.789   2.804  -6.199  1.00 58.81     0.026 A 
ENDBRANCH   1  10
TORSDOF 2
ENDMDL
MODEL 8
REMARK VINA RESULT:    -6.955      2.494      3.067
REMARK INTER + INTRA:          -8.225
REMARK INTER:                  -7.699
REMARK INTRA:                  -0.526
REMARK UNBOUND:                -0.457
REMARK  2 active torsions:
REMARK  status: ('A' for Active; 'I' for Inactive)
REMARK    1  A    between atoms: C5_4  and  O7_13 
REMARK    2  A    between atoms: C8_10  and  O7_13 
ROOT
HETATM    1  O7    D T 502       4.129   2.359  -6.198  1.00 50.24    -0.304 OA
ENDROOT
BRANCH   1   2
HETATM    2  C5    D T 502       4.554   2.770  -4.974  1.00 46.69     0.125 A 
HETATM    3  C6    D T 502       4.335   4.186  -4.582  1.00 45.87     0.154 A 
HETATM    4  C1    D T 502       4.750   4.607  -3.324  1.00 45.29     0.041 A 
HETATM    5  O17   D T 502       3.754   5.030  -5.471  1.00 43.35    -0.188 OA
HETATM    6  C2    D T 502       5.367   3.668  -2.484  1.00 46.78     0.060 A 
HETATM    7  C3    D T 502       5.583   2.336  -2.837  1.00 44.62     0.014 A 
HETATM    8 CL14   D T 502       5.922   4.188  -0.870  1.00 50.36    -0.082 Cl
HETATM    9  C4    D T 502       5.168   1.893  -4.084  1.00 46.09     0.028 A 
ENDBRANCH   1   2
BRANCH   1  10
HETATM   10  C8    D T 502       4.979   2.120  -7.230  1.00 57.34     0.111 A 
HETATM   11  C9    D T 502       5.269   0.719  -7.628  1.00 60.97     0.081 A 
HETATM   12  C10   D T 502       6.135   0.458  -8.666  1.00 61.34     0.025 A 
HETATM   13 CL16   D T 502       4.547  -0.690  -6.793  1.00 70.84    -0.080 Cl
HETATM   14  C11   D T 502       6.721   1.513  -9.321  1.00 60.50     0.059 A 
HETATM   15  C12   D T 502       6.470   2.838  -8.975  1.00 60.51     0.013 A 
HETATM   16 CL15   D T 502       7.824   1.093 -10.642  1.00 63.55    -0.082 Cl
HETATM   17  C13   D T 502       5.596   3.152  -7.930  1.00 58.81     0.026 A 
ENDBRANCH   1  10
TORSDOF 2
ENDMDL
MODEL 9
REMARK VINA RESULT:    -6.795      2.107      6.209
REMARK INTER + INTRA:          -8.046
REMARK INTER:                  -7.525
REMARK INTRA:                  -0.521
REMARK UNBOUND:                -0.457
REMARK  2 active torsions:
REMARK  status: ('A' for Active; 'I' for Inactive)
REMARK    1  A    between atoms: C5_4  and  O7_13 
REMARK    2  A    between atoms: C8_10  and  O7_13 
ROOT
HETATM    1  O7    D T 502       4.150   2.301  -6.113  1.00 50.24    -0.304 OA
ENDROOT
BRANCH   1   2
HETATM    2  C5    D T 502       5.002   2.058  -7.143  1.00 46.69     0.125 A 
HETATM    3  C6    D T 502       5.293   0.648  -7.509  1.00 45.87     0.154 A 
HETATM    4  C1    D T 502       6.149   0.394  -8.575  1.00 45.29     0.041 A 
HETATM    5  O17   D T 502       4.732  -0.349  -6.780  1.00 43.35    -0.188 OA
HETATM    6  C2    D T 502       6.704   1.490  -9.252  1.00 46.78     0.060 A 
HETATM    7  C3    D T 502       6.443   2.819  -8.920  1.00 44.62     0.014 A 
HETATM    8 CL14   D T 502       7.817   1.188 -10.614  1.00 50.36    -0.082 Cl
HETATM    9  C4    D T 502       5.585   3.094  -7.866  1.00 46.09     0.028 A 
ENDBRANCH   1   2
BRANCH   1  10
HETATM   10  C8    D T 502       4.574   2.701  -4.887  1.00 57.34     0.111 A 
HETATM   11  C9    D T 502       4.407   4.121  -4.484  1.00 60.97     0.081 A 
HETATM   12  C10   D T 502       4.840   4.547  -3.247  1.00 61.34     0.025 A 
HETATM   13 CL16   D T 502       3.671   5.349  -5.558  1.00 70.84    -0.080 Cl
HETATM   14  C11   D T 502       5.425   3.638  -2.401  1.00 60.50     0.059 A 
HETATM   15  C12   D T 502       5.595   2.300  -2.746  1.00 60.51     0.013 A 
HETATM   16 CL15   D T 502       5.956   4.265  -0.832  1.00 63.55    -0.082 Cl
HETATM   17  C13   D T 502       5.169   1.820  -3.989  1.00 58.81     0.026 A 
ENDBRANCH   1  10
TORSDOF 2
ENDMDL
