MODEL 1
REMARK VINA RESULT:      -8.0      0.000      0.000
REMARK  2 active torsions:
REMARK  status: ('A' for Active; 'I' for Inactive)
REMARK    1  A    between atoms: C5_4  and  O7_13 
REMARK    2  A    between atoms: C8_10  and  O7_13 
ROOT
HETATM    1  O7    D T 502      32.430  42.084 102.139  1.00 50.24    -0.304 OA
ENDROOT
BRANCH   1   2
HETATM    2  C5    D T 502      33.471  41.953 103.004  1.00 46.69     0.125 A 
HETATM    3  C6    D T 502      34.809  42.445 102.587  1.00 45.87     0.154 A 
HETATM    4  C1    D T 502      35.873  42.331 103.474  1.00 45.29     0.041 A 
HETATM    5  O17   D T 502      34.957  42.973 101.347  1.00 43.35    -0.188 OA
HETATM    6  C2    D T 502      35.630  41.746 104.726  1.00 46.78     0.060 A 
HETATM    7  C3    D T 502      34.380  41.277 105.131  1.00 44.62     0.014 A 
HETATM    8 CL14   D T 502      36.983  41.575 105.876  1.00 50.36    -0.082 Cl
HETATM    9  C4    D T 502      33.303  41.390 104.265  1.00 46.09     0.028 A 
ENDBRANCH   1   2
BRANCH   1  10
HETATM   10  C8    D T 502      31.741  41.021 101.651  1.00 57.34     0.111 A 
HETATM   11  C9    D T 502      30.325  41.195 101.238  1.00 60.97     0.081 A 
HETATM   12  C10   D T 502      29.609  40.124 100.749  1.00 61.34     0.025 A 
HETATM   13 CL16   D T 502      29.467  42.761 101.367  1.00 70.84    -0.080 Cl
HETATM   14  C11   D T 502      30.227  38.903 100.650  1.00 60.50     0.059 A 
HETATM   15  C12   D T 502      31.553  38.706 101.025  1.00 60.51     0.013 A 
HETATM   16 CL15   D T 502      29.238  37.578 100.014  1.00 63.55    -0.082 Cl
HETATM   17  C13   D T 502      32.321  39.762 101.525  1.00 58.81     0.026 A 
ENDBRANCH   1  10
TORSDOF 2
ENDMDL
MODEL 2
REMARK VINA RESULT:      -8.0     10.947     12.724
REMARK  2 active torsions:
REMARK  status: ('A' for Active; 'I' for Inactive)
REMARK    1  A    between atoms: C5_4  and  O7_13 
REMARK    2  A    between atoms: C8_10  and  O7_13 
ROOT
HETATM    1  O7    D T 502      40.842  41.562  94.084  1.00 50.24    -0.304 OA
ENDROOT
BRANCH   1   2
HETATM    2  C5    D T 502      40.314  42.421  94.996  1.00 46.69     0.125 A 
HETATM    3  C6    D T 502      39.328  43.431  94.536  1.00 45.87     0.154 A 
HETATM    4  C1    D T 502      38.770  44.299  95.468  1.00 45.29     0.041 A 
HETATM    5  O17   D T 502      39.014  43.489  93.218  1.00 43.35    -0.188 OA
HETATM    6  C2    D T 502      39.176  44.181  96.806  1.00 46.78     0.060 A 
HETATM    7  C3    D T 502      40.103  43.240  97.253  1.00 44.62     0.014 A 
HETATM    8 CL14   D T 502      38.486  45.294  98.018  1.00 50.36    -0.082 Cl
HETATM    9  C4    D T 502      40.664  42.358  96.341  1.00 46.09     0.028 A 
ENDBRANCH   1   2
BRANCH   1  10
HETATM   10  C8    D T 502      42.168  41.277  94.024  1.00 57.34     0.111 A 
HETATM   11  C9    D T 502      43.134  42.358  93.700  1.00 60.97     0.081 A 
HETATM   12  C10   D T 502      44.482  42.084  93.626  1.00 61.34     0.025 A 
HETATM   13 CL16   D T 502      42.624  44.041  93.371  1.00 70.84    -0.080 Cl
HETATM   14  C11   D T 502      44.911  40.800  93.856  1.00 60.50     0.059 A 
HETATM   15  C12   D T 502      44.034  39.765  94.165  1.00 60.51     0.013 A 
HETATM   16 CL15   D T 502      46.658  40.530  93.739  1.00 63.55    -0.082 Cl
HETATM   17  C13   D T 502      42.657  39.994  94.253  1.00 58.81     0.026 A 
ENDBRANCH   1  10
TORSDOF 2
ENDMDL
MODEL 3
REMARK VINA RESULT:      -8.0      1.477      2.101
REMARK  2 active torsions:
REMARK  status: ('A' for Active; 'I' for Inactive)
REMARK    1  A    between atoms: C5_4  and  O7_13 
REMARK    2  A    between atoms: C8_10  and  O7_13 
ROOT
HETATM    1  O7    D T 502      32.376  42.163 102.287  1.00 50.24    -0.304 OA
ENDROOT
BRANCH   1   2
HETATM    2  C5    D T 502      33.717  42.386 102.255  1.00 46.69     0.125 A 
HETATM    3  C6    D T 502      34.473  42.365 103.533  1.00 45.87     0.154 A 
HETATM    4  C1    D T 502      35.847  42.575 103.504  1.00 45.29     0.041 A 
HETATM    5  O17   D T 502      33.799  42.162 104.691  1.00 43.35    -0.188 OA
HETATM    6  C2    D T 502      36.454  42.804 102.260  1.00 46.78     0.060 A 
HETATM    7  C3    D T 502      35.758  42.830 101.052  1.00 44.62     0.014 A 
HETATM    8 CL14   D T 502      38.214  43.090 102.198  1.00 50.36    -0.082 Cl
HETATM    9  C4    D T 502      34.388  42.614 101.058  1.00 46.09     0.028 A 
ENDBRANCH   1   2
BRANCH   1  10
HETATM   10  C8    D T 502      31.806  41.036 101.789  1.00 57.34     0.111 A 
HETATM   11  C9    D T 502      30.440  41.104 101.209  1.00 60.97     0.081 A 
HETATM   12  C10   D T 502      29.842  39.968 100.708  1.00 61.34     0.025 A 
HETATM   13 CL16   D T 502      29.492  42.620 101.146  1.00 70.84    -0.080 Cl
HETATM   14  C11   D T 502      30.531  38.782 100.753  1.00 60.50     0.059 A 
HETATM   15  C12   D T 502      31.814  38.684 101.286  1.00 60.51     0.013 A 
HETATM   16 CL15   D T 502      29.694  37.368 100.091  1.00 63.55    -0.082 Cl
HETATM   17  C13   D T 502      32.462  39.809 101.806  1.00 58.81     0.026 A 
ENDBRANCH   1  10
TORSDOF 2
ENDMDL
MODEL 4
REMARK VINA RESULT:      -7.7     10.650     11.975
REMARK  2 active torsions:
REMARK  status: ('A' for Active; 'I' for Inactive)
REMARK    1  A    between atoms: C5_4  and  O7_13 
REMARK    2  A    between atoms: C8_10  and  O7_13 
ROOT
HETATM    1  O7    D T 502      40.534  42.364  93.560  1.00 50.24    -0.304 OA
ENDROOT
BRANCH   1   2
HETATM    2  C5    D T 502      41.824  41.940  93.624  1.00 46.69     0.125 A 
HETATM    3  C6    D T 502      42.911  42.948  93.531  1.00 45.87     0.154 A 
HETATM    4  C1    D T 502      44.232  42.522  93.616  1.00 45.29     0.041 A 
HETATM    5  O17   D T 502      42.583  44.251  93.349  1.00 43.35    -0.188 OA
HETATM    6  C2    D T 502      44.474  41.149  93.777  1.00 46.78     0.060 A 
HETATM    7  C3    D T 502      43.465  40.190  93.863  1.00 44.62     0.014 A 
HETATM    8 CL14   D T 502      46.161  40.577  93.873  1.00 50.36    -0.082 Cl
HETATM    9  C4    D T 502      42.140  40.596  93.791  1.00 46.09     0.028 A 
ENDBRANCH   1   2
BRANCH   1  10
HETATM   10  C8    D T 502      39.791  42.630  94.664  1.00 57.34     0.111 A 
HETATM   11  C9    D T 502      38.917  41.569  95.229  1.00 60.97     0.081 A 
HETATM   12  C10   D T 502      38.149  41.825  96.344  1.00 61.34     0.025 A 
HETATM   13 CL16   D T 502      38.788  39.938  94.505  1.00 70.84    -0.080 Cl
HETATM   14  C11   D T 502      38.209  43.070  96.919  1.00 60.50     0.059 A 
HETATM   15  C12   D T 502      39.019  44.084  96.418  1.00 60.51     0.013 A 
HETATM   16 CL15   D T 502      37.190  43.318  98.347  1.00 63.55    -0.082 Cl
HETATM   17  C13   D T 502      39.818  43.873  95.289  1.00 58.81     0.026 A 
ENDBRANCH   1  10
TORSDOF 2
ENDMDL
MODEL 5
REMARK VINA RESULT:      -7.7     10.792     12.345
REMARK  2 active torsions:
REMARK  status: ('A' for Active; 'I' for Inactive)
REMARK    1  A    between atoms: C5_4  and  O7_13 
REMARK    2  A    between atoms: C8_10  and  O7_13 
ROOT
HETATM    1  O7    D T 502      41.164  41.799  94.365  1.00 50.24    -0.304 OA
ENDROOT
BRANCH   1   2
HETATM    2  C5    D T 502      42.468  41.457  94.189  1.00 46.69     0.125 A 
HETATM    3  C6    D T 502      43.468  42.538  93.996  1.00 45.87     0.154 A 
HETATM    4  C1    D T 502      44.806  42.194  93.835  1.00 45.29     0.041 A 
HETATM    5  O17   D T 502      43.045  43.825  93.966  1.00 43.35    -0.188 OA
HETATM    6  C2    D T 502      45.145  40.833  93.853  1.00 46.78     0.060 A 
HETATM    7  C3    D T 502      44.217  39.806  94.029  1.00 44.62     0.014 A 
HETATM    8 CL14   D T 502      46.853  40.366  93.632  1.00 50.36    -0.082 Cl
HETATM    9  C4    D T 502      42.879  40.128  94.203  1.00 46.09     0.028 A 
ENDBRANCH   1   2
BRANCH   1  10
HETATM   10  C8    D T 502      40.667  42.214  95.558  1.00 57.34     0.111 A 
HETATM   11  C9    D T 502      39.991  43.533  95.649  1.00 60.97     0.081 A 
HETATM   12  C10   D T 502      39.489  43.975  96.854  1.00 61.34     0.025 A 
HETATM   13 CL16   D T 502      39.807  44.623  94.240  1.00 70.84    -0.080 Cl
HETATM   14  C11   D T 502      39.625  43.174  97.960  1.00 60.50     0.059 A 
HETATM   15  C12   D T 502      40.250  41.931  97.910  1.00 60.51     0.013 A 
HETATM   16 CL15   D T 502      38.956  43.814  99.471  1.00 63.55    -0.082 Cl
HETATM   17  C13   D T 502      40.773  41.440  96.710  1.00 58.81     0.026 A 
ENDBRANCH   1  10
TORSDOF 2
ENDMDL
MODEL 6
REMARK VINA RESULT:      -7.5     10.432     12.280
REMARK  2 active torsions:
REMARK  status: ('A' for Active; 'I' for Inactive)
REMARK    1  A    between atoms: C5_4  and  O7_13 
REMARK    2  A    between atoms: C8_10  and  O7_13 
ROOT
HETATM    1  O7    D T 502      40.962  41.743  94.701  1.00 50.24    -0.304 OA
ENDROOT
BRANCH   1   2
HETATM    2  C5    D T 502      40.492  42.136  95.915  1.00 46.69     0.125 A 
HETATM    3  C6    D T 502      39.449  41.311  96.576  1.00 45.87     0.154 A 
HETATM    4  C1    D T 502      38.980  41.698  97.827  1.00 45.29     0.041 A 
HETATM    5  O17   D T 502      38.973  40.216  95.934  1.00 43.35    -0.188 OA
HETATM    6  C2    D T 502      39.513  42.862  98.401  1.00 46.78     0.060 A 
HETATM    7  C3    D T 502      40.490  43.648  97.792  1.00 44.62     0.014 A 
HETATM    8 CL14   D T 502      38.915  43.386  99.998  1.00 50.36    -0.082 Cl
HETATM    9  C4    D T 502      40.979  43.274  96.549  1.00 46.09     0.028 A 
ENDBRANCH   1   2
BRANCH   1  10
HETATM   10  C8    D T 502      42.255  41.385  94.493  1.00 57.34     0.111 A 
HETATM   11  C9    D T 502      43.205  42.377  93.926  1.00 60.97     0.081 A 
HETATM   12  C10   D T 502      44.518  42.028  93.699  1.00 61.34     0.025 A 
HETATM   13 CL16   D T 502      42.715  44.042  93.487  1.00 70.84    -0.080 Cl
HETATM   14  C11   D T 502      44.928  40.754  94.007  1.00 60.50     0.059 A 
HETATM   15  C12   D T 502      44.065  39.802  94.543  1.00 60.51     0.013 A 
HETATM   16 CL15   D T 502      46.630  40.384  93.684  1.00 63.55    -0.082 Cl
HETATM   17  C13   D T 502      42.724  40.110  94.792  1.00 58.81     0.026 A 
ENDBRANCH   1  10
TORSDOF 2
ENDMDL
MODEL 7
REMARK VINA RESULT:      -7.5      9.684     11.229
REMARK  2 active torsions:
REMARK  status: ('A' for Active; 'I' for Inactive)
REMARK    1  A    between atoms: C5_4  and  O7_13 
REMARK    2  A    between atoms: C8_10  and  O7_13 
ROOT
HETATM    1  O7    D T 502      39.486  42.881  94.483  1.00 50.24    -0.304 OA
ENDROOT
BRANCH   1   2
HETATM    2  C5    D T 502      40.619  42.152  94.304  1.00 46.69     0.125 A 
HETATM    3  C6    D T 502      41.805  42.814  93.701  1.00 45.87     0.154 A 
HETATM    4  C1    D T 502      42.972  42.077  93.533  1.00 45.29     0.041 A 
HETATM    5  O17   D T 502      41.707  44.110  93.316  1.00 43.35    -0.188 OA
HETATM    6  C2    D T 502      42.970  40.734  93.937  1.00 46.78     0.060 A 
HETATM    7  C3    D T 502      41.864  40.097  94.501  1.00 44.62     0.014 A 
HETATM    8 CL14   D T 502      44.451  39.765  93.717  1.00 50.36    -0.082 Cl
HETATM    9  C4    D T 502      40.693  40.817  94.687  1.00 46.09     0.028 A 
ENDBRANCH   1   2
BRANCH   1  10
HETATM   10  C8    D T 502      39.163  43.459  95.668  1.00 57.34     0.111 A 
HETATM   11  C9    D T 502      37.749  43.824  95.942  1.00 60.97     0.081 A 
HETATM   12  C10   D T 502      37.405  44.420  97.135  1.00 61.34     0.025 A 
HETATM   13 CL16   D T 502      36.434  43.545  94.760  1.00 70.84    -0.080 Cl
HETATM   14  C11   D T 502      38.389  44.666  98.060  1.00 60.50     0.059 A 
HETATM   15  C12   D T 502      39.722  44.333  97.839  1.00 60.51     0.013 A 
HETATM   16 CL15   D T 502      37.865  45.436  99.568  1.00 63.55    -0.082 Cl
HETATM   17  C13   D T 502      40.119  43.726  96.643  1.00 58.81     0.026 A 
ENDBRANCH   1  10
TORSDOF 2
ENDMDL
MODEL 8
REMARK VINA RESULT:      -7.5     10.313     12.171
REMARK  2 active torsions:
REMARK  status: ('A' for Active; 'I' for Inactive)
REMARK    1  A    between atoms: C5_4  and  O7_13 
REMARK    2  A    between atoms: C8_10  and  O7_13 
ROOT
HETATM    1  O7    D T 502      40.437  41.798  94.515  1.00 50.24    -0.304 OA
ENDROOT
BRANCH   1   2
HETATM    2  C5    D T 502      39.969  42.639  95.475  1.00 46.69     0.125 A 
HETATM    3  C6    D T 502      38.808  43.509  95.157  1.00 45.87     0.154 A 
HETATM    4  C1    D T 502      38.314  44.356  96.143  1.00 45.29     0.041 A 
HETATM    5  O17   D T 502      38.277  43.465  93.911  1.00 43.35    -0.188 OA
HETATM    6  C2    D T 502      38.947  44.353  97.395  1.00 46.78     0.060 A 
HETATM    7  C3    D T 502      40.039  43.544  97.708  1.00 44.62     0.014 A 
HETATM    8 CL14   D T 502      38.340  45.443  98.671  1.00 50.36    -0.082 Cl
HETATM    9  C4    D T 502      40.541  42.684  96.743  1.00 46.09     0.028 A 
ENDBRANCH   1   2
BRANCH   1  10
HETATM   10  C8    D T 502      41.760  41.563  94.324  1.00 57.34     0.111 A 
HETATM   11  C9    D T 502      42.325  40.237  94.685  1.00 60.97     0.081 A 
HETATM   12  C10   D T 502      43.668  39.984  94.507  1.00 61.34     0.025 A 
HETATM   13 CL16   D T 502      41.332  38.921  95.381  1.00 70.84    -0.080 Cl
HETATM   14  C11   D T 502      44.466  40.975  93.991  1.00 60.50     0.059 A 
HETATM   15  C12   D T 502      43.968  42.226  93.638  1.00 60.51     0.013 A 
HETATM   16 CL15   D T 502      46.180  40.572  93.794  1.00 63.55    -0.082 Cl
HETATM   17  C13   D T 502      42.612  42.529  93.800  1.00 58.81     0.026 A 
ENDBRANCH   1  10
TORSDOF 2
ENDMDL
MODEL 9
REMARK VINA RESULT:      -7.4     10.178     11.040
REMARK  2 active torsions:
REMARK  status: ('A' for Active; 'I' for Inactive)
REMARK    1  A    between atoms: C5_4  and  O7_13 
REMARK    2  A    between atoms: C8_10  and  O7_13 
ROOT
HETATM    1  O7    D T 502      40.146  40.034  95.819  1.00 50.24    -0.304 OA
ENDROOT
BRANCH   1   2
HETATM    2  C5    D T 502      41.421  40.225  95.388  1.00 46.69     0.125 A 
HETATM    3  C6    D T 502      41.637  40.775  94.025  1.00 45.87     0.154 A 
HETATM    4  C1    D T 502      42.939  40.990  93.587  1.00 45.29     0.041 A 
HETATM    5  O17   D T 502      40.560  41.034  93.243  1.00 43.35    -0.188 OA
HETATM    6  C2    D T 502      43.991  40.667  94.456  1.00 46.78     0.060 A 
HETATM    7  C3    D T 502      43.804  40.147  95.737  1.00 44.62     0.014 A 
HETATM    8 CL14   D T 502      45.670  40.920  93.910  1.00 50.36    -0.082 Cl
HETATM    9  C4    D T 502      42.514  39.934  96.198  1.00 46.09     0.028 A 
ENDBRANCH   1   2
BRANCH   1  10
HETATM   10  C8    D T 502      39.631  38.804  96.072  1.00 57.34     0.111 A 
HETATM   11  C9    D T 502      38.458  38.674  96.974  1.00 60.97     0.081 A 
HETATM   12  C10   D T 502      37.929  37.431  97.249  1.00 61.34     0.025 A 
HETATM   13 CL16   D T 502      37.687  40.083  97.763  1.00 70.84    -0.080 Cl
HETATM   14  C11   D T 502      38.503  36.325  96.675  1.00 60.50     0.059 A 
HETATM   15  C12   D T 502      39.600  36.411  95.823  1.00 60.51     0.013 A 
HETATM   16 CL15   D T 502      37.766  34.766  97.080  1.00 63.55    -0.082 Cl
HETATM   17  C13   D T 502      40.172  37.650  95.513  1.00 58.81     0.026 A 
ENDBRANCH   1  10
TORSDOF 2
ENDMDL
