MODEL 1
REMARK VINA RESULT:      -8.2      0.000      0.000
REMARK  2 active torsions:
REMARK  status: ('A' for Active; 'I' for Inactive)
REMARK    1  A    between atoms: C5_4  and  O7_13 
REMARK    2  A    between atoms: C8_10  and  O7_13 
ROOT
HETATM    1  O7    D T 502      41.086  41.673  94.113  1.00 50.24    -0.304 OA
ENDROOT
BRANCH   1   2
HETATM    2  C5    D T 502      40.524  42.466  95.064  1.00 46.69     0.125 A 
HETATM    3  C6    D T 502      39.507  43.465  94.649  1.00 45.87     0.154 A 
HETATM    4  C1    D T 502      38.916  44.265  95.620  1.00 45.29     0.041 A 
HETATM    5  O17   D T 502      39.199  43.580  93.333  1.00 43.35    -0.188 OA
HETATM    6  C2    D T 502      39.319  44.093  96.953  1.00 46.78     0.060 A 
HETATM    7  C3    D T 502      40.275  43.162  97.358  1.00 44.62     0.014 A 
HETATM    8 CL14   D T 502      38.585  45.119  98.215  1.00 50.36    -0.082 Cl
HETATM    9  C4    D T 502      40.869  42.347  96.407  1.00 46.09     0.028 A 
ENDBRANCH   1   2
BRANCH   1  10
HETATM   10  C8    D T 502      42.417  41.413  94.065  1.00 57.34     0.111 A 
HETATM   11  C9    D T 502      43.354  42.476  93.621  1.00 60.97     0.081 A 
HETATM   12  C10   D T 502      44.707  42.226  93.557  1.00 61.34     0.025 A 
HETATM   13 CL16   D T 502      42.801  44.106  93.130  1.00 70.84    -0.080 Cl
HETATM   14  C11   D T 502      45.168  40.983  93.910  1.00 60.50     0.059 A 
HETATM   15  C12   D T 502      44.319  39.964  94.333  1.00 60.51     0.013 A 
HETATM   16 CL15   D T 502      46.920  40.741  93.798  1.00 63.55    -0.082 Cl
HETATM   17  C13   D T 502      42.938  40.171  94.416  1.00 58.81     0.026 A 
ENDBRANCH   1  10
TORSDOF 2
ENDMDL
MODEL 2
REMARK VINA RESULT:      -7.9      1.187      5.820
REMARK  2 active torsions:
REMARK  status: ('A' for Active; 'I' for Inactive)
REMARK    1  A    between atoms: C5_4  and  O7_13 
REMARK    2  A    between atoms: C8_10  and  O7_13 
ROOT
HETATM    1  O7    D T 502      41.244  41.541  94.285  1.00 50.24    -0.304 OA
ENDROOT
BRANCH   1   2
HETATM    2  C5    D T 502      42.581  41.327  94.160  1.00 46.69     0.125 A 
HETATM    3  C6    D T 502      43.445  42.452  93.719  1.00 45.87     0.154 A 
HETATM    4  C1    D T 502      44.815  42.242  93.609  1.00 45.29     0.041 A 
HETATM    5  O17   D T 502      42.870  43.642  93.419  1.00 43.35    -0.188 OA
HETATM    6  C2    D T 502      45.316  40.968  93.915  1.00 46.78     0.060 A 
HETATM    7  C3    D T 502      44.518  39.902  94.327  1.00 44.62     0.014 A 
HETATM    8 CL14   D T 502      47.069  40.672  93.767  1.00 50.36    -0.082 Cl
HETATM    9  C4    D T 502      43.150  40.092  94.454  1.00 46.09     0.028 A 
ENDBRANCH   1   2
BRANCH   1  10
HETATM   10  C8    D T 502      40.711  42.308  95.269  1.00 57.34     0.111 A 
HETATM   11  C9    D T 502      39.701  43.342  94.924  1.00 60.97     0.081 A 
HETATM   12  C10   D T 502      39.156  44.136  95.909  1.00 61.34     0.025 A 
HETATM   13 CL16   D T 502      39.155  43.635  93.244  1.00 70.84    -0.080 Cl
HETATM   14  C11   D T 502      39.561  43.952  97.207  1.00 60.50     0.059 A 
HETATM   15  C12   D T 502      40.502  42.991  97.566  1.00 60.51     0.013 A 
HETATM   16 CL15   D T 502      38.815  45.013  98.414  1.00 63.55    -0.082 Cl
HETATM   17  C13   D T 502      41.082  42.161  96.602  1.00 58.81     0.026 A 
ENDBRANCH   1  10
TORSDOF 2
ENDMDL
MODEL 3
REMARK VINA RESULT:      -7.6      1.098      5.960
REMARK  2 active torsions:
REMARK  status: ('A' for Active; 'I' for Inactive)
REMARK    1  A    between atoms: C5_4  and  O7_13 
REMARK    2  A    between atoms: C8_10  and  O7_13 
ROOT
HETATM    1  O7    D T 502      40.832  41.531  94.342  1.00 50.24    -0.304 OA
ENDROOT
BRANCH   1   2
HETATM    2  C5    D T 502      42.178  41.381  94.228  1.00 46.69     0.125 A 
HETATM    3  C6    D T 502      42.806  40.146  94.764  1.00 45.87     0.154 A 
HETATM    4  C1    D T 502      44.180  39.980  94.633  1.00 45.29     0.041 A 
HETATM    5  O17   D T 502      42.023  39.227  95.381  1.00 43.35    -0.188 OA
HETATM    6  C2    D T 502      44.912  40.998  94.003  1.00 46.78     0.060 A 
HETATM    7  C3    D T 502      44.338  42.164  93.498  1.00 44.62     0.014 A 
HETATM    8 CL14   D T 502      46.678  40.813  93.836  1.00 50.36    -0.082 Cl
HETATM    9  C4    D T 502      42.967  42.345  93.609  1.00 46.09     0.028 A 
ENDBRANCH   1   2
BRANCH   1  10
HETATM   10  C8    D T 502      40.258  42.359  95.251  1.00 57.34     0.111 A 
HETATM   11  C9    D T 502      39.681  43.652  94.800  1.00 60.97     0.081 A 
HETATM   12  C10   D T 502      39.103  44.509  95.711  1.00 61.34     0.025 A 
HETATM   13 CL16   D T 502      39.717  44.180  93.090  1.00 70.84    -0.080 Cl
HETATM   14  C11   D T 502      39.071  44.147  97.034  1.00 60.50     0.059 A 
HETATM   15  C12   D T 502      39.599  42.942  97.490  1.00 60.51     0.013 A 
HETATM   16 CL15   D T 502      38.314  45.304  98.141  1.00 63.55    -0.082 Cl
HETATM   17  C13   D T 502      40.194  42.039  96.604  1.00 58.81     0.026 A 
ENDBRANCH   1  10
TORSDOF 2
ENDMDL
MODEL 4
REMARK VINA RESULT:      -7.4      2.214      6.136
REMARK  2 active torsions:
REMARK  status: ('A' for Active; 'I' for Inactive)
REMARK    1  A    between atoms: C5_4  and  O7_13 
REMARK    2  A    between atoms: C8_10  and  O7_13 
ROOT
HETATM    1  O7    D T 502      41.385  41.546  97.016  1.00 50.24    -0.304 OA
ENDROOT
BRANCH   1   2
HETATM    2  C5    D T 502      42.497  41.345  96.262  1.00 46.69     0.125 A 
HETATM    3  C6    D T 502      43.504  42.433  96.172  1.00 45.87     0.154 A 
HETATM    4  C1    D T 502      44.653  42.225  95.417  1.00 45.29     0.041 A 
HETATM    5  O17   D T 502      43.264  43.603  96.814  1.00 43.35    -0.188 OA
HETATM    6  C2    D T 502      44.801  40.991  94.766  1.00 46.78     0.060 A 
HETATM    7  C3    D T 502      43.863  39.961  94.837  1.00 44.62     0.014 A 
HETATM    8 CL14   D T 502      46.259  40.706  93.779  1.00 50.36    -0.082 Cl
HETATM    9  C4    D T 502      42.715  40.144  95.594  1.00 46.09     0.028 A 
ENDBRANCH   1   2
BRANCH   1  10
HETATM   10  C8    D T 502      40.218  42.007  96.498  1.00 57.34     0.111 A 
HETATM   11  C9    D T 502      39.618  43.252  97.043  1.00 60.97     0.081 A 
HETATM   12  C10   D T 502      38.429  43.729  96.535  1.00 61.34     0.025 A 
HETATM   13 CL16   D T 502      40.367  44.181  98.377  1.00 70.84    -0.080 Cl
HETATM   14  C11   D T 502      37.816  43.035  95.523  1.00 60.50     0.059 A 
HETATM   15  C12   D T 502      38.351  41.868  94.987  1.00 60.51     0.013 A 
HETATM   16 CL15   D T 502      36.291  43.712  94.927  1.00 63.55    -0.082 Cl
HETATM   17  C13   D T 502      39.557  41.345  95.468  1.00 58.81     0.026 A 
ENDBRANCH   1  10
TORSDOF 2
ENDMDL
MODEL 5
REMARK VINA RESULT:      -7.2      2.168      2.533
REMARK  2 active torsions:
REMARK  status: ('A' for Active; 'I' for Inactive)
REMARK    1  A    between atoms: C5_4  and  O7_13 
REMARK    2  A    between atoms: C8_10  and  O7_13 
ROOT
HETATM    1  O7    D T 502      40.471  43.808  95.533  1.00 50.24    -0.304 OA
ENDROOT
BRANCH   1   2
HETATM    2  C5    D T 502      39.491  43.457  96.407  1.00 46.69     0.125 A 
HETATM    3  C6    D T 502      38.138  43.151  95.876  1.00 45.87     0.154 A 
HETATM    4  C1    D T 502      37.137  42.774  96.764  1.00 45.29     0.041 A 
HETATM    5  O17   D T 502      37.915  43.267  94.544  1.00 43.35    -0.188 OA
HETATM    6  C2    D T 502      37.456  42.708  98.129  1.00 46.78     0.060 A 
HETATM    7  C3    D T 502      38.720  42.995  98.644  1.00 44.62     0.014 A 
HETATM    8 CL14   D T 502      36.184  42.240  99.290  1.00 50.36    -0.082 Cl
HETATM    9  C4    D T 502      39.735  43.364  97.774  1.00 46.09     0.028 A 
ENDBRANCH   1   2
BRANCH   1  10
HETATM   10  C8    D T 502      41.403  42.930  95.081  1.00 57.34     0.111 A 
HETATM   11  C9    D T 502      42.685  42.782  95.817  1.00 60.97     0.081 A 
HETATM   12  C10   D T 502      43.645  41.903  95.368  1.00 61.34     0.025 A 
HETATM   13 CL16   D T 502      43.068  43.729  97.287  1.00 70.84    -0.080 Cl
HETATM   14  C11   D T 502      43.394  41.171  94.234  1.00 60.50     0.059 A 
HETATM   15  C12   D T 502      42.203  41.282  93.523  1.00 60.51     0.013 A 
HETATM   16 CL15   D T 502      44.680  40.064  93.721  1.00 63.55    -0.082 Cl
HETATM   17  C13   D T 502      41.198  42.160  93.941  1.00 58.81     0.026 A 
ENDBRANCH   1  10
TORSDOF 2
ENDMDL
MODEL 6
REMARK VINA RESULT:      -7.2      2.460      3.014
REMARK  2 active torsions:
REMARK  status: ('A' for Active; 'I' for Inactive)
REMARK    1  A    between atoms: C5_4  and  O7_13 
REMARK    2  A    between atoms: C8_10  and  O7_13 
ROOT
HETATM    1  O7    D T 502      40.448  43.796  95.798  1.00 50.24    -0.304 OA
ENDROOT
BRANCH   1   2
HETATM    2  C5    D T 502      39.453  43.407  96.640  1.00 46.69     0.125 A 
HETATM    3  C6    D T 502      39.527  43.812  98.067  1.00 45.87     0.154 A 
HETATM    4  C1    D T 502      38.502  43.434  98.926  1.00 45.29     0.041 A 
HETATM    5  O17   D T 502      40.601  44.523  98.491  1.00 43.35    -0.188 OA
HETATM    6  C2    D T 502      37.445  42.675  98.401  1.00 46.78     0.060 A 
HETATM    7  C3    D T 502      37.362  42.284  97.065  1.00 44.62     0.014 A 
HETATM    8 CL14   D T 502      36.126  42.165  99.489  1.00 50.36    -0.082 Cl
HETATM    9  C4    D T 502      38.369  42.660  96.188  1.00 46.09     0.028 A 
ENDBRANCH   1   2
BRANCH   1  10
HETATM   10  C8    D T 502      41.422  42.952  95.373  1.00 57.34     0.111 A 
HETATM   11  C9    D T 502      41.352  42.388  94.000  1.00 60.97     0.081 A 
HETATM   12  C10   D T 502      42.327  41.523  93.555  1.00 61.34     0.025 A 
HETATM   13 CL16   D T 502      40.017  42.765  92.869  1.00 70.84    -0.080 Cl
HETATM   14  C11   D T 502      43.359  41.197  94.399  1.00 60.50     0.059 A 
HETATM   15  C12   D T 502      43.457  41.710  95.689  1.00 60.51     0.013 A 
HETATM   16 CL15   D T 502      44.571  40.078  93.753  1.00 63.55    -0.082 Cl
HETATM   17  C13   D T 502      42.492  42.592  96.186  1.00 58.81     0.026 A 
ENDBRANCH   1  10
TORSDOF 2
ENDMDL
MODEL 7
REMARK VINA RESULT:      -7.1      2.097      2.560
REMARK  2 active torsions:
REMARK  status: ('A' for Active; 'I' for Inactive)
REMARK    1  A    between atoms: C5_4  and  O7_13 
REMARK    2  A    between atoms: C8_10  and  O7_13 
ROOT
HETATM    1  O7    D T 502      40.348  43.711  95.589  1.00 50.24    -0.304 OA
ENDROOT
BRANCH   1   2
HETATM    2  C5    D T 502      39.552  43.485  96.668  1.00 46.69     0.125 A 
HETATM    3  C6    D T 502      38.309  42.693  96.483  1.00 45.87     0.154 A 
HETATM    4  C1    D T 502      37.501  42.443  97.586  1.00 45.29     0.041 A 
HETATM    5  O17   D T 502      37.991  42.253  95.240  1.00 43.35    -0.188 OA
HETATM    6  C2    D T 502      37.899  42.962  98.828  1.00 46.78     0.060 A 
HETATM    7  C3    D T 502      39.061  43.710  99.017  1.00 44.62     0.014 A 
HETATM    8 CL14   D T 502      36.871  42.667 100.255  1.00 50.36    -0.082 Cl
HETATM    9  C4    D T 502      39.886  43.963  97.931  1.00 46.09     0.028 A 
ENDBRANCH   1   2
BRANCH   1  10
HETATM   10  C8    D T 502      41.360  42.880  95.235  1.00 57.34     0.111 A 
HETATM   11  C9    D T 502      41.374  42.282  93.875  1.00 60.97     0.081 A 
HETATM   12  C10   D T 502      42.389  41.428  93.502  1.00 61.34     0.025 A 
HETATM   13 CL16   D T 502      40.092  42.604  92.667  1.00 70.84    -0.080 Cl
HETATM   14  C11   D T 502      43.381  41.144  94.407  1.00 60.50     0.059 A 
HETATM   15  C12   D T 502      43.401  41.689  95.688  1.00 60.51     0.013 A 
HETATM   16 CL15   D T 502      44.648  40.037  93.851  1.00 63.55    -0.082 Cl
HETATM   17  C13   D T 502      42.394  42.562  96.111  1.00 58.81     0.026 A 
ENDBRANCH   1  10
TORSDOF 2
ENDMDL
MODEL 8
REMARK VINA RESULT:      -7.1      2.066      6.232
REMARK  2 active torsions:
REMARK  status: ('A' for Active; 'I' for Inactive)
REMARK    1  A    between atoms: C5_4  and  O7_13 
REMARK    2  A    between atoms: C8_10  and  O7_13 
ROOT
HETATM    1  O7    D T 502      40.350  43.805  95.817  1.00 50.24    -0.304 OA
ENDROOT
BRANCH   1   2
HETATM    2  C5    D T 502      41.313  42.946  95.388  1.00 46.69     0.125 A 
HETATM    3  C6    D T 502      41.257  42.456  93.987  1.00 45.87     0.154 A 
HETATM    4  C1    D T 502      42.250  41.593  93.537  1.00 45.29     0.041 A 
HETATM    5  O17   D T 502      40.230  42.850  93.194  1.00 43.35    -0.188 OA
HETATM    6  C2    D T 502      43.258  41.218  94.439  1.00 46.78     0.060 A 
HETATM    7  C3    D T 502      43.322  41.667  95.758  1.00 44.62     0.014 A 
HETATM    8 CL14   D T 502      44.534  40.099  93.889  1.00 50.36    -0.082 Cl
HETATM    9  C4    D T 502      42.348  42.537  96.223  1.00 46.09     0.028 A 
ENDBRANCH   1   2
BRANCH   1  10
HETATM   10  C8    D T 502      39.345  43.428  96.648  1.00 57.34     0.111 A 
HETATM   11  C9    D T 502      39.391  43.827  98.078  1.00 60.97     0.081 A 
HETATM   12  C10   D T 502      38.384  43.445  98.937  1.00 61.34     0.025 A 
HETATM   13 CL16   D T 502      40.734  44.787  98.770  1.00 70.84    -0.080 Cl
HETATM   14  C11   D T 502      37.345  42.694  98.447  1.00 60.50     0.059 A 
HETATM   15  C12   D T 502      37.269  42.306  97.113  1.00 60.51     0.013 A 
HETATM   16 CL15   D T 502      36.092  42.242  99.616  1.00 63.55    -0.082 Cl
HETATM   17  C13   D T 502      38.266  42.671  96.202  1.00 58.81     0.026 A 
ENDBRANCH   1  10
TORSDOF 2
ENDMDL
MODEL 9
REMARK VINA RESULT:      -7.0      2.379      6.336
REMARK  2 active torsions:
REMARK  status: ('A' for Active; 'I' for Inactive)
REMARK    1  A    between atoms: C5_4  and  O7_13 
REMARK    2  A    between atoms: C8_10  and  O7_13 
ROOT
HETATM    1  O7    D T 502      40.701  43.805  95.734  1.00 50.24    -0.304 OA
ENDROOT
BRANCH   1   2
HETATM    2  C5    D T 502      41.626  42.931  95.256  1.00 46.69     0.125 A 
HETATM    3  C6    D T 502      42.935  42.827  95.950  1.00 45.87     0.154 A 
HETATM    4  C1    D T 502      43.877  41.921  95.476  1.00 45.29     0.041 A 
HETATM    5  O17   D T 502      43.178  43.632  97.014  1.00 43.35    -0.188 OA
HETATM    6  C2    D T 502      43.545  41.150  94.352  1.00 46.78     0.060 A 
HETATM    7  C3    D T 502      42.322  41.238  93.687  1.00 44.62     0.014 A 
HETATM    8 CL14   D T 502      44.744  39.992  93.717  1.00 50.36    -0.082 Cl
HETATM    9  C4    D T 502      41.365  42.128  94.150  1.00 46.09     0.028 A 
ENDBRANCH   1   2
BRANCH   1  10
HETATM   10  C8    D T 502      39.715  43.436  96.591  1.00 57.34     0.111 A 
HETATM   11  C9    D T 502      38.363  43.126  96.060  1.00 60.97     0.081 A 
HETATM   12  C10   D T 502      37.348  42.760  96.917  1.00 61.34     0.025 A 
HETATM   13 CL16   D T 502      37.964  43.228  94.318  1.00 70.84    -0.080 Cl
HETATM   14  C11   D T 502      37.611  42.687  98.262  1.00 60.50     0.059 A 
HETATM   15  C12   D T 502      38.867  42.967  98.793  1.00 60.51     0.013 A 
HETATM   16 CL15   D T 502      36.253  42.211  99.296  1.00 63.55    -0.082 Cl
HETATM   17  C13   D T 502      39.929  43.342  97.963  1.00 58.81     0.026 A 
ENDBRANCH   1  10
TORSDOF 2
ENDMDL
