MODEL 1
REMARK VINA RESULT:    -7.765      0.000      0.000
REMARK INTER + INTRA:          -9.098
REMARK INTER:                  -8.673
REMARK INTRA:                  -0.425
REMARK UNBOUND:                -0.425
REMARK  2 active torsions:
REMARK  status: ('A' for Active; 'I' for Inactive)
REMARK    1  A    between atoms: C5_4  and  O7_13 
REMARK    2  A    between atoms: C8_10  and  O7_13 
ROOT
HETATM    1  O7    D T 502      40.777  41.500  94.224  1.00 50.24    -0.304 OA
ENDROOT
BRANCH   1   2
HETATM    2  C5    D T 502      40.274  42.373  95.137  1.00 46.69     0.125 A 
HETATM    3  C6    D T 502      39.296  43.394  94.684  1.00 45.87     0.154 A 
HETATM    4  C1    D T 502      38.764  44.276  95.618  1.00 45.29     0.041 A 
HETATM    5  O17   D T 502      38.964  43.447  93.370  1.00 43.35    -0.188 OA
HETATM    6  C2    D T 502      39.188  44.162  96.951  1.00 46.78     0.060 A 
HETATM    7  C3    D T 502      40.108  43.211  97.391  1.00 44.62     0.014 A 
HETATM    8 CL14   D T 502      38.531  45.293  98.164  1.00 50.36    -0.082 Cl
HETATM    9  C4    D T 502      40.642  42.315  96.478  1.00 46.09     0.028 A 
ENDBRANCH   1   2
BRANCH   1  10
HETATM   10  C8    D T 502      42.097  41.196  94.147  1.00 57.34     0.111 A 
HETATM   11  C9    D T 502      43.061  42.234  93.700  1.00 60.97     0.081 A 
HETATM   12  C10   D T 502      44.404  41.940  93.606  1.00 61.34     0.025 A 
HETATM   13 CL16   D T 502      42.554  43.888  93.241  1.00 70.84    -0.080 Cl
HETATM   14  C11   D T 502      44.829  40.677  93.934  1.00 60.50     0.059 A 
HETATM   15  C12   D T 502      43.954  39.681  94.360  1.00 60.51     0.013 A 
HETATM   16 CL15   D T 502      46.569  40.378  93.785  1.00 63.55    -0.082 Cl
HETATM   17  C13   D T 502      42.583  39.933  94.472  1.00 58.81     0.026 A 
ENDBRANCH   1  10
TORSDOF 2
ENDMDL
MODEL 2
REMARK VINA RESULT:    -7.725      9.299     11.687
REMARK INTER + INTRA:          -9.053
REMARK INTER:                  -8.653
REMARK INTRA:                  -0.400
REMARK UNBOUND:                -0.425
REMARK  2 active torsions:
REMARK  status: ('A' for Active; 'I' for Inactive)
REMARK    1  A    between atoms: C5_4  and  O7_13 
REMARK    2  A    between atoms: C8_10  and  O7_13 
ROOT
HETATM    1  O7    D T 502      32.507  42.105 102.256  1.00 50.24    -0.304 OA
ENDROOT
BRANCH   1   2
HETATM    2  C5    D T 502      31.870  41.008 101.768  1.00 46.69     0.125 A 
HETATM    3  C6    D T 502      30.536  41.178 101.139  1.00 45.87     0.154 A 
HETATM    4  C1    D T 502      29.889  40.062 100.621  1.00 45.29     0.041 A 
HETATM    5  O17   D T 502      29.980  42.415 101.105  1.00 43.35    -0.188 OA
HETATM    6  C2    D T 502      30.531  38.819 100.727  1.00 46.78     0.060 A 
HETATM    7  C3    D T 502      31.782  38.641 101.317  1.00 44.62     0.014 A 
HETATM    8 CL14   D T 502      29.714  37.369 100.083  1.00 50.36    -0.082 Cl
HETATM    9  C4    D T 502      32.449  39.744 101.831  1.00 46.09     0.028 A 
ENDBRANCH   1   2
BRANCH   1  10
HETATM   10  C8    D T 502      33.858  42.235 102.252  1.00 57.34     0.111 A 
HETATM   11  C9    D T 502      34.625  41.927 103.486  1.00 60.97     0.081 A 
HETATM   12  C10   D T 502      35.996  42.062 103.503  1.00 61.34     0.025 A 
HETATM   13 CL16   D T 502      33.839  41.397 105.004  1.00 70.84    -0.080 Cl
HETATM   14  C11   D T 502      36.634  42.483 102.362  1.00 60.50     0.059 A 
HETATM   15  C12   D T 502      35.947  42.776 101.188  1.00 60.51     0.013 A 
HETATM   16 CL15   D T 502      38.396  42.633 102.466  1.00 63.55    -0.082 Cl
HETATM   17  C13   D T 502      34.555  42.652 101.122  1.00 58.81     0.026 A 
ENDBRANCH   1  10
TORSDOF 2
ENDMDL
MODEL 3
REMARK VINA RESULT:    -7.554      1.166      5.827
REMARK INTER + INTRA:          -8.862
REMARK INTER:                  -8.663
REMARK INTRA:                  -0.200
REMARK UNBOUND:                -0.425
REMARK  2 active torsions:
REMARK  status: ('A' for Active; 'I' for Inactive)
REMARK    1  A    between atoms: C5_4  and  O7_13 
REMARK    2  A    between atoms: C8_10  and  O7_13 
ROOT
HETATM    1  O7    D T 502      41.107  41.499  94.217  1.00 50.24    -0.304 OA
ENDROOT
BRANCH   1   2
HETATM    2  C5    D T 502      42.436  41.237  94.100  1.00 46.69     0.125 A 
HETATM    3  C6    D T 502      43.356  42.354  93.762  1.00 45.87     0.154 A 
HETATM    4  C1    D T 502      44.718  42.094  93.660  1.00 45.29     0.041 A 
HETATM    5  O17   D T 502      42.837  43.588  93.545  1.00 43.35    -0.188 OA
HETATM    6  C2    D T 502      45.158  40.780  93.875  1.00 46.78     0.060 A 
HETATM    7  C3    D T 502      44.307  39.720  94.190  1.00 44.62     0.014 A 
HETATM    8 CL14   D T 502      46.900  40.419  93.734  1.00 50.36    -0.082 Cl
HETATM    9  C4    D T 502      42.946  39.959  94.306  1.00 46.09     0.028 A 
ENDBRANCH   1   2
BRANCH   1  10
HETATM   10  C8    D T 502      40.598  42.300  95.187  1.00 57.34     0.111 A 
HETATM   11  C9    D T 502      39.622  43.360  94.823  1.00 60.97     0.081 A 
HETATM   12  C10   D T 502      39.103  44.188  95.794  1.00 61.34     0.025 A 
HETATM   13 CL16   D T 502      39.087  43.641  93.138  1.00 70.84    -0.080 Cl
HETATM   14  C11   D T 502      39.501  44.014  97.095  1.00 60.50     0.059 A 
HETATM   15  C12   D T 502      40.410  43.029  97.472  1.00 60.51     0.013 A 
HETATM   16 CL15   D T 502      38.789  45.119  98.283  1.00 63.55    -0.082 Cl
HETATM   17  C13   D T 502      40.964  42.164  96.522  1.00 58.81     0.026 A 
ENDBRANCH   1  10
TORSDOF 2
ENDMDL
MODEL 4
REMARK VINA RESULT:    -7.355      1.427      1.857
REMARK INTER + INTRA:          -8.640
REMARK INTER:                  -8.297
REMARK INTRA:                  -0.343
REMARK UNBOUND:                -0.425
REMARK  2 active torsions:
REMARK  status: ('A' for Active; 'I' for Inactive)
REMARK    1  A    between atoms: C5_4  and  O7_13 
REMARK    2  A    between atoms: C8_10  and  O7_13 
ROOT
HETATM    1  O7    D T 502      40.601  42.210  94.332  1.00 50.24    -0.304 OA
ENDROOT
BRANCH   1   2
HETATM    2  C5    D T 502      40.131  42.927  95.387  1.00 46.69     0.125 A 
HETATM    3  C6    D T 502      38.794  43.565  95.277  1.00 45.87     0.154 A 
HETATM    4  C1    D T 502      38.301  44.283  96.361  1.00 45.29     0.041 A 
HETATM    5  O17   D T 502      38.103  43.443  94.117  1.00 43.35    -0.188 OA
HETATM    6  C2    D T 502      39.100  44.377  97.510  1.00 46.78     0.060 A 
HETATM    7  C3    D T 502      40.358  43.787  97.628  1.00 44.62     0.014 A 
HETATM    8 CL14   D T 502      38.495  45.306  98.907  1.00 50.36    -0.082 Cl
HETATM    9  C4    D T 502      40.864  43.058  96.562  1.00 46.09     0.028 A 
ENDBRANCH   1   2
BRANCH   1  10
HETATM   10  C8    D T 502      41.911  41.890  94.186  1.00 57.34     0.111 A 
HETATM   11  C9    D T 502      42.370  40.518  94.526  1.00 60.97     0.081 A 
HETATM   12  C10   D T 502      43.699  40.178  94.393  1.00 61.34     0.025 A 
HETATM   13 CL16   D T 502      41.262  39.253  95.138  1.00 70.84    -0.080 Cl
HETATM   14  C11   D T 502      44.583  41.126  93.941  1.00 60.50     0.059 A 
HETATM   15  C12   D T 502      44.186  42.419  93.611  1.00 60.51     0.013 A 
HETATM   16 CL15   D T 502      46.272  40.611  93.799  1.00 63.55    -0.082 Cl
HETATM   17  C13   D T 502      42.849  42.810  93.728  1.00 58.81     0.026 A 
ENDBRANCH   1  10
TORSDOF 2
ENDMDL
MODEL 5
REMARK VINA RESULT:    -7.347      1.759      6.130
REMARK INTER + INTRA:          -8.631
REMARK INTER:                  -8.285
REMARK INTRA:                  -0.346
REMARK UNBOUND:                -0.425
REMARK  2 active torsions:
REMARK  status: ('A' for Active; 'I' for Inactive)
REMARK    1  A    between atoms: C5_4  and  O7_13 
REMARK    2  A    between atoms: C8_10  and  O7_13 
ROOT
HETATM    1  O7    D T 502      39.588  42.959  94.541  1.00 50.24    -0.304 OA
ENDROOT
BRANCH   1   2
HETATM    2  C5    D T 502      40.704  42.205  94.355  1.00 46.69     0.125 A 
HETATM    3  C6    D T 502      41.896  42.837  93.735  1.00 45.87     0.154 A 
HETATM    4  C1    D T 502      43.046  42.075  93.561  1.00 45.29     0.041 A 
HETATM    5  O17   D T 502      41.821  44.132  93.341  1.00 43.35    -0.188 OA
HETATM    6  C2    D T 502      43.020  40.735  93.975  1.00 46.78     0.060 A 
HETATM    7  C3    D T 502      41.908  40.126  94.556  1.00 44.62     0.014 A 
HETATM    8 CL14   D T 502      44.479  39.734  93.748  1.00 50.36    -0.082 Cl
HETATM    9  C4    D T 502      40.754  40.871  94.748  1.00 46.09     0.028 A 
ENDBRANCH   1   2
BRANCH   1  10
HETATM   10  C8    D T 502      39.247  43.484  95.745  1.00 57.34     0.111 A 
HETATM   11  C9    D T 502      37.821  43.789  96.031  1.00 60.97     0.081 A 
HETATM   12  C10   D T 502      37.458  44.331  97.245  1.00 61.34     0.025 A 
HETATM   13 CL16   D T 502      36.515  43.503  94.842  1.00 70.84    -0.080 Cl
HETATM   14  C11   D T 502      38.434  44.580  98.177  1.00 60.50     0.059 A 
HETATM   15  C12   D T 502      39.778  44.303  97.943  1.00 60.51     0.013 A 
HETATM   16 CL15   D T 502      37.886  45.279  99.710  1.00 63.55    -0.082 Cl
HETATM   17  C13   D T 502      40.195  43.751  96.728  1.00 58.81     0.026 A 
ENDBRANCH   1  10
TORSDOF 2
ENDMDL
MODEL 6
REMARK VINA RESULT:    -7.334      1.369      1.702
REMARK INTER + INTRA:          -8.617
REMARK INTER:                  -8.186
REMARK INTRA:                  -0.431
REMARK UNBOUND:                -0.425
REMARK  2 active torsions:
REMARK  status: ('A' for Active; 'I' for Inactive)
REMARK    1  A    between atoms: C5_4  and  O7_13 
REMARK    2  A    between atoms: C8_10  and  O7_13 
ROOT
HETATM    1  O7    D T 502      40.913  41.701  94.759  1.00 50.24    -0.304 OA
ENDROOT
BRANCH   1   2
HETATM    2  C5    D T 502      40.461  42.155  95.958  1.00 46.69     0.125 A 
HETATM    3  C6    D T 502      39.381  41.401  96.645  1.00 45.87     0.154 A 
HETATM    4  C1    D T 502      38.929  41.851  97.880  1.00 45.29     0.041 A 
HETATM    5  O17   D T 502      38.857  40.308  96.039  1.00 43.35    -0.188 OA
HETATM    6  C2    D T 502      39.513  43.009  98.416  1.00 46.78     0.060 A 
HETATM    7  C3    D T 502      40.525  43.729  97.782  1.00 44.62     0.014 A 
HETATM    8 CL14   D T 502      38.938  43.614  99.993  1.00 50.36    -0.082 Cl
HETATM    9  C4    D T 502      40.998  43.292  96.554  1.00 46.09     0.028 A 
ENDBRANCH   1   2
BRANCH   1  10
HETATM   10  C8    D T 502      42.212  41.376  94.539  1.00 57.34     0.111 A 
HETATM   11  C9    D T 502      43.121  42.375  93.921  1.00 60.97     0.081 A 
HETATM   12  C10   D T 502      44.440  42.059  93.680  1.00 61.34     0.025 A 
HETATM   13 CL16   D T 502      42.572  44.009  93.436  1.00 70.84    -0.080 Cl
HETATM   14  C11   D T 502      44.894  40.810  94.023  1.00 60.50     0.059 A 
HETATM   15  C12   D T 502      44.072  39.851  94.607  1.00 60.51     0.013 A 
HETATM   16 CL15   D T 502      46.601  40.481  93.681  1.00 63.55    -0.082 Cl
HETATM   17  C13   D T 502      42.726  40.126  94.871  1.00 58.81     0.026 A 
ENDBRANCH   1  10
TORSDOF 2
ENDMDL
MODEL 7
REMARK VINA RESULT:    -7.281      2.082      6.205
REMARK INTER + INTRA:          -8.557
REMARK INTER:                  -8.313
REMARK INTRA:                  -0.244
REMARK UNBOUND:                -0.425
REMARK  2 active torsions:
REMARK  status: ('A' for Active; 'I' for Inactive)
REMARK    1  A    between atoms: C5_4  and  O7_13 
REMARK    2  A    between atoms: C8_10  and  O7_13 
ROOT
HETATM    1  O7    D T 502      41.789  43.488  96.284  1.00 50.24    -0.304 OA
ENDROOT
BRANCH   1   2
HETATM    2  C5    D T 502      42.743  42.714  95.701  1.00 46.69     0.125 A 
HETATM    3  C6    D T 502      42.948  41.333  96.207  1.00 45.87     0.154 A 
HETATM    4  C1    D T 502      43.909  40.531  95.601  1.00 45.29     0.041 A 
HETATM    5  O17   D T 502      42.204  40.901  97.255  1.00 43.35    -0.188 OA
HETATM    6  C2    D T 502      44.649  41.074  94.540  1.00 46.78     0.060 A 
HETATM    7  C3    D T 502      44.471  42.370  94.056  1.00 44.62     0.014 A 
HETATM    8 CL14   D T 502      45.898  40.070  93.757  1.00 50.36    -0.082 Cl
HETATM    9  C4    D T 502      43.510  43.183  94.639  1.00 46.09     0.028 A 
ENDBRANCH   1   2
BRANCH   1  10
HETATM   10  C8    D T 502      40.499  43.506  95.864  1.00 57.34     0.111 A 
HETATM   11  C9    D T 502      39.444  44.036  96.766  1.00 60.97     0.081 A 
HETATM   12  C10   D T 502      38.128  44.053  96.359  1.00 61.34     0.025 A 
HETATM   13 CL16   D T 502      39.799  44.650  98.409  1.00 70.84    -0.080 Cl
HETATM   14  C11   D T 502      37.814  43.575  95.111  1.00 60.50     0.059 A 
HETATM   15  C12   D T 502      38.777  43.075  94.240  1.00 60.51     0.013 A 
HETATM   16 CL15   D T 502      36.100  43.630  94.665  1.00 63.55    -0.082 Cl
HETATM   17  C13   D T 502      40.126  43.039  94.607  1.00 58.81     0.026 A 
ENDBRANCH   1  10
TORSDOF 2
ENDMDL
MODEL 8
REMARK VINA RESULT:    -7.146      2.075      2.295
REMARK INTER + INTRA:          -8.406
REMARK INTER:                  -7.900
REMARK INTRA:                  -0.507
REMARK UNBOUND:                -0.425
REMARK  2 active torsions:
REMARK  status: ('A' for Active; 'I' for Inactive)
REMARK    1  A    between atoms: C5_4  and  O7_13 
REMARK    2  A    between atoms: C8_10  and  O7_13 
ROOT
HETATM    1  O7    D T 502      40.635  43.585  95.504  1.00 50.24    -0.304 OA
ENDROOT
BRANCH   1   2
HETATM    2  C5    D T 502      39.623  43.297  96.365  1.00 46.69     0.125 A 
HETATM    3  C6    D T 502      38.241  43.192  95.832  1.00 45.87     0.154 A 
HETATM    4  C1    D T 502      37.206  42.878  96.706  1.00 45.29     0.041 A 
HETATM    5  O17   D T 502      38.028  43.423  94.513  1.00 43.35    -0.188 OA
HETATM    6  C2    D T 502      37.520  42.683  98.059  1.00 46.78     0.060 A 
HETATM    7  C3    D T 502      38.811  42.781  98.576  1.00 44.62     0.014 A 
HETATM    8 CL14   D T 502      36.206  42.295  99.202  1.00 50.36    -0.082 Cl
HETATM    9  C4    D T 502      39.860  43.083  97.720  1.00 46.09     0.028 A 
ENDBRANCH   1   2
BRANCH   1  10
HETATM   10  C8    D T 502      41.517  42.651  95.067  1.00 57.34     0.111 A 
HETATM   11  C9    D T 502      42.855  42.554  95.705  1.00 60.97     0.081 A 
HETATM   12  C10   D T 502      43.766  41.618  95.266  1.00 61.34     0.025 A 
HETATM   13 CL16   D T 502      43.370  43.634  97.036  1.00 70.84    -0.080 Cl
HETATM   14  C11   D T 502      43.414  40.782  94.236  1.00 60.50     0.059 A 
HETATM   15  C12   D T 502      42.168  40.844  93.618  1.00 60.51     0.013 A 
HETATM   16 CL15   D T 502      44.641  39.609  93.730  1.00 63.55    -0.082 Cl
HETATM   17  C13   D T 502      41.210  41.776  94.029  1.00 58.81     0.026 A 
ENDBRANCH   1  10
TORSDOF 2
ENDMDL
MODEL 9
REMARK VINA RESULT:    -7.145      2.285      2.608
REMARK INTER + INTRA:          -8.405
REMARK INTER:                  -7.889
REMARK INTRA:                  -0.516
REMARK UNBOUND:                -0.425
REMARK  2 active torsions:
REMARK  status: ('A' for Active; 'I' for Inactive)
REMARK    1  A    between atoms: C5_4  and  O7_13 
REMARK    2  A    between atoms: C8_10  and  O7_13 
ROOT
HETATM    1  O7    D T 502      40.982  41.651  96.951  1.00 50.24    -0.304 OA
ENDROOT
BRANCH   1   2
HETATM    2  C5    D T 502      39.860  42.197  96.412  1.00 46.69     0.125 A 
HETATM    3  C6    D T 502      38.693  41.316  96.149  1.00 45.87     0.154 A 
HETATM    4  C1    D T 502      37.537  41.873  95.615  1.00 45.29     0.041 A 
HETATM    5  O17   D T 502      38.798  39.991  96.419  1.00 43.35    -0.188 OA
HETATM    6  C2    D T 502      37.532  43.249  95.342  1.00 46.78     0.060 A 
HETATM    7  C3    D T 502      38.620  44.089  95.580  1.00 44.62     0.014 A 
HETATM    8 CL14   D T 502      36.065  43.984  94.642  1.00 50.36    -0.082 Cl
HETATM    9  C4    D T 502      39.779  43.555  96.121  1.00 46.09     0.028 A 
ENDBRANCH   1   2
BRANCH   1  10
HETATM   10  C8    D T 502      42.107  41.419  96.229  1.00 57.34     0.111 A 
HETATM   11  C9    D T 502      43.245  42.369  96.323  1.00 60.97     0.081 A 
HETATM   12  C10   D T 502      44.391  42.154  95.589  1.00 61.34     0.025 A 
HETATM   13 CL16   D T 502      43.196  43.834  97.351  1.00 70.84    -0.080 Cl
HETATM   14  C11   D T 502      44.460  41.050  94.777  1.00 60.50     0.059 A 
HETATM   15  C12   D T 502      43.414  40.138  94.668  1.00 60.51     0.013 A 
HETATM   16 CL15   D T 502      45.966  40.846  93.866  1.00 63.55    -0.082 Cl
HETATM   17  C13   D T 502      42.232  40.313  95.393  1.00 58.81     0.026 A 
ENDBRANCH   1  10
TORSDOF 2
ENDMDL
