MODEL 1
REMARK VINA RESULT:    -7.510      0.000      0.000
REMARK INTER + INTRA:          -8.841
REMARK INTER:                  -8.388
REMARK INTRA:                  -0.452
REMARK UNBOUND:                -0.452
REMARK  2 active torsions:
REMARK  status: ('A' for Active; 'I' for Inactive)
REMARK    1  A    between atoms: C5_4  and  O7_13 
REMARK    2  A    between atoms: C8_10  and  O7_13 
ROOT
HETATM    1  O7    D T 502       4.853   0.944  -8.039  1.00 50.24    -0.304 OA
ENDROOT
BRANCH   1   2
HETATM    2  C5    D T 502       4.026   1.686  -7.255  1.00 46.69     0.125 A 
HETATM    3  C6    D T 502       3.042   0.983  -6.393  1.00 45.87     0.154 A 
HETATM    4  C1    D T 502       2.207   1.737  -5.575  1.00 45.29     0.041 A 
HETATM    5  O17   D T 502       2.974  -0.369  -6.442  1.00 43.35    -0.188 OA
HETATM    6  C2    D T 502       2.331   3.134  -5.611  1.00 46.78     0.060 A 
HETATM    7  C3    D T 502       3.248   3.808  -6.418  1.00 44.62     0.014 A 
HETATM    8 CL14   D T 502       1.261   4.123  -4.582  1.00 50.36    -0.082 Cl
HETATM    9  C4    D T 502       4.096   3.075  -7.234  1.00 46.09     0.028 A 
ENDBRANCH   1   2
BRANCH   1  10
HETATM   10  C8    D T 502       5.126   1.265  -9.330  1.00 57.34     0.111 A 
HETATM   11  C9    D T 502       4.088   1.054 -10.371  1.00 60.97     0.081 A 
HETATM   12  C10   D T 502       4.351   1.365 -11.687  1.00 61.34     0.025 A 
HETATM   13 CL16   D T 502       2.473   0.376 -10.000  1.00 70.84    -0.080 Cl
HETATM   14  C11   D T 502       5.584   1.872 -12.013  1.00 60.50     0.059 A 
HETATM   15  C12   D T 502       6.579   2.086 -11.063  1.00 60.51     0.013 A 
HETATM   16 CL15   D T 502       5.844   2.245 -13.725  1.00 63.55    -0.082 Cl
HETATM   17  C13   D T 502       6.358   1.786  -9.714  1.00 58.81     0.026 A 
ENDBRANCH   1  10
TORSDOF 2
ENDMDL
MODEL 2
REMARK VINA RESULT:    -7.467      1.386      6.055
REMARK INTER + INTRA:          -8.792
REMARK INTER:                  -8.264
REMARK INTRA:                  -0.528
REMARK UNBOUND:                -0.452
REMARK  2 active torsions:
REMARK  status: ('A' for Active; 'I' for Inactive)
REMARK    1  A    between atoms: C5_4  and  O7_13 
REMARK    2  A    between atoms: C8_10  and  O7_13 
ROOT
HETATM    1  O7    D T 502       5.551   1.553  -7.589  1.00 50.24    -0.304 OA
ENDROOT
BRANCH   1   2
HETATM    2  C5    D T 502       5.601   1.667  -8.943  1.00 46.69     0.125 A 
HETATM    3  C6    D T 502       6.603   2.583  -9.544  1.00 45.87     0.154 A 
HETATM    4  C1    D T 502       6.670   2.689 -10.929  1.00 45.29     0.041 A 
HETATM    5  O17   D T 502       7.409   3.302  -8.725  1.00 43.35    -0.188 OA
HETATM    6  C2    D T 502       5.777   1.925 -11.695  1.00 46.78     0.060 A 
HETATM    7  C3    D T 502       4.829   1.063 -11.144  1.00 44.62     0.014 A 
HETATM    8 CL14   D T 502       5.834   2.055 -13.473  1.00 50.36    -0.082 Cl
HETATM    9  C4    D T 502       4.751   0.935  -9.766  1.00 46.09     0.028 A 
ENDBRANCH   1   2
BRANCH   1  10
HETATM   10  C8    D T 502       4.541   2.070  -6.844  1.00 57.34     0.111 A 
HETATM   11  C9    D T 502       3.497   1.163  -6.300  1.00 60.97     0.081 A 
HETATM   12  C10   D T 502       2.459   1.671  -5.550  1.00 61.34     0.025 A 
HETATM   13 CL16   D T 502       3.503  -0.603  -6.595  1.00 70.84    -0.080 Cl
HETATM   14  C11   D T 502       2.411   3.023  -5.316  1.00 60.50     0.059 A 
HETATM   15  C12   D T 502       3.374   3.900  -5.807  1.00 60.51     0.013 A 
HETATM   16 CL15   D T 502       1.045   3.597  -4.346  1.00 63.55    -0.082 Cl
HETATM   17  C13   D T 502       4.447   3.431  -6.573  1.00 58.81     0.026 A 
ENDBRANCH   1  10
TORSDOF 2
ENDMDL
MODEL 3
REMARK VINA RESULT:    -7.387      1.578      2.029
REMARK INTER + INTRA:          -8.703
REMARK INTER:                  -8.172
REMARK INTRA:                  -0.531
REMARK UNBOUND:                -0.452
REMARK  2 active torsions:
REMARK  status: ('A' for Active; 'I' for Inactive)
REMARK    1  A    between atoms: C5_4  and  O7_13 
REMARK    2  A    between atoms: C8_10  and  O7_13 
ROOT
HETATM    1  O7    D T 502       5.301   1.500  -7.251  1.00 50.24    -0.304 OA
ENDROOT
BRANCH   1   2
HETATM    2  C5    D T 502       4.298   2.099  -6.555  1.00 46.69     0.125 A 
HETATM    3  C6    D T 502       3.326   1.243  -5.829  1.00 45.87     0.154 A 
HETATM    4  C1    D T 502       2.309   1.851  -5.100  1.00 45.29     0.041 A 
HETATM    5  O17   D T 502       3.447  -0.104  -5.912  1.00 43.35    -0.188 OA
HETATM    6  C2    D T 502       2.247   3.253  -5.095  1.00 46.78     0.060 A 
HETATM    7  C3    D T 502       3.151   4.069  -5.775  1.00 44.62     0.014 A 
HETATM    8 CL14   D T 502       0.943   4.055  -4.180  1.00 50.36    -0.082 Cl
HETATM    9  C4    D T 502       4.177   3.483  -6.499  1.00 46.09     0.028 A 
ENDBRANCH   1   2
BRANCH   1  10
HETATM   10  C8    D T 502       5.387   1.546  -8.605  1.00 57.34     0.111 A 
HETATM   11  C9    D T 502       6.459   2.354  -9.242  1.00 60.97     0.081 A 
HETATM   12  C10   D T 502       6.555   2.420 -10.615  1.00 61.34     0.025 A 
HETATM   13 CL16   D T 502       7.654   3.291  -8.294  1.00 70.84    -0.080 Cl
HETATM   14  C11   D T 502       5.647   1.728 -11.376  1.00 60.50     0.059 A 
HETATM   15  C12   D T 502       4.632   0.960 -10.812  1.00 60.51     0.013 A 
HETATM   16 CL15   D T 502       5.837   1.867 -13.132  1.00 63.55    -0.082 Cl
HETATM   17  C13   D T 502       4.495   0.861  -9.424  1.00 58.81     0.026 A 
ENDBRANCH   1  10
TORSDOF 2
ENDMDL
MODEL 4
REMARK VINA RESULT:    -7.230      3.867      4.647
REMARK INTER + INTRA:          -8.528
REMARK INTER:                  -8.500
REMARK INTRA:                  -0.028
REMARK UNBOUND:                -0.452
REMARK  2 active torsions:
REMARK  status: ('A' for Active; 'I' for Inactive)
REMARK    1  A    between atoms: C5_4  and  O7_13 
REMARK    2  A    between atoms: C8_10  and  O7_13 
ROOT
HETATM    1  O7    D T 502       6.373   2.234  -7.663  1.00 50.24    -0.304 OA
ENDROOT
BRANCH   1   2
HETATM    2  C5    D T 502       7.561   2.174  -7.004  1.00 46.69     0.125 A 
HETATM    3  C6    D T 502       7.593   2.516  -5.559  1.00 45.87     0.154 A 
HETATM    4  C1    D T 502       8.802   2.439  -4.877  1.00 45.29     0.041 A 
HETATM    5  O17   D T 502       6.446   2.911  -4.953  1.00 43.35    -0.188 OA
HETATM    6  C2    D T 502       9.942   2.045  -5.594  1.00 46.78     0.060 A 
HETATM    7  C3    D T 502       9.928   1.724  -6.952  1.00 44.62     0.014 A 
HETATM    8 CL14   D T 502      11.507   1.952  -4.744  1.00 50.36    -0.082 Cl
HETATM    9  C4    D T 502       8.731   1.786  -7.649  1.00 46.09     0.028 A 
ENDBRANCH   1   2
BRANCH   1  10
HETATM   10  C8    D T 502       6.279   2.177  -9.016  1.00 57.34     0.111 A 
HETATM   11  C9    D T 502       5.433   1.130  -9.645  1.00 60.97     0.081 A 
HETATM   12  C10   D T 502       5.333   1.051 -11.017  1.00 61.34     0.025 A 
HETATM   13 CL16   D T 502       4.528  -0.083  -8.690  1.00 70.84    -0.080 Cl
HETATM   14  C11   D T 502       6.025   1.955 -11.784  1.00 60.50     0.059 A 
HETATM   15  C12   D T 502       6.824   2.949 -11.228  1.00 60.51     0.013 A 
HETATM   16 CL15   D T 502       5.846   1.785 -13.539  1.00 63.55    -0.082 Cl
HETATM   17  C13   D T 502       6.956   3.070  -9.840  1.00 58.81     0.026 A 
ENDBRANCH   1  10
TORSDOF 2
ENDMDL
MODEL 5
REMARK VINA RESULT:    -7.185      2.424      2.965
REMARK INTER + INTRA:          -8.477
REMARK INTER:                  -7.976
REMARK INTRA:                  -0.501
REMARK UNBOUND:                -0.452
REMARK  2 active torsions:
REMARK  status: ('A' for Active; 'I' for Inactive)
REMARK    1  A    between atoms: C5_4  and  O7_13 
REMARK    2  A    between atoms: C8_10  and  O7_13 
ROOT
HETATM    1  O7    D T 502       4.732   3.677  -7.743  1.00 50.24    -0.304 OA
ENDROOT
BRANCH   1   2
HETATM    2  C5    D T 502       4.292   2.873  -6.739  1.00 46.69     0.125 A 
HETATM    3  C6    D T 502       3.035   3.235  -6.035  1.00 45.87     0.154 A 
HETATM    4  C1    D T 502       2.572   2.406  -5.019  1.00 45.29     0.041 A 
HETATM    5  O17   D T 502       2.388   4.371  -6.390  1.00 43.35    -0.188 OA
HETATM    6  C2    D T 502       3.324   1.264  -4.703  1.00 46.78     0.060 A 
HETATM    7  C3    D T 502       4.507   0.914  -5.353  1.00 44.62     0.014 A 
HETATM    8 CL14   D T 502       2.757   0.193  -3.394  1.00 50.36    -0.082 Cl
HETATM    9  C4    D T 502       4.982   1.722  -6.374  1.00 46.09     0.028 A 
ENDBRANCH   1   2
BRANCH   1  10
HETATM   10  C8    D T 502       4.870   3.246  -9.024  1.00 57.34     0.111 A 
HETATM   11  C9    D T 502       6.225   2.936  -9.547  1.00 60.97     0.081 A 
HETATM   12  C10   D T 502       6.386   2.506 -10.846  1.00 61.34     0.025 A 
HETATM   13 CL16   D T 502       7.707   3.116  -8.558  1.00 70.84    -0.080 Cl
HETATM   14  C11   D T 502       5.275   2.371 -11.641  1.00 60.50     0.059 A 
HETATM   15  C12   D T 502       3.990   2.651 -11.182  1.00 60.51     0.013 A 
HETATM   16 CL15   D T 502       5.565   1.817 -13.298  1.00 63.55    -0.082 Cl
HETATM   17  C13   D T 502       3.777   3.088  -9.870  1.00 58.81     0.026 A 
ENDBRANCH   1  10
TORSDOF 2
ENDMDL
MODEL 6
REMARK VINA RESULT:    -7.169      2.180      6.102
REMARK INTER + INTRA:          -8.459
REMARK INTER:                  -7.946
REMARK INTRA:                  -0.513
REMARK UNBOUND:                -0.452
REMARK  2 active torsions:
REMARK  status: ('A' for Active; 'I' for Inactive)
REMARK    1  A    between atoms: C5_4  and  O7_13 
REMARK    2  A    between atoms: C8_10  and  O7_13 
ROOT
HETATM    1  O7    D T 502       2.849   1.799  -7.988  1.00 50.24    -0.304 OA
ENDROOT
BRANCH   1   2
HETATM    2  C5    D T 502       3.644   1.706  -9.087  1.00 46.69     0.125 A 
HETATM    3  C6    D T 502       3.465   2.694 -10.181  1.00 45.87     0.154 A 
HETATM    4  C1    D T 502       4.288   2.614 -11.299  1.00 45.29     0.041 A 
HETATM    5  O17   D T 502       2.493   3.632 -10.066  1.00 43.35    -0.188 OA
HETATM    6  C2    D T 502       5.249   1.593 -11.342  1.00 46.78     0.060 A 
HETATM    7  C3    D T 502       5.427   0.657 -10.323  1.00 44.62     0.014 A 
HETATM    8 CL14   D T 502       6.306   1.462 -12.772  1.00 50.36    -0.082 Cl
HETATM    9  C4    D T 502       4.623   0.724  -9.196  1.00 46.09     0.028 A 
ENDBRANCH   1   2
BRANCH   1  10
HETATM   10  C8    D T 502       3.284   2.310  -6.807  1.00 57.34     0.111 A 
HETATM   11  C9    D T 502       3.493   1.399  -5.651  1.00 60.97     0.081 A 
HETATM   12  C10   D T 502       3.924   1.901  -4.442  1.00 61.34     0.025 A 
HETATM   13 CL16   D T 502       3.185  -0.362  -5.741  1.00 70.84    -0.080 Cl
HETATM   14  C11   D T 502       4.156   3.249  -4.330  1.00 60.50     0.059 A 
HETATM   15  C12   D T 502       3.973   4.129  -5.393  1.00 60.51     0.013 A 
HETATM   16 CL15   D T 502       4.706   3.814  -2.744  1.00 63.55    -0.082 Cl
HETATM   17  C13   D T 502       3.538   3.667  -6.639  1.00 58.81     0.026 A 
ENDBRANCH   1  10
TORSDOF 2
ENDMDL
MODEL 7
REMARK VINA RESULT:    -6.837      2.066      6.203
REMARK INTER + INTRA:          -8.088
REMARK INTER:                  -7.660
REMARK INTRA:                  -0.429
REMARK UNBOUND:                -0.452
REMARK  2 active torsions:
REMARK  status: ('A' for Active; 'I' for Inactive)
REMARK    1  A    between atoms: C5_4  and  O7_13 
REMARK    2  A    between atoms: C8_10  and  O7_13 
ROOT
HETATM    1  O7    D T 502       5.031   3.364  -7.628  1.00 50.24    -0.304 OA
ENDROOT
BRANCH   1   2
HETATM    2  C5    D T 502       5.130   3.021  -8.940  1.00 46.69     0.125 A 
HETATM    3  C6    D T 502       6.478   2.785  -9.515  1.00 45.87     0.154 A 
HETATM    4  C1    D T 502       6.583   2.416 -10.852  1.00 45.29     0.041 A 
HETATM    5  O17   D T 502       7.567   2.956  -8.726  1.00 43.35    -0.188 OA
HETATM    6  C2    D T 502       5.402   2.290 -11.598  1.00 46.78     0.060 A 
HETATM    7  C3    D T 502       4.128   2.511 -11.072  1.00 44.62     0.014 A 
HETATM    8 CL14   D T 502       5.512   1.832 -13.318  1.00 50.36    -0.082 Cl
HETATM    9  C4    D T 502       4.001   2.871  -9.739  1.00 46.09     0.028 A 
ENDBRANCH   1   2
BRANCH   1  10
HETATM   10  C8    D T 502       4.558   2.515  -6.679  1.00 57.34     0.111 A 
HETATM   11  C9    D T 502       3.655   3.035  -5.620  1.00 60.97     0.081 A 
HETATM   12  C10   D T 502       3.174   2.190  -4.643  1.00 61.34     0.025 A 
HETATM   13 CL16   D T 502       3.163   4.754  -5.528  1.00 70.84    -0.080 Cl
HETATM   14  C11   D T 502       3.542   0.869  -4.671  1.00 60.50     0.059 A 
HETATM   15  C12   D T 502       4.383   0.348  -5.650  1.00 60.51     0.013 A 
HETATM   16 CL15   D T 502       2.882  -0.150  -3.380  1.00 63.55    -0.082 Cl
HETATM   17  C13   D T 502       4.896   1.166  -6.663  1.00 58.81     0.026 A 
ENDBRANCH   1  10
TORSDOF 2
ENDMDL
MODEL 8
REMARK VINA RESULT:    -6.792      2.135      2.417
REMARK INTER + INTRA:          -8.038
REMARK INTER:                  -7.849
REMARK INTRA:                  -0.189
REMARK UNBOUND:                -0.452
REMARK  2 active torsions:
REMARK  status: ('A' for Active; 'I' for Inactive)
REMARK    1  A    between atoms: C5_4  and  O7_13 
REMARK    2  A    between atoms: C8_10  and  O7_13 
ROOT
HETATM    1  O7    D T 502       5.296   3.448  -7.953  1.00 50.24    -0.304 OA
ENDROOT
BRANCH   1   2
HETATM    2  C5    D T 502       4.716   2.658  -7.010  1.00 46.69     0.125 A 
HETATM    3  C6    D T 502       5.572   1.712  -6.249  1.00 45.87     0.154 A 
HETATM    4  C1    D T 502       4.986   0.916  -5.271  1.00 45.29     0.041 A 
HETATM    5  O17   D T 502       6.893   1.641  -6.543  1.00 43.35    -0.188 OA
HETATM    6  C2    D T 502       3.606   1.041  -5.055  1.00 46.78     0.060 A 
HETATM    7  C3    D T 502       2.789   1.922  -5.764  1.00 44.62     0.014 A 
HETATM    8 CL14   D T 502       2.830   0.019  -3.816  1.00 50.36    -0.082 Cl
HETATM    9  C4    D T 502       3.354   2.732  -6.738  1.00 46.09     0.028 A 
ENDBRANCH   1   2
BRANCH   1  10
HETATM   10  C8    D T 502       5.423   3.071  -9.251  1.00 57.34     0.111 A 
HETATM   11  C9    D T 502       4.290   3.285 -10.188  1.00 60.97     0.081 A 
HETATM   12  C10   D T 502       4.398   2.900 -11.507  1.00 61.34     0.025 A 
HETATM   13 CL16   D T 502       2.739   4.017  -9.676  1.00 70.84    -0.080 Cl
HETATM   14  C11   D T 502       5.566   2.321 -11.934  1.00 60.50     0.059 A 
HETATM   15  C12   D T 502       6.648   2.108 -11.084  1.00 60.51     0.013 A 
HETATM   16 CL15   D T 502       5.625   1.852 -13.641  1.00 63.55    -0.082 Cl
HETATM   17  C13   D T 502       6.587   2.483  -9.737  1.00 58.81     0.026 A 
ENDBRANCH   1  10
TORSDOF 2
ENDMDL
MODEL 9
REMARK VINA RESULT:    -6.780      1.933      2.274
REMARK INTER + INTRA:          -8.025
REMARK INTER:                  -7.674
REMARK INTRA:                  -0.351
REMARK UNBOUND:                -0.452
REMARK  2 active torsions:
REMARK  status: ('A' for Active; 'I' for Inactive)
REMARK    1  A    between atoms: C5_4  and  O7_13 
REMARK    2  A    between atoms: C8_10  and  O7_13 
ROOT
HETATM    1  O7    D T 502       5.743   2.156  -6.667  1.00 50.24    -0.304 OA
ENDROOT
BRANCH   1   2
HETATM    2  C5    D T 502       4.724   2.813  -6.051  1.00 46.69     0.125 A 
HETATM    3  C6    D T 502       4.915   3.275  -4.653  1.00 45.87     0.154 A 
HETATM    4  C1    D T 502       3.883   3.964  -4.026  1.00 45.29     0.041 A 
HETATM    5  O17   D T 502       6.083   2.996  -4.024  1.00 43.35    -0.188 OA
HETATM    6  C2    D T 502       2.700   4.183  -4.748  1.00 46.78     0.060 A 
HETATM    7  C3    D T 502       2.504   3.753  -6.060  1.00 44.62     0.014 A 
HETATM    8 CL14   D T 502       1.356   5.051  -3.959  1.00 50.36    -0.082 Cl
HETATM    9  C4    D T 502       3.525   3.072  -6.707  1.00 46.09     0.028 A 
ENDBRANCH   1   2
BRANCH   1  10
HETATM   10  C8    D T 502       5.847   2.060  -8.017  1.00 57.34     0.111 A 
HETATM   11  C9    D T 502       5.237   0.898  -8.714  1.00 60.97     0.081 A 
HETATM   12  C10   D T 502       5.341   0.779 -10.083  1.00 61.34     0.025 A 
HETATM   13 CL16   D T 502       4.370  -0.404  -7.845  1.00 70.84    -0.080 Cl
HETATM   14  C11   D T 502       6.013   1.749 -10.784  1.00 60.50     0.059 A 
HETATM   15  C12   D T 502       6.593   2.852 -10.162  1.00 60.51     0.013 A 
HETATM   16 CL15   D T 502       6.104   1.522 -12.538  1.00 63.55    -0.082 Cl
HETATM   17  C13   D T 502       6.513   3.017  -8.775  1.00 58.81     0.026 A 
ENDBRANCH   1  10
TORSDOF 2
ENDMDL
