MODEL 1
REMARK VINA RESULT:    -9.552      0.000      0.000
REMARK INTER + INTRA:         -14.173
REMARK INTER:                 -13.461
REMARK INTRA:                  -0.713
REMARK UNBOUND:                -0.713
REMARK  7 active torsions:
REMARK  status: ('A' for Active; 'I' for Inactive)
REMARK    1  A    between atoms: N3_2  and  C20_12 
REMARK    2  A    between atoms: C4_3  and  C5_4 
REMARK    3  A    between atoms: C13_9  and  N2_29 
REMARK    4  A    between atoms: C17_11  and  C19_33 
REMARK    5  A    between atoms: C20_12  and  C16_31 
REMARK    6  A    between atoms: C2_23  and  C3_24 
REMARK    7  A    between atoms: C9_25  and  C12_27 
REMARK       I    between atoms: C12_27  and  N2_29 
ROOT
HETATM    1  C12   D T   1      -7.647  -1.524  -5.588  1.00 29.52     0.279 C 
HETATM    2  O1    D T   1      -7.603  -1.798  -4.385  1.00 32.52    -0.265 OA
HETATM    3  N2    D T   1      -6.896  -2.131  -6.526  1.00 29.90    -0.208 NA
ENDROOT
BRANCH   1   4
HETATM    4  C9    D T   1      -8.580  -0.458  -6.080  1.00 29.36     0.059 A 
HETATM    5  C8    D T   1      -9.970  -0.718  -6.384  1.00 30.11     0.004 A 
HETATM    6  C7    D T   1     -10.813   0.332  -6.855  1.00 28.94    -0.004 A 
HETATM    7  C6    D T   1     -10.288   1.663  -7.024  1.00 28.77    -0.014 A 
HETATM    8  C5    D T   1      -8.883   1.916  -6.712  1.00 26.45     0.038 A 
HETATM    9  C11   D T   1     -11.236   2.752  -7.525  1.00 28.14     0.032 C 
HETATM   10  C10   D T   1      -8.068   0.855  -6.250  1.00 27.23     0.013 A 
BRANCH   8  11
HETATM   11  C4    D T   1      -8.240   3.220  -6.828  1.00 24.91    -0.058 C 
HETATM   12  C3    D T   1      -7.788   4.350  -6.900  1.00 23.74    -0.039 C 
BRANCH  12  13
HETATM   13  C2    D T   1      -7.358   5.685  -6.985  1.00 23.00     0.145 A 
HETATM   14  N82   D T   1      -7.981   6.785  -6.458  1.00 25.15    -0.203 N 
HETATM   15  N81   D T   1      -9.157   6.816  -5.736  1.00 28.83    -0.162 NA
HETATM   16  C84   D T   1      -7.153   7.880  -6.820  1.00 26.40     0.165 A 
HETATM   17  C83   D T   1      -9.507   8.055  -5.363  1.00 28.11     0.121 A 
HETATM   18  C82   D T   1      -8.783   9.248  -5.652  1.00 26.65     0.026 A 
HETATM   19  C81   D T   1      -7.606   9.164  -6.377  1.00 28.42     0.041 A 
HETATM   20  N1    D T   1      -6.104   7.475  -7.512  1.00 27.29    -0.223 NA
HETATM   21  C1    D T   1      -6.234   6.103  -7.618  1.00 23.61     0.128 A 
ENDBRANCH  12  13
ENDBRANCH   8  11
ENDBRANCH   1   4
BRANCH   3  22
HETATM   22  C13   D T   1      -6.194  -3.360  -6.423  1.00 31.24     0.085 A 
HETATM   23  C14   D T   1      -6.766  -4.494  -7.049  1.00 32.94     0.019 A 
HETATM   24  C15   D T   1      -6.106  -5.761  -6.981  1.00 32.88    -0.001 A 
HETATM   25  C16   D T   1      -4.847  -5.919  -6.282  1.00 31.70     0.015 A 
HETATM   26  C17   D T   1      -4.250  -4.744  -5.632  1.00 32.08     0.071 A 
HETATM   27  C18   D T   1      -4.942  -3.498  -5.723  1.00 32.72     0.023 A 
BRANCH  25  28
HETATM   28  C20   D T   1      -4.210  -7.330  -6.270  1.00 29.95     0.277 C 
BRANCH  28  29
HETATM   29  N3    D T   1      -4.942  -8.343  -7.042  1.00 31.16     0.146 N 
HETATM   30  C21   D T   1      -4.106  -9.529  -7.399  1.00 32.15     0.286 C 
HETATM   31  C22   D T   1      -4.887 -10.474  -8.339  1.00 31.08     0.286 C 
HETATM   32  N4    D T   1      -6.093 -10.977  -7.651  1.00 32.74     0.143 N 
HETATM   33  C23   D T   1      -6.954  -9.839  -7.203  1.00 30.79     0.286 C 
HETATM   34  C25   D T   1      -6.812 -11.947  -8.466  1.00 30.23     0.285 C 
HETATM   35  C24   D T   1      -6.162  -8.799  -6.350  1.00 28.48     0.286 C 
ENDBRANCH  28  29
ENDBRANCH  25  28
BRANCH  26  36
HETATM   36  C19   D T   1      -2.913  -4.765  -4.858  1.00 33.23     0.419 C 
HETATM   37  F1    D T   1      -2.723  -3.601  -4.264  1.00 33.40    -0.166 F 
HETATM   38  F2    D T   1      -2.889  -5.689  -3.901  1.00 31.99    -0.166 F 
HETATM   39  F3    D T   1      -1.889  -5.021  -5.676  1.00 36.12    -0.166 F 
ENDBRANCH  26  36
ENDBRANCH   3  22
TORSDOF 7
ENDMDL
MODEL 2
REMARK VINA RESULT:    -9.494      3.071     13.155
REMARK INTER + INTRA:         -14.092
REMARK INTER:                 -12.871
REMARK INTRA:                  -1.220
REMARK UNBOUND:                -0.713
REMARK  7 active torsions:
REMARK  status: ('A' for Active; 'I' for Inactive)
REMARK    1  A    between atoms: N3_2  and  C20_12 
REMARK    2  A    between atoms: C4_3  and  C5_4 
REMARK    3  A    between atoms: C13_9  and  N2_29 
REMARK    4  A    between atoms: C17_11  and  C19_33 
REMARK    5  A    between atoms: C20_12  and  C16_31 
REMARK    6  A    between atoms: C2_23  and  C3_24 
REMARK    7  A    between atoms: C9_25  and  C12_27 
REMARK       I    between atoms: C12_27  and  N2_29 
ROOT
HETATM    1  C12   D T   1      -6.172  -2.904  -6.626  1.00 29.52     0.279 C 
HETATM    2  O1    D T   1      -6.919  -3.221  -7.556  1.00 32.52    -0.265 OA
HETATM    3  N2    D T   1      -6.230  -1.723  -5.982  1.00 29.90    -0.208 NA
ENDROOT
BRANCH   1   4
HETATM    4  C9    D T   1      -5.120  -3.861  -6.150  1.00 29.36     0.059 A 
HETATM    5  C8    D T   1      -3.999  -3.445  -5.335  1.00 30.11     0.004 A 
HETATM    6  C7    D T   1      -3.023  -4.397  -4.914  1.00 28.94    -0.004 A 
HETATM    7  C6    D T   1      -3.150  -5.782  -5.291  1.00 28.77    -0.014 A 
HETATM    8  C5    D T   1      -4.287  -6.192  -6.112  1.00 26.45     0.038 A 
HETATM    9  C11   D T   1      -2.080  -6.759  -4.807  1.00 28.14     0.032 C 
HETATM   10  C10   D T   1      -5.239  -5.226  -6.518  1.00 27.23     0.013 A 
BRANCH   8  11
HETATM   11  C4    D T   1      -4.533  -7.563  -6.544  1.00 24.91    -0.058 C 
HETATM   12  C3    D T   1      -4.831  -8.683  -6.922  1.00 23.74    -0.039 C 
BRANCH  12  13
HETATM   13  C2    D T   1      -5.267  -9.950  -7.346  1.00 23.00     0.145 A 
HETATM   14  N82   D T   1      -6.386 -10.618  -6.926  1.00 25.15    -0.203 N 
HETATM   15  N81   D T   1      -7.317 -10.192  -6.000  1.00 28.83    -0.162 NA
HETATM   16  C84   D T   1      -6.372 -11.840  -7.647  1.00 26.40     0.165 A 
HETATM   17  C83   D T   1      -8.300 -11.083  -5.802  1.00 28.11     0.121 A 
HETATM   18  C82   D T   1      -8.420 -12.348  -6.447  1.00 26.65     0.026 A 
HETATM   19  C81   D T   1      -7.461 -12.728  -7.371  1.00 28.42     0.041 A 
HETATM   20  N1    D T   1      -5.325 -11.908  -8.449  1.00 27.29    -0.223 NA
HETATM   21  C1    D T   1      -4.633 -10.727  -8.258  1.00 23.61     0.128 A 
ENDBRANCH  12  13
ENDBRANCH   8  11
ENDBRANCH   1   4
BRANCH   3  22
HETATM   22  C13   D T   1      -7.293  -0.783  -5.977  1.00 31.24     0.085 A 
HETATM   23  C14   D T   1      -7.117   0.406  -6.725  1.00 32.94     0.019 A 
HETATM   24  C15   D T   1      -8.152   1.392  -6.760  1.00 32.88    -0.001 A 
HETATM   25  C16   D T   1      -9.397   1.205  -6.045  1.00 31.70     0.015 A 
HETATM   26  C17   D T   1      -9.584  -0.029  -5.269  1.00 32.08     0.071 A 
HETATM   27  C18   D T   1      -8.525  -0.987  -5.258  1.00 32.72     0.023 A 
BRANCH  25  28
HETATM   28  C20   D T   1     -10.457   2.328  -6.151  1.00 29.95     0.277 C 
BRANCH  28  29
HETATM   29  N3    D T   1      -9.923   3.692  -6.046  1.00 31.16     0.146 N 
HETATM   30  C21   D T   1     -10.772   4.712  -6.733  1.00 32.15     0.286 C 
HETATM   31  C22   D T   1     -10.073   6.090  -6.719  1.00 31.08     0.286 C 
HETATM   32  N4    D T   1      -9.886   6.541  -5.325  1.00 32.74     0.143 N 
HETATM   33  C23   D T   1      -9.097   5.534  -4.550  1.00 30.79     0.286 C 
HETATM   34  C25   D T   1      -9.316   7.880  -5.265  1.00 30.23     0.285 C 
HETATM   35  C24   D T   1      -9.709   4.102  -4.644  1.00 28.48     0.286 C 
ENDBRANCH  28  29
ENDBRANCH  25  28
BRANCH  26  36
HETATM   36  C19   D T   1     -10.860  -0.363  -4.462  1.00 33.23     0.419 C 
HETATM   37  F1    D T   1     -11.882  -0.507  -5.285  1.00 33.40    -0.166 F 
HETATM   38  F2    D T   1     -10.754  -1.502  -3.783  1.00 31.99    -0.166 F 
HETATM   39  F3    D T   1     -11.132   0.599  -3.576  1.00 36.12    -0.166 F 
ENDBRANCH  26  36
ENDBRANCH   3  22
TORSDOF 7
ENDMDL
MODEL 3
REMARK VINA RESULT:    -9.032      2.980     13.015
REMARK INTER + INTRA:         -13.441
REMARK INTER:                 -12.192
REMARK INTRA:                  -1.249
REMARK UNBOUND:                -0.713
REMARK  7 active torsions:
REMARK  status: ('A' for Active; 'I' for Inactive)
REMARK    1  A    between atoms: N3_2  and  C20_12 
REMARK    2  A    between atoms: C4_3  and  C5_4 
REMARK    3  A    between atoms: C13_9  and  N2_29 
REMARK    4  A    between atoms: C17_11  and  C19_33 
REMARK    5  A    between atoms: C20_12  and  C16_31 
REMARK    6  A    between atoms: C2_23  and  C3_24 
REMARK    7  A    between atoms: C9_25  and  C12_27 
REMARK       I    between atoms: C12_27  and  N2_29 
ROOT
HETATM    1  C12   D T   1      -5.089  -2.711  -5.377  1.00 29.52     0.279 C 
HETATM    2  O1    D T   1      -4.526  -1.729  -4.883  1.00 32.52    -0.265 OA
HETATM    3  N2    D T   1      -6.331  -2.685  -5.895  1.00 29.90    -0.208 NA
ENDROOT
BRANCH   1   4
HETATM    4  C9    D T   1      -4.384  -4.033  -5.425  1.00 29.36     0.059 A 
HETATM    5  C8    D T   1      -3.009  -4.200  -5.006  1.00 30.11     0.004 A 
HETATM    6  C7    D T   1      -2.384  -5.480  -5.078  1.00 28.94    -0.004 A 
HETATM    7  C6    D T   1      -3.120  -6.621  -5.560  1.00 28.77    -0.014 A 
HETATM    8  C5    D T   1      -4.509  -6.443  -5.978  1.00 26.45     0.038 A 
HETATM    9  C11   D T   1      -2.405  -7.970  -5.610  1.00 28.14     0.032 C 
HETATM   10  C10   D T   1      -5.103  -5.161  -5.900  1.00 27.23     0.013 A 
BRANCH   8  11
HETATM   11  C4    D T   1      -5.361  -7.521  -6.469  1.00 24.91    -0.058 C 
HETATM   12  C3    D T   1      -6.019  -8.422  -6.959  1.00 23.74    -0.039 C 
BRANCH  12  13
HETATM   13  C2    D T   1      -6.739  -9.438  -7.611  1.00 23.00     0.145 A 
HETATM   14  N82   D T   1      -6.268 -10.667  -7.989  1.00 25.15    -0.203 N 
HETATM   15  N81   D T   1      -4.992 -11.166  -7.812  1.00 28.83    -0.162 NA
HETATM   16  C84   D T   1      -7.375 -11.309  -8.602  1.00 26.40     0.165 A 
HETATM   17  C83   D T   1      -4.846 -12.407  -8.299  1.00 28.11     0.121 A 
HETATM   18  C82   D T   1      -5.861 -13.175  -8.941  1.00 26.65     0.026 A 
HETATM   19  C81   D T   1      -7.125 -12.631  -9.091  1.00 28.42     0.041 A 
HETATM   20  N1    D T   1      -8.441 -10.528  -8.594  1.00 27.29    -0.223 NA
HETATM   21  C1    D T   1      -8.041  -9.358  -7.977  1.00 23.61     0.128 A 
ENDBRANCH  12  13
ENDBRANCH   8  11
ENDBRANCH   1   4
BRANCH   3  22
HETATM   22  C13   D T   1      -7.091  -1.553  -6.286  1.00 31.24     0.085 A 
HETATM   23  C14   D T   1      -6.603  -0.779  -7.367  1.00 32.94     0.019 A 
HETATM   24  C15   D T   1      -7.325   0.374  -7.808  1.00 32.88    -0.001 A 
HETATM   25  C16   D T   1      -8.562   0.778  -7.172  1.00 31.70     0.015 A 
HETATM   26  C17   D T   1      -9.072  -0.023  -6.051  1.00 32.08     0.071 A 
HETATM   27  C18   D T   1      -8.320  -1.166  -5.641  1.00 32.72     0.023 A 
BRANCH  25  28
HETATM   28  C20   D T   1      -9.271   2.038  -7.727  1.00 29.95     0.277 C 
BRANCH  28  29
HETATM   29  N3    D T   1      -8.499   3.281  -7.610  1.00 31.16     0.146 N 
HETATM   30  C21   D T   1      -9.096   4.421  -8.371  1.00 32.15     0.286 C 
HETATM   31  C22   D T   1      -8.155   5.645  -8.334  1.00 31.08     0.286 C 
HETATM   32  N4    D T   1      -7.975   6.094  -6.939  1.00 32.74     0.143 N 
HETATM   33  C23   D T   1      -7.438   4.982  -6.095  1.00 30.79     0.286 C 
HETATM   34  C25   D T   1      -7.169   7.305  -6.863  1.00 30.23     0.285 C 
HETATM   35  C24   D T   1      -8.300   3.686  -6.205  1.00 28.48     0.286 C 
ENDBRANCH  28  29
ENDBRANCH  25  28
BRANCH  26  36
HETATM   36  C19   D T   1     -10.377   0.288  -5.284  1.00 33.23     0.419 C 
HETATM   37  F1    D T   1     -11.415   0.115  -6.082  1.00 33.40    -0.166 F 
HETATM   38  F2    D T   1     -10.563  -0.514  -4.239  1.00 31.99    -0.166 F 
HETATM   39  F3    D T   1     -10.374   1.541  -4.822  1.00 36.12    -0.166 F 
ENDBRANCH  26  36
ENDBRANCH   3  22
TORSDOF 7
ENDMDL
MODEL 4
REMARK VINA RESULT:    -8.957      3.655      6.181
REMARK INTER + INTRA:         -13.336
REMARK INTER:                 -12.249
REMARK INTRA:                  -1.087
REMARK UNBOUND:                -0.713
REMARK  7 active torsions:
REMARK  status: ('A' for Active; 'I' for Inactive)
REMARK    1  A    between atoms: N3_2  and  C20_12 
REMARK    2  A    between atoms: C4_3  and  C5_4 
REMARK    3  A    between atoms: C13_9  and  N2_29 
REMARK    4  A    between atoms: C17_11  and  C19_33 
REMARK    5  A    between atoms: C20_12  and  C16_31 
REMARK    6  A    between atoms: C2_23  and  C3_24 
REMARK    7  A    between atoms: C9_25  and  C12_27 
REMARK       I    between atoms: C12_27  and  N2_29 
ROOT
HETATM    1  C12   D T   1      -8.593   2.951  -7.310  1.00 29.52     0.279 C 
HETATM    2  O1    D T   1      -9.245   2.602  -8.299  1.00 32.52    -0.265 OA
HETATM    3  N2    D T   1      -8.018   2.094  -6.446  1.00 29.90    -0.208 NA
ENDROOT
BRANCH   1   4
HETATM    4  C9    D T   1      -8.405   4.409  -7.013  1.00 29.36     0.059 A 
HETATM    5  C8    D T   1      -7.214   5.135  -7.398  1.00 30.11     0.004 A 
HETATM    6  C7    D T   1      -7.083   6.521  -7.086  1.00 28.94    -0.004 A 
HETATM    7  C6    D T   1      -8.141   7.211  -6.392  1.00 28.77    -0.014 A 
HETATM    8  C5    D T   1      -9.341   6.469  -6.010  1.00 26.45     0.038 A 
HETATM    9  C11   D T   1      -7.952   8.697  -6.089  1.00 28.14     0.032 C 
HETATM   10  C10   D T   1      -9.443   5.094  -6.330  1.00 27.23     0.013 A 
BRANCH   8  11
HETATM   11  C4    D T   1     -10.483   7.059  -5.320  1.00 24.91    -0.058 C 
HETATM   12  C3    D T   1     -11.433   7.477  -4.681  1.00 23.74    -0.039 C 
BRANCH  12  13
HETATM   13  C2    D T   1     -12.536   7.871  -3.905  1.00 23.00     0.145 A 
HETATM   14  N82   D T   1     -13.270   7.083  -3.059  1.00 25.15    -0.203 N 
HETATM   15  N81   D T   1     -13.084   5.741  -2.791  1.00 28.83    -0.162 NA
HETATM   16  C84   D T   1     -14.260   7.947  -2.524  1.00 26.40     0.165 A 
HETATM   17  C83   D T   1     -13.977   5.255  -1.916  1.00 28.11     0.121 A 
HETATM   18  C82   D T   1     -15.026   5.996  -1.299  1.00 26.65     0.026 A 
HETATM   19  C81   D T   1     -15.168   7.341  -1.598  1.00 28.42     0.041 A 
HETATM   20  N1    D T   1     -14.135   9.170  -3.007  1.00 27.29    -0.223 NA
HETATM   21  C1    D T   1     -13.059   9.121  -3.872  1.00 23.61     0.128 A 
ENDBRANCH  12  13
ENDBRANCH   8  11
ENDBRANCH   1   4
BRANCH   3  22
HETATM   22  C13   D T   1      -7.745   0.714  -6.636  1.00 31.24     0.085 A 
HETATM   23  C14   D T   1      -6.838   0.364  -7.665  1.00 32.94     0.019 A 
HETATM   24  C15   D T   1      -6.521  -1.010  -7.906  1.00 32.88    -0.001 A 
HETATM   25  C16   D T   1      -7.108  -2.070  -7.112  1.00 31.70     0.015 A 
HETATM   26  C17   D T   1      -8.048  -1.709  -6.042  1.00 32.08     0.071 A 
HETATM   27  C18   D T   1      -8.339  -0.326  -5.836  1.00 32.72     0.023 A 
BRANCH  25  28
HETATM   28  C20   D T   1      -6.696  -3.524  -7.447  1.00 29.95     0.277 C 
BRANCH  28  29
HETATM   29  N3    D T   1      -5.715  -4.114  -6.529  1.00 31.16     0.146 N 
HETATM   30  C21   D T   1      -5.567  -5.593  -6.694  1.00 32.15     0.286 C 
HETATM   31  C22   D T   1      -4.643  -6.167  -5.597  1.00 31.08     0.286 C 
HETATM   32  N4    D T   1      -3.296  -5.574  -5.718  1.00 32.74     0.143 N 
HETATM   33  C23   D T   1      -3.369  -4.082  -5.627  1.00 30.79     0.286 C 
HETATM   34  C25   D T   1      -2.364  -6.156  -4.762  1.00 30.23     0.285 C 
HETATM   35  C24   D T   1      -4.388  -3.478  -6.643  1.00 28.48     0.286 C 
ENDBRANCH  28  29
ENDBRANCH  25  28
BRANCH  26  36
HETATM   36  C19   D T   1      -8.745  -2.733  -5.117  1.00 33.23     0.419 C 
HETATM   37  F1    D T   1      -9.394  -3.622  -5.845  1.00 33.40    -0.166 F 
HETATM   38  F2    D T   1      -7.885  -3.412  -4.363  1.00 31.99    -0.166 F 
HETATM   39  F3    D T   1      -9.599  -2.126  -4.288  1.00 36.12    -0.166 F 
ENDBRANCH  26  36
ENDBRANCH   3  22
TORSDOF 7
ENDMDL
MODEL 5
REMARK VINA RESULT:    -8.878      3.021     12.638
REMARK INTER + INTRA:         -13.225
REMARK INTER:                 -12.151
REMARK INTRA:                  -1.074
REMARK UNBOUND:                -0.713
REMARK  7 active torsions:
REMARK  status: ('A' for Active; 'I' for Inactive)
REMARK    1  A    between atoms: N3_2  and  C20_12 
REMARK    2  A    between atoms: C4_3  and  C5_4 
REMARK    3  A    between atoms: C13_9  and  N2_29 
REMARK    4  A    between atoms: C17_11  and  C19_33 
REMARK    5  A    between atoms: C20_12  and  C16_31 
REMARK    6  A    between atoms: C2_23  and  C3_24 
REMARK    7  A    between atoms: C9_25  and  C12_27 
REMARK       I    between atoms: C12_27  and  N2_29 
ROOT
HETATM    1  C12   D T   1      -4.898  -3.078  -5.650  1.00 29.52     0.279 C 
HETATM    2  O1    D T   1      -4.347  -1.987  -5.829  1.00 32.52    -0.265 OA
HETATM    3  N2    D T   1      -6.230  -3.240  -5.545  1.00 29.90    -0.208 NA
ENDROOT
BRANCH   1   4
HETATM    4  C9    D T   1      -4.073  -4.325  -5.538  1.00 29.36     0.059 A 
HETATM    5  C8    D T   1      -2.777  -4.347  -4.894  1.00 30.11     0.004 A 
HETATM    6  C7    D T   1      -2.031  -5.560  -4.820  1.00 28.94    -0.004 A 
HETATM    7  C6    D T   1      -2.565  -6.776  -5.377  1.00 28.77    -0.014 A 
HETATM    8  C5    D T   1      -3.876  -6.744  -6.023  1.00 26.45     0.038 A 
HETATM    9  C11   D T   1      -1.727  -8.049  -5.264  1.00 28.14     0.032 C 
HETATM   10  C10   D T   1      -4.594  -5.526  -6.085  1.00 27.23     0.013 A 
BRANCH   8  11
HETATM   11  C4    D T   1      -4.529  -7.910  -6.609  1.00 24.91    -0.058 C 
HETATM   12  C3    D T   1      -4.986  -8.914  -7.126  1.00 23.74    -0.039 C 
BRANCH  12  13
HETATM   13  C2    D T   1      -5.429 -10.083  -7.768  1.00 23.00     0.145 A 
HETATM   14  N82   D T   1      -6.665 -10.303  -8.316  1.00 25.15    -0.203 N 
HETATM   15  N81   D T   1      -7.732  -9.428  -8.353  1.00 28.83    -0.162 NA
HETATM   16  C84   D T   1      -6.605 -11.624  -8.832  1.00 26.40     0.165 A 
HETATM   17  C83   D T   1      -8.810  -9.946  -8.959  1.00 28.11     0.121 A 
HETATM   18  C82   D T   1      -8.902 -11.252  -9.522  1.00 26.65     0.026 A 
HETATM   19  C81   D T   1      -7.802 -12.091  -9.462  1.00 28.42     0.041 A 
HETATM   20  N1    D T   1      -5.420 -12.165  -8.616  1.00 27.29    -0.223 NA
HETATM   21  C1    D T   1      -4.686 -11.202  -7.948  1.00 23.61     0.128 A 
ENDBRANCH  12  13
ENDBRANCH   8  11
ENDBRANCH   1   4
BRANCH   3  22
HETATM   22  C13   D T   1      -7.253  -2.336  -5.931  1.00 31.24     0.085 A 
HETATM   23  C14   D T   1      -7.894  -1.599  -4.906  1.00 32.94     0.019 A 
HETATM   24  C15   D T   1      -8.933  -0.671  -5.232  1.00 32.88    -0.001 A 
HETATM   25  C16   D T   1      -9.352  -0.458  -6.602  1.00 31.70     0.015 A 
HETATM   26  C17   D T   1      -8.687  -1.220  -7.668  1.00 32.08     0.071 A 
HETATM   27  C18   D T   1      -7.657  -2.137  -7.300  1.00 32.72     0.023 A 
BRANCH  25  28
HETATM   28  C20   D T   1     -10.481   0.572  -6.850  1.00 29.95     0.277 C 
BRANCH  28  29
HETATM   29  N3    D T   1     -10.062   1.977  -6.770  1.00 31.16     0.146 N 
HETATM   30  C21   D T   1     -10.485   2.648  -5.504  1.00 32.15     0.286 C 
HETATM   31  C22   D T   1     -10.153   4.156  -5.556  1.00 31.08     0.286 C 
HETATM   32  N4    D T   1      -8.693   4.341  -5.685  1.00 32.74     0.143 N 
HETATM   33  C23   D T   1      -8.181   3.638  -6.903  1.00 30.79     0.286 C 
HETATM   34  C25   D T   1      -8.324   5.749  -5.644  1.00 30.23     0.285 C 
HETATM   35  C24   D T   1      -8.605   2.137  -6.942  1.00 28.48     0.286 C 
ENDBRANCH  28  29
ENDBRANCH  25  28
BRANCH  26  36
HETATM   36  C19   D T   1      -9.029  -1.091  -9.170  1.00 33.23     0.419 C 
HETATM   37  F1    D T   1      -8.719   0.120  -9.595  1.00 33.40    -0.166 F 
HETATM   38  F2    D T   1      -8.348  -1.947  -9.927  1.00 31.99    -0.166 F 
HETATM   39  F3    D T   1     -10.327  -1.322  -9.388  1.00 36.12    -0.166 F 
ENDBRANCH  26  36
ENDBRANCH   3  22
TORSDOF 7
ENDMDL
MODEL 6
REMARK VINA RESULT:    -8.779      4.145     12.562
REMARK INTER + INTRA:         -13.085
REMARK INTER:                 -11.822
REMARK INTRA:                  -1.263
REMARK UNBOUND:                -0.713
REMARK  7 active torsions:
REMARK  status: ('A' for Active; 'I' for Inactive)
REMARK    1  A    between atoms: N3_2  and  C20_12 
REMARK    2  A    between atoms: C4_3  and  C5_4 
REMARK    3  A    between atoms: C13_9  and  N2_29 
REMARK    4  A    between atoms: C17_11  and  C19_33 
REMARK    5  A    between atoms: C20_12  and  C16_31 
REMARK    6  A    between atoms: C2_23  and  C3_24 
REMARK    7  A    between atoms: C9_25  and  C12_27 
REMARK       I    between atoms: C12_27  and  N2_29 
ROOT
HETATM    1  C12   D T   1      -5.703  -2.044  -6.705  1.00 29.52     0.279 C 
HETATM    2  O1    D T   1      -5.601  -1.698  -7.886  1.00 32.52    -0.265 OA
HETATM    3  N2    D T   1      -6.601  -1.528  -5.845  1.00 29.90    -0.208 NA
ENDROOT
BRANCH   1   4
HETATM    4  C9    D T   1      -4.794  -3.099  -6.152  1.00 29.36     0.059 A 
HETATM    5  C8    D T   1      -3.665  -2.789  -5.302  1.00 30.11     0.004 A 
HETATM    6  C7    D T   1      -2.827  -3.833  -4.808  1.00 28.94    -0.004 A 
HETATM    7  C6    D T   1      -3.105  -5.206  -5.143  1.00 28.77    -0.014 A 
HETATM    8  C5    D T   1      -4.249  -5.510  -5.999  1.00 26.45     0.038 A 
HETATM    9  C11   D T   1      -2.180  -6.285  -4.580  1.00 28.14     0.032 C 
HETATM   10  C10   D T   1      -5.062  -4.454  -6.479  1.00 27.23     0.013 A 
BRANCH   8  11
HETATM   11  C4    D T   1      -4.641  -6.858  -6.396  1.00 24.91    -0.058 C 
HETATM   12  C3    D T   1      -4.919  -7.970  -6.809  1.00 23.74    -0.039 C 
BRANCH  12  13
HETATM   13  C2    D T   1      -5.212  -9.223  -7.373  1.00 23.00     0.145 A 
HETATM   14  N82   D T   1      -6.399  -9.617  -7.932  1.00 25.15    -0.203 N 
HETATM   15  N81   D T   1      -7.553  -8.870  -8.058  1.00 28.83    -0.162 NA
HETATM   16  C84   D T   1      -6.179 -10.956  -8.348  1.00 26.40     0.165 A 
HETATM   17  C83   D T   1      -8.549  -9.546  -8.650  1.00 28.11     0.121 A 
HETATM   18  C82   D T   1      -8.481 -10.891  -9.117  1.00 26.65     0.026 A 
HETATM   19  C81   D T   1      -7.298 -11.597  -8.970  1.00 28.42     0.041 A 
HETATM   20  N1    D T   1      -4.949 -11.346  -8.065  1.00 27.29    -0.223 NA
HETATM   21  C1    D T   1      -4.346 -10.264  -7.453  1.00 23.61     0.128 A 
ENDBRANCH  12  13
ENDBRANCH   8  11
ENDBRANCH   1   4
BRANCH   3  22
HETATM   22  C13   D T   1      -7.773  -0.787  -6.146  1.00 31.24     0.085 A 
HETATM   23  C14   D T   1      -9.001  -1.491  -6.183  1.00 32.94     0.019 A 
HETATM   24  C15   D T   1     -10.217  -0.799  -6.480  1.00 32.88    -0.001 A 
HETATM   25  C16   D T   1     -10.229   0.625  -6.744  1.00 31.70     0.015 A 
HETATM   26  C17   D T   1      -8.957   1.360  -6.704  1.00 32.08     0.071 A 
HETATM   27  C18   D T   1      -7.766   0.631  -6.406  1.00 32.72     0.023 A 
BRANCH  25  28
HETATM   28  C20   D T   1     -11.597   1.282  -7.050  1.00 29.95     0.277 C 
BRANCH  28  29
HETATM   29  N3    D T   1     -12.398   1.618  -5.866  1.00 31.16     0.146 N 
HETATM   30  C21   D T   1     -12.735   3.071  -5.775  1.00 32.15     0.286 C 
HETATM   31  C22   D T   1     -13.438   3.378  -4.434  1.00 31.08     0.286 C 
HETATM   32  N4    D T   1     -14.706   2.626  -4.351  1.00 32.74     0.143 N 
HETATM   33  C23   D T   1     -14.457   1.158  -4.501  1.00 30.79     0.286 C 
HETATM   34  C25   D T   1     -15.450   2.956  -3.143  1.00 30.23     0.285 C 
HETATM   35  C24   D T   1     -13.640   0.825  -5.788  1.00 28.48     0.286 C 
ENDBRANCH  28  29
ENDBRANCH  25  28
BRANCH  26  36
HETATM   36  C19   D T   1      -8.822   2.878  -6.961  1.00 33.23     0.419 C 
HETATM   37  F1    D T   1      -7.552   3.232  -6.882  1.00 33.40    -0.166 F 
HETATM   38  F2    D T   1      -9.242   3.233  -8.172  1.00 31.99    -0.166 F 
HETATM   39  F3    D T   1      -9.536   3.579  -6.076  1.00 36.12    -0.166 F 
ENDBRANCH  26  36
ENDBRANCH   3  22
TORSDOF 7
ENDMDL
MODEL 7
REMARK VINA RESULT:    -8.775      3.828     13.077
REMARK INTER + INTRA:         -13.078
REMARK INTER:                 -11.804
REMARK INTRA:                  -1.275
REMARK UNBOUND:                -0.713
REMARK  7 active torsions:
REMARK  status: ('A' for Active; 'I' for Inactive)
REMARK    1  A    between atoms: N3_2  and  C20_12 
REMARK    2  A    between atoms: C4_3  and  C5_4 
REMARK    3  A    between atoms: C13_9  and  N2_29 
REMARK    4  A    between atoms: C17_11  and  C19_33 
REMARK    5  A    between atoms: C20_12  and  C16_31 
REMARK    6  A    between atoms: C2_23  and  C3_24 
REMARK    7  A    between atoms: C9_25  and  C12_27 
REMARK       I    between atoms: C12_27  and  N2_29 
ROOT
HETATM    1  C12   D T   1      -6.239  -0.794  -7.229  1.00 29.52     0.279 C 
HETATM    2  O1    D T   1      -6.121  -0.424  -8.401  1.00 32.52    -0.265 OA
HETATM    3  N2    D T   1      -6.992  -0.160  -6.311  1.00 29.90    -0.208 NA
ENDROOT
BRANCH   1   4
HETATM    4  C9    D T   1      -5.519  -2.021  -6.754  1.00 29.36     0.059 A 
HETATM    5  C8    D T   1      -4.250  -1.962  -6.063  1.00 30.11     0.004 A 
HETATM    6  C7    D T   1      -3.605  -3.161  -5.638  1.00 28.94    -0.004 A 
HETATM    7  C6    D T   1      -4.216  -4.442  -5.887  1.00 28.77    -0.014 A 
HETATM    8  C5    D T   1      -5.500  -4.491  -6.583  1.00 26.45     0.038 A 
HETATM    9  C11   D T   1      -3.486  -5.694  -5.404  1.00 28.14     0.032 C 
HETATM   10  C10   D T   1      -6.117  -3.285  -6.997  1.00 27.23     0.013 A 
BRANCH   8  11
HETATM   11  C4    D T   1      -6.225  -5.722  -6.879  1.00 24.91    -0.058 C 
HETATM   12  C3    D T   1      -6.745  -6.789  -7.152  1.00 23.74    -0.039 C 
BRANCH  12  13
HETATM   13  C2    D T   1      -7.265  -8.043  -7.515  1.00 23.00     0.145 A 
HETATM   14  N82   D T   1      -6.569  -9.215  -7.648  1.00 25.15    -0.203 N 
HETATM   15  N81   D T   1      -5.216  -9.413  -7.455  1.00 28.83    -0.162 NA
HETATM   16  C84   D T   1      -7.542 -10.176  -8.029  1.00 26.40     0.165 A 
HETATM   17  C83   D T   1      -4.838 -10.681  -7.669  1.00 28.11     0.121 A 
HETATM   18  C82   D T   1      -5.696 -11.752  -8.057  1.00 26.65     0.026 A 
HETATM   19  C81   D T   1      -7.047 -11.503  -8.235  1.00 28.42     0.041 A 
HETATM   20  N1    D T   1      -8.741  -9.628  -8.118  1.00 27.29    -0.223 NA
HETATM   21  C1    D T   1      -8.566  -8.295  -7.800  1.00 23.61     0.128 A 
ENDBRANCH  12  13
ENDBRANCH   8  11
ENDBRANCH   1   4
BRANCH   3  22
HETATM   22  C13   D T   1      -8.017   0.796  -6.532  1.00 31.24     0.085 A 
HETATM   23  C14   D T   1      -9.357   0.343  -6.467  1.00 32.94     0.019 A 
HETATM   24  C15   D T   1     -10.436   1.258  -6.680  1.00 32.88    -0.001 A 
HETATM   25  C16   D T   1     -10.192   2.658  -6.961  1.00 31.70     0.015 A 
HETATM   26  C17   D T   1      -8.803   3.132  -7.027  1.00 32.08     0.071 A 
HETATM   27  C18   D T   1      -7.756   2.185  -6.810  1.00 32.72     0.023 A 
BRANCH  25  28
HETATM   28  C20   D T   1     -11.427   3.569  -7.170  1.00 29.95     0.277 C 
BRANCH  28  29
HETATM   29  N3    D T   1     -11.784   4.399  -6.014  1.00 31.16     0.146 N 
HETATM   30  C21   D T   1     -12.147   5.801  -6.383  1.00 32.15     0.286 C 
HETATM   31  C22   D T   1     -12.356   6.656  -5.113  1.00 31.08     0.286 C 
HETATM   32  N4    D T   1     -13.474   6.106  -4.321  1.00 32.74     0.143 N 
HETATM   33  C23   D T   1     -13.214   4.677  -3.966  1.00 30.79     0.286 C 
HETATM   34  C25   D T   1     -13.770   6.936  -3.160  1.00 30.23     0.285 C 
HETATM   35  C24   D T   1     -12.877   3.808  -5.218  1.00 28.48     0.286 C 
ENDBRANCH  28  29
ENDBRANCH  25  28
BRANCH  26  36
HETATM   36  C19   D T   1      -8.397   4.595  -7.313  1.00 33.23     0.419 C 
HETATM   37  F1    D T   1      -7.091   4.667  -7.501  1.00 33.40    -0.166 F 
HETATM   38  F2    D T   1      -8.968   5.081  -8.412  1.00 31.99    -0.166 F 
HETATM   39  F3    D T   1      -8.746   5.396  -6.302  1.00 36.12    -0.166 F 
ENDBRANCH  26  36
ENDBRANCH   3  22
TORSDOF 7
ENDMDL
MODEL 8
REMARK VINA RESULT:    -8.645      3.282     12.790
REMARK INTER + INTRA:         -12.895
REMARK INTER:                 -11.642
REMARK INTRA:                  -1.254
REMARK UNBOUND:                -0.713
REMARK  7 active torsions:
REMARK  status: ('A' for Active; 'I' for Inactive)
REMARK    1  A    between atoms: N3_2  and  C20_12 
REMARK    2  A    between atoms: C4_3  and  C5_4 
REMARK    3  A    between atoms: C13_9  and  N2_29 
REMARK    4  A    between atoms: C17_11  and  C19_33 
REMARK    5  A    between atoms: C20_12  and  C16_31 
REMARK    6  A    between atoms: C2_23  and  C3_24 
REMARK    7  A    between atoms: C9_25  and  C12_27 
REMARK       I    between atoms: C12_27  and  N2_29 
ROOT
HETATM    1  C12   D T   1      -5.879  -2.680  -5.335  1.00 29.52     0.279 C 
HETATM    2  O1    D T   1      -5.520  -1.897  -4.451  1.00 32.52    -0.265 OA
HETATM    3  N2    D T   1      -6.910  -2.453  -6.170  1.00 29.90    -0.208 NA
ENDROOT
BRANCH   1   4
HETATM    4  C9    D T   1      -5.150  -3.976  -5.528  1.00 29.36     0.059 A 
HETATM    5  C8    D T   1      -3.709  -4.079  -5.451  1.00 30.11     0.004 A 
HETATM    6  C7    D T   1      -3.065  -5.337  -5.649  1.00 28.94    -0.004 A 
HETATM    7  C6    D T   1      -3.846  -6.518  -5.917  1.00 28.77    -0.014 A 
HETATM    8  C5    D T   1      -5.301  -6.404  -5.990  1.00 26.45     0.038 A 
HETATM    9  C11   D T   1      -3.106  -7.840  -6.114  1.00 28.14     0.032 C 
HETATM   10  C10   D T   1      -5.913  -5.143  -5.793  1.00 27.23     0.013 A 
BRANCH   8  11
HETATM   11  C4    D T   1      -6.199  -7.526  -6.240  1.00 24.91    -0.058 C 
HETATM   12  C3    D T   1      -6.952  -8.477  -6.353  1.00 23.74    -0.039 C 
BRANCH  12  13
HETATM   13  C2    D T   1      -7.798  -9.599  -6.392  1.00 23.00     0.145 A 
HETATM   14  N82   D T   1      -8.917  -9.759  -7.166  1.00 25.15    -0.203 N 
HETATM   15  N81   D T   1      -9.449  -8.857  -8.065  1.00 28.83    -0.162 NA
HETATM   16  C84   D T   1      -9.406 -11.049  -6.835  1.00 26.40     0.165 A 
HETATM   17  C83   D T   1     -10.559  -9.311  -8.664  1.00 28.11     0.121 A 
HETATM   18  C82   D T   1     -11.170 -10.579  -8.436  1.00 26.65     0.026 A 
HETATM   19  C81   D T   1     -10.595 -11.450  -7.526  1.00 28.42     0.041 A 
HETATM   20  N1    D T   1      -8.640 -11.632  -5.931  1.00 27.29    -0.223 NA
HETATM   21  C1    D T   1      -7.636 -10.723  -5.653  1.00 23.61     0.128 A 
ENDBRANCH  12  13
ENDBRANCH   8  11
ENDBRANCH   1   4
BRANCH   3  22
HETATM   22  C13   D T   1      -7.554  -1.220  -6.446  1.00 31.24     0.085 A 
HETATM   23  C14   D T   1      -7.030  -0.429  -7.497  1.00 32.94     0.019 A 
HETATM   24  C15   D T   1      -7.636   0.824  -7.824  1.00 32.88    -0.001 A 
HETATM   25  C16   D T   1      -8.792   1.314  -7.102  1.00 31.70     0.015 A 
HETATM   26  C17   D T   1      -9.340   0.495  -6.012  1.00 32.08     0.071 A 
HETATM   27  C18   D T   1      -8.704  -0.748  -5.716  1.00 32.72     0.023 A 
BRANCH  25  28
HETATM   28  C20   D T   1      -9.378   2.680  -7.536  1.00 29.95     0.277 C 
BRANCH  28  29
HETATM   29  N3    D T   1      -8.533   3.840  -7.227  1.00 31.16     0.146 N 
HETATM   30  C21   D T   1      -8.286   4.722  -8.408  1.00 32.15     0.286 C 
HETATM   31  C22   D T   1      -7.268   5.827  -8.050  1.00 31.08     0.286 C 
HETATM   32  N4    D T   1      -7.812   6.678  -6.972  1.00 32.74     0.143 N 
HETATM   33  C23   D T   1      -8.147   5.851  -5.771  1.00 30.79     0.286 C 
HETATM   34  C25   D T   1      -6.925   7.792  -6.667  1.00 30.23     0.285 C 
HETATM   35  C24   D T   1      -9.080   4.650  -6.121  1.00 28.48     0.286 C 
ENDBRANCH  28  29
ENDBRANCH  25  28
BRANCH  26  36
HETATM   36  C19   D T   1     -10.569   0.891  -5.161  1.00 33.23     0.419 C 
HETATM   37  F1    D T   1     -10.727   0.025  -4.177  1.00 33.40    -0.166 F 
HETATM   38  F2    D T   1     -10.439   2.089  -4.598  1.00 31.99    -0.166 F 
HETATM   39  F3    D T   1     -11.676   0.925  -5.907  1.00 36.12    -0.166 F 
ENDBRANCH  26  36
ENDBRANCH   3  22
TORSDOF 7
ENDMDL
MODEL 9
REMARK VINA RESULT:    -8.532      3.437      5.948
REMARK INTER + INTRA:         -12.736
REMARK INTER:                 -11.612
REMARK INTRA:                  -1.124
REMARK UNBOUND:                -0.713
REMARK  7 active torsions:
REMARK  status: ('A' for Active; 'I' for Inactive)
REMARK    1  A    between atoms: N3_2  and  C20_12 
REMARK    2  A    between atoms: C4_3  and  C5_4 
REMARK    3  A    between atoms: C13_9  and  N2_29 
REMARK    4  A    between atoms: C17_11  and  C19_33 
REMARK    5  A    between atoms: C20_12  and  C16_31 
REMARK    6  A    between atoms: C2_23  and  C3_24 
REMARK    7  A    between atoms: C9_25  and  C12_27 
REMARK       I    between atoms: C12_27  and  N2_29 
ROOT
HETATM    1  C12   D T   1      -8.781   3.014  -7.071  1.00 29.52     0.279 C 
HETATM    2  O1    D T   1      -9.731   2.666  -7.779  1.00 32.52    -0.265 OA
HETATM    3  N2    D T   1      -7.987   2.157  -6.402  1.00 29.90    -0.208 NA
ENDROOT
BRANCH   1   4
HETATM    4  C9    D T   1      -8.455   4.470  -6.917  1.00 29.36     0.059 A 
HETATM    5  C8    D T   1      -7.220   5.047  -7.399  1.00 30.11     0.004 A 
HETATM    6  C7    D T   1      -6.958   6.439  -7.221  1.00 28.94    -0.004 A 
HETATM    7  C6    D T   1      -7.926   7.282  -6.568  1.00 28.77    -0.014 A 
HETATM    8  C5    D T   1      -9.172   6.689  -6.087  1.00 26.45     0.038 A 
HETATM    9  C11   D T   1      -7.598   8.765  -6.410  1.00 28.14     0.032 C 
HETATM   10  C10   D T   1      -9.405   5.305  -6.274  1.00 27.23     0.013 A 
BRANCH   8  11
HETATM   11  C4    D T   1     -10.234   7.439  -5.425  1.00 24.91    -0.058 C 
HETATM   12  C3    D T   1     -11.158   8.083  -4.960  1.00 23.74    -0.039 C 
BRANCH  12  13
HETATM   13  C2    D T   1     -12.240   8.861  -4.512  1.00 23.00     0.145 A 
HETATM   14  N82   D T   1     -12.302  10.228  -4.457  1.00 25.15    -0.203 N 
HETATM   15  N81   D T   1     -11.321  11.127  -4.826  1.00 28.83    -0.162 NA
HETATM   16  C84   D T   1     -13.591  10.513  -3.936  1.00 26.40     0.165 A 
HETATM   17  C83   D T   1     -11.690  12.404  -4.645  1.00 28.11     0.121 A 
HETATM   18  C82   D T   1     -12.944  12.844  -4.131  1.00 26.65     0.026 A 
HETATM   19  C81   D T   1     -13.896  11.903  -3.779  1.00 28.42     0.041 A 
HETATM   20  N1    D T   1     -14.263   9.401  -3.695  1.00 27.29    -0.223 NA
HETATM   21  C1    D T   1     -13.417   8.369  -4.054  1.00 23.61     0.128 A 
ENDBRANCH  12  13
ENDBRANCH   8  11
ENDBRANCH   1   4
BRANCH   3  22
HETATM   22  C13   D T   1      -7.838   0.762  -6.609  1.00 31.24     0.085 A 
HETATM   23  C14   D T   1      -7.061   0.344  -7.717  1.00 32.94     0.019 A 
HETATM   24  C15   D T   1      -6.874  -1.050  -7.978  1.00 32.88    -0.001 A 
HETATM   25  C16   D T   1      -7.463  -2.062  -7.126  1.00 31.70     0.015 A 
HETATM   26  C17   D T   1      -8.268  -1.632  -5.974  1.00 32.08     0.071 A 
HETATM   27  C18   D T   1      -8.432  -0.232  -5.750  1.00 32.72     0.023 A 
BRANCH  25  28
HETATM   28  C20   D T   1      -7.197  -3.543  -7.490  1.00 29.95     0.277 C 
BRANCH  28  29
HETATM   29  N3    D T   1      -6.173  -4.206  -6.671  1.00 31.16     0.146 N 
HETATM   30  C21   D T   1      -6.154  -5.691  -6.838  1.00 32.15     0.286 C 
HETATM   31  C22   D T   1      -5.169  -6.332  -5.835  1.00 31.08     0.286 C 
HETATM   32  N4    D T   1      -3.801  -5.842  -6.098  1.00 32.74     0.143 N 
HETATM   33  C23   D T   1      -3.753  -4.349  -6.013  1.00 30.79     0.286 C 
HETATM   34  C25   D T   1      -2.822  -6.492  -5.237  1.00 30.23     0.285 C 
HETATM   35  C24   D T   1      -4.822  -3.670  -6.925  1.00 28.48     0.286 C 
ENDBRANCH  28  29
ENDBRANCH  25  28
BRANCH  26  36
HETATM   36  C19   D T   1      -8.950  -2.601  -4.981  1.00 33.23     0.419 C 
HETATM   37  F1    D T   1      -9.630  -1.912  -4.083  1.00 33.40    -0.166 F 
HETATM   38  F2    D T   1      -9.818  -3.417  -5.574  1.00 31.99    -0.166 F 
HETATM   39  F3    D T   1      -8.047  -3.368  -4.364  1.00 36.12    -0.166 F 
ENDBRANCH  26  36
ENDBRANCH   3  22
TORSDOF 7
ENDMDL
