MODEL 1
REMARK VINA RESULT:    -9.499      0.000      0.000
REMARK INTER + INTRA:         -14.108
REMARK INTER:                 -13.386
REMARK INTRA:                  -0.722
REMARK UNBOUND:                -0.722
REMARK  7 active torsions:
REMARK  status: ('A' for Active; 'I' for Inactive)
REMARK    1  A    between atoms: N3_2  and  C20_12 
REMARK    2  A    between atoms: C4_3  and  C5_4 
REMARK    3  A    between atoms: C13_9  and  N2_29 
REMARK    4  A    between atoms: C17_11  and  C19_33 
REMARK    5  A    between atoms: C20_12  and  C16_31 
REMARK    6  A    between atoms: C2_23  and  C3_24 
REMARK    7  A    between atoms: C9_25  and  C12_27 
REMARK       I    between atoms: C12_27  and  N2_29 
ROOT
HETATM    1  C12   D T   1       9.308   2.919  -0.003  1.00 29.52     0.279 C 
HETATM    2  O1    D T   1       8.792   3.997   0.304  1.00 32.52    -0.265 OA
HETATM    3  N2    D T   1       9.081   2.277  -1.164  1.00 29.90    -0.208 NA
ENDROOT
BRANCH   1   4
HETATM    4  C9    D T   1      10.255   2.246   0.947  1.00 29.36     0.059 A 
HETATM    5  C8    D T   1      10.941   2.963   2.000  1.00 30.11     0.004 A 
HETATM    6  C7    D T   1      11.835   2.275   2.874  1.00 28.94    -0.004 A 
HETATM    7  C6    D T   1      12.058   0.861   2.718  1.00 28.77    -0.014 A 
HETATM    8  C5    D T   1      11.357   0.147   1.653  1.00 26.45     0.038 A 
HETATM    9  C11   D T   1      13.019   0.172   3.686  1.00 28.14     0.032 C 
HETATM   10  C10   D T   1      10.478   0.853   0.799  1.00 27.23     0.013 A 
BRANCH   8  11
HETATM   11  C4    D T   1      11.487  -1.286   1.404  1.00 24.91    -0.058 C 
HETATM   12  C3    D T   1      11.681  -2.463   1.153  1.00 23.74    -0.039 C 
BRANCH  12  13
HETATM   13  C2    D T   1      11.971  -3.792   0.801  1.00 23.00     0.145 A 
HETATM   14  N82   D T   1      12.184  -4.282  -0.459  1.00 25.15    -0.203 N 
HETATM   15  N81   D T   1      12.158  -3.578  -1.647  1.00 28.83    -0.162 NA
HETATM   16  C84   D T   1      12.432  -5.666  -0.275  1.00 26.40     0.165 A 
HETATM   17  C83   D T   1      12.403  -4.350  -2.716  1.00 28.11     0.121 A 
HETATM   18  C82   D T   1      12.666  -5.751  -2.689  1.00 26.65     0.026 A 
HETATM   19  C81   D T   1      12.684  -6.410  -1.471  1.00 28.42     0.041 A 
HETATM   20  N1    D T   1      12.377  -5.993   1.004  1.00 27.29    -0.223 NA
HETATM   21  C1    D T   1      12.086  -4.822   1.675  1.00 23.61     0.128 A 
ENDBRANCH  12  13
ENDBRANCH   8  11
ENDBRANCH   1   4
BRANCH   3  22
HETATM   22  C13   D T   1       8.522   2.803  -2.357  1.00 31.24     0.085 A 
HETATM   23  C14   D T   1       7.112   2.753  -2.495  1.00 32.94     0.019 A 
HETATM   24  C15   D T   1       6.489   3.269  -3.674  1.00 32.88    -0.001 A 
HETATM   25  C16   D T   1       7.268   3.851  -4.747  1.00 31.70     0.015 A 
HETATM   26  C17   D T   1       8.730   3.906  -4.606  1.00 32.08     0.071 A 
HETATM   27  C18   D T   1       9.314   3.379  -3.414  1.00 32.72     0.023 A 
BRANCH  25  28
HETATM   28  C20   D T   1       6.499   4.385  -5.979  1.00 29.95     0.277 C 
BRANCH  28  29
HETATM   29  N3    D T   1       5.907   3.348  -6.834  1.00 31.16     0.146 N 
HETATM   30  C21   D T   1       5.923   3.699  -8.286  1.00 32.15     0.286 C 
HETATM   31  C22   D T   1       5.148   2.643  -9.104  1.00 31.08     0.286 C 
HETATM   32  N4    D T   1       5.799   1.325  -8.963  1.00 32.74     0.143 N 
HETATM   33  C23   D T   1       5.879   0.931  -7.522  1.00 30.79     0.286 C 
HETATM   34  C25   D T   1       5.157   0.316  -9.793  1.00 30.23     0.285 C 
HETATM   35  C24   D T   1       6.551   2.033  -6.645  1.00 28.48     0.286 C 
ENDBRANCH  28  29
ENDBRANCH  25  28
BRANCH  26  36
HETATM   36  C19   D T   1       9.683   4.502  -5.667  1.00 33.23     0.419 C 
HETATM   37  F1    D T   1       9.996   5.742  -5.338  1.00 33.40    -0.166 F 
HETATM   38  F2    D T   1      10.829   3.832  -5.761  1.00 31.99    -0.166 F 
HETATM   39  F3    D T   1       9.121   4.488  -6.878  1.00 36.12    -0.166 F 
ENDBRANCH  26  36
ENDBRANCH   3  22
TORSDOF 7
ENDMDL
MODEL 2
REMARK VINA RESULT:    -9.164      5.463     11.009
REMARK INTER + INTRA:         -13.636
REMARK INTER:                 -12.444
REMARK INTRA:                  -1.192
REMARK UNBOUND:                -0.722
REMARK  7 active torsions:
REMARK  status: ('A' for Active; 'I' for Inactive)
REMARK    1  A    between atoms: N3_2  and  C20_12 
REMARK    2  A    between atoms: C4_3  and  C5_4 
REMARK    3  A    between atoms: C13_9  and  N2_29 
REMARK    4  A    between atoms: C17_11  and  C19_33 
REMARK    5  A    between atoms: C20_12  and  C16_31 
REMARK    6  A    between atoms: C2_23  and  C3_24 
REMARK    7  A    between atoms: C9_25  and  C12_27 
REMARK       I    between atoms: C12_27  and  N2_29 
ROOT
HETATM    1  C12   D T   1       9.101   5.088  -2.111  1.00 29.52     0.279 C 
HETATM    2  O1    D T   1       8.177   5.235  -1.305  1.00 32.52    -0.265 OA
HETATM    3  N2    D T   1      10.006   6.040  -2.402  1.00 29.90    -0.208 NA
ENDROOT
BRANCH   1   4
HETATM    4  C9    D T   1       9.264   3.783  -2.831  1.00 29.36     0.059 A 
HETATM    5  C8    D T   1      10.155   2.742  -2.366  1.00 30.11     0.004 A 
HETATM    6  C7    D T   1      10.276   1.520  -3.092  1.00 28.94    -0.004 A 
HETATM    7  C6    D T   1       9.508   1.310  -4.293  1.00 28.77    -0.014 A 
HETATM    8  C5    D T   1       8.609   2.367  -4.752  1.00 26.45     0.038 A 
HETATM    9  C11   D T   1       9.669  -0.020  -5.028  1.00 28.14     0.032 C 
HETATM   10  C10   D T   1       8.510   3.570  -4.014  1.00 27.23     0.013 A 
BRANCH   8  11
HETATM   11  C4    D T   1       7.769   2.268  -5.942  1.00 24.91    -0.058 C 
HETATM   12  C3    D T   1       7.001   2.137  -6.879  1.00 23.74    -0.039 C 
BRANCH  12  13
HETATM   13  C2    D T   1       6.071   1.920  -7.910  1.00 23.00     0.145 A 
HETATM   14  N82   D T   1       5.424   2.874  -8.649  1.00 25.15    -0.203 N 
HETATM   15  N81   D T   1       5.547   4.245  -8.538  1.00 28.83    -0.162 NA
HETATM   16  C84   D T   1       4.602   2.145  -9.545  1.00 26.40     0.165 A 
HETATM   17  C83   D T   1       4.771   4.910  -9.408  1.00 28.11     0.121 A 
HETATM   18  C82   D T   1       3.895   4.318 -10.363  1.00 26.65     0.026 A 
HETATM   19  C81   D T   1       3.811   2.938 -10.436  1.00 28.42     0.041 A 
HETATM   20  N1    D T   1       4.741   0.843  -9.367  1.00 27.29    -0.223 NA
HETATM   21  C1    D T   1       5.656   0.704  -8.342  1.00 23.61     0.128 A 
ENDBRANCH  12  13
ENDBRANCH   8  11
ENDBRANCH   1   4
BRANCH   3  22
HETATM   22  C13   D T   1      10.305   7.215  -1.664  1.00 31.24     0.085 A 
HETATM   23  C14   D T   1      11.303   7.122  -0.663  1.00 32.94     0.019 A 
HETATM   24  C15   D T   1      11.650   8.272   0.113  1.00 32.88    -0.001 A 
HETATM   25  C16   D T   1      11.002   9.550  -0.100  1.00 31.70     0.015 A 
HETATM   26  C17   D T   1       9.967   9.650  -1.139  1.00 32.08     0.071 A 
HETATM   27  C18   D T   1       9.649   8.478  -1.891  1.00 32.72     0.023 A 
BRANCH  25  28
HETATM   28  C20   D T   1      11.452  10.734   0.789  1.00 29.95     0.277 C 
BRANCH  28  29
HETATM   29  N3    D T   1      10.799  10.802   2.102  1.00 31.16     0.146 N 
HETATM   30  C21   D T   1      11.593  10.154   3.190  1.00 32.15     0.286 C 
HETATM   31  C22   D T   1      10.780  10.123   4.503  1.00 31.08     0.286 C 
HETATM   32  N4    D T   1      10.481  11.502   4.939  1.00 32.74     0.143 N 
HETATM   33  C23   D T   1       9.740  12.240   3.870  1.00 30.79     0.286 C 
HETATM   34  C25   D T   1       9.797  11.524   6.224  1.00 30.23     0.285 C 
HETATM   35  C24   D T   1      10.477  12.188   2.496  1.00 28.48     0.286 C 
ENDBRANCH  28  29
ENDBRANCH  25  28
BRANCH  26  36
HETATM   36  C19   D T   1       9.198  10.948  -1.476  1.00 33.23     0.419 C 
HETATM   37  F1    D T   1       8.415  11.277  -0.464  1.00 33.40    -0.166 F 
HETATM   38  F2    D T   1      10.006  11.984  -1.685  1.00 31.99    -0.166 F 
HETATM   39  F3    D T   1       8.461  10.795  -2.579  1.00 36.12    -0.166 F 
ENDBRANCH  26  36
ENDBRANCH   3  22
TORSDOF 7
ENDMDL
MODEL 3
REMARK VINA RESULT:    -9.137      5.720     11.283
REMARK INTER + INTRA:         -13.599
REMARK INTER:                 -12.493
REMARK INTRA:                  -1.106
REMARK UNBOUND:                -0.722
REMARK  7 active torsions:
REMARK  status: ('A' for Active; 'I' for Inactive)
REMARK    1  A    between atoms: N3_2  and  C20_12 
REMARK    2  A    between atoms: C4_3  and  C5_4 
REMARK    3  A    between atoms: C13_9  and  N2_29 
REMARK    4  A    between atoms: C17_11  and  C19_33 
REMARK    5  A    between atoms: C20_12  and  C16_31 
REMARK    6  A    between atoms: C2_23  and  C3_24 
REMARK    7  A    between atoms: C9_25  and  C12_27 
REMARK       I    between atoms: C12_27  and  N2_29 
ROOT
HETATM    1  C12   D T   1      10.417   4.377  -1.425  1.00 29.52     0.279 C 
HETATM    2  O1    D T   1      11.022   4.046  -0.401  1.00 32.52    -0.265 OA
HETATM    3  N2    D T   1      10.026   5.636  -1.696  1.00 29.90    -0.208 NA
ENDROOT
BRANCH   1   4
HETATM    4  C9    D T   1      10.076   3.345  -2.459  1.00 29.36     0.059 A 
HETATM    5  C8    D T   1      10.611   2.002  -2.424  1.00 30.11     0.004 A 
HETATM    6  C7    D T   1      10.258   1.059  -3.435  1.00 28.94    -0.004 A 
HETATM    7  C6    D T   1       9.360   1.436  -4.497  1.00 28.77    -0.014 A 
HETATM    8  C5    D T   1       8.823   2.795  -4.521  1.00 26.45     0.038 A 
HETATM    9  C11   D T   1       9.009   0.387  -5.550  1.00 28.14     0.032 C 
HETATM   10  C10   D T   1       9.192   3.710  -3.507  1.00 27.23     0.013 A 
BRANCH   8  11
HETATM   11  C4    D T   1       7.895   3.291  -5.533  1.00 24.91    -0.058 C 
HETATM   12  C3    D T   1       7.103   3.782  -6.318  1.00 23.74    -0.039 C 
BRANCH  12  13
HETATM   13  C2    D T   1       6.158   4.402  -7.152  1.00 23.00     0.145 A 
HETATM   14  N82   D T   1       5.503   3.840  -8.215  1.00 25.15    -0.203 N 
HETATM   15  N81   D T   1       5.633   2.551  -8.691  1.00 28.83    -0.162 NA
HETATM   16  C84   D T   1       4.670   4.872  -8.718  1.00 26.40     0.165 A 
HETATM   17  C83   D T   1       4.855   2.307  -9.757  1.00 28.11     0.121 A 
HETATM   18  C82   D T   1       3.971   3.240 -10.373  1.00 26.65     0.026 A 
HETATM   19  C81   D T   1       3.874   4.521  -9.854  1.00 28.42     0.041 A 
HETATM   20  N1    D T   1       4.806   5.979  -8.010  1.00 27.29    -0.223 NA
HETATM   21  C1    D T   1       5.738   5.686  -7.034  1.00 23.61     0.128 A 
ENDBRANCH  12  13
ENDBRANCH   8  11
ENDBRANCH   1   4
BRANCH   3  22
HETATM   22  C13   D T   1      10.480   6.839  -1.096  1.00 31.24     0.085 A 
HETATM   23  C14   D T   1      11.811   7.243  -1.368  1.00 32.94     0.019 A 
HETATM   24  C15   D T   1      12.326   8.447  -0.794  1.00 32.88    -0.001 A 
HETATM   25  C16   D T   1      11.513   9.280   0.069  1.00 31.70     0.015 A 
HETATM   26  C17   D T   1      10.133   8.864   0.351  1.00 32.08     0.071 A 
HETATM   27  C18   D T   1       9.656   7.655  -0.240  1.00 32.72     0.023 A 
BRANCH  25  28
HETATM   28  C20   D T   1      12.163  10.565   0.637  1.00 29.95     0.277 C 
BRANCH  28  29
HETATM   29  N3    D T   1      13.626  10.614   0.533  1.00 31.16     0.146 N 
HETATM   30  C21   D T   1      14.152  11.982   0.239  1.00 32.15     0.286 C 
HETATM   31  C22   D T   1      15.675  11.931  -0.013  1.00 31.08     0.286 C 
HETATM   32  N4    D T   1      16.365  11.445   1.199  1.00 32.74     0.143 N 
HETATM   33  C23   D T   1      15.845  10.101   1.597  1.00 30.79     0.286 C 
HETATM   34  C25   D T   1      17.812  11.470   1.040  1.00 30.23     0.285 C 
HETATM   35  C24   D T   1      14.291  10.088   1.741  1.00 28.48     0.286 C 
ENDBRANCH  28  29
ENDBRANCH  25  28
BRANCH  26  36
HETATM   36  C19   D T   1       9.154   9.656   1.249  1.00 33.23     0.419 C 
HETATM   37  F1    D T   1       9.118  10.919   0.863  1.00 33.40    -0.166 F 
HETATM   38  F2    D T   1       7.906   9.199   1.176  1.00 31.99    -0.166 F 
HETATM   39  F3    D T   1       9.521   9.591   2.532  1.00 36.12    -0.166 F 
ENDBRANCH  26  36
ENDBRANCH   3  22
TORSDOF 7
ENDMDL
MODEL 4
REMARK VINA RESULT:    -9.124      5.358     11.222
REMARK INTER + INTRA:         -13.579
REMARK INTER:                 -12.454
REMARK INTRA:                  -1.126
REMARK UNBOUND:                -0.722
REMARK  7 active torsions:
REMARK  status: ('A' for Active; 'I' for Inactive)
REMARK    1  A    between atoms: N3_2  and  C20_12 
REMARK    2  A    between atoms: C4_3  and  C5_4 
REMARK    3  A    between atoms: C13_9  and  N2_29 
REMARK    4  A    between atoms: C17_11  and  C19_33 
REMARK    5  A    between atoms: C20_12  and  C16_31 
REMARK    6  A    between atoms: C2_23  and  C3_24 
REMARK    7  A    between atoms: C9_25  and  C12_27 
REMARK       I    between atoms: C12_27  and  N2_29 
ROOT
HETATM    1  C12   D T   1       9.348   5.291  -1.061  1.00 29.52     0.279 C 
HETATM    2  O1    D T   1       8.248   5.851  -1.120  1.00 32.52    -0.265 OA
HETATM    3  N2    D T   1      10.371   5.718  -0.298  1.00 29.90    -0.208 NA
ENDROOT
BRANCH   1   4
HETATM    4  C9    D T   1       9.603   4.057  -1.875  1.00 29.36     0.059 A 
HETATM    5  C8    D T   1      10.612   3.084  -1.518  1.00 30.11     0.004 A 
HETATM    6  C7    D T   1      10.817   1.929  -2.330  1.00 28.94    -0.004 A 
HETATM    7  C6    D T   1      10.016   1.719  -3.509  1.00 28.77    -0.014 A 
HETATM    8  C5    D T   1       8.998   2.707  -3.858  1.00 26.45     0.038 A 
HETATM    9  C11   D T   1      10.272   0.462  -4.338  1.00 28.14     0.032 C 
HETATM   10  C10   D T   1       8.817   3.845  -3.036  1.00 27.23     0.013 A 
BRANCH   8  11
HETATM   11  C4    D T   1       8.115   2.599  -5.016  1.00 24.91    -0.058 C 
HETATM   12  C3    D T   1       7.444   2.447  -6.021  1.00 23.74    -0.039 C 
BRANCH  12  13
HETATM   13  C2    D T   1       6.747   2.237  -7.223  1.00 23.00     0.145 A 
HETATM   14  N82   D T   1       6.005   3.155  -7.916  1.00 25.15    -0.203 N 
HETATM   15  N81   D T   1       5.783   4.476  -7.582  1.00 28.83    -0.162 NA
HETATM   16  C84   D T   1       5.513   2.449  -9.044  1.00 26.40     0.165 A 
HETATM   17  C83   D T   1       5.004   5.115  -8.468  1.00 28.11     0.121 A 
HETATM   18  C82   D T   1       4.436   4.541  -9.643  1.00 26.65     0.026 A 
HETATM   19  C81   D T   1       4.692   3.211  -9.935  1.00 28.42     0.041 A 
HETATM   20  N1    D T   1       5.929   1.196  -9.039  1.00 27.29    -0.223 NA
HETATM   21  C1    D T   1       6.696   1.063  -7.899  1.00 23.61     0.128 A 
ENDBRANCH  12  13
ENDBRANCH   8  11
ENDBRANCH   1   4
BRANCH   3  22
HETATM   22  C13   D T   1      10.328   6.623   0.794  1.00 31.24     0.085 A 
HETATM   23  C14   D T   1      10.159   6.075   2.090  1.00 32.94     0.019 A 
HETATM   24  C15   D T   1      10.109   6.936   3.231  1.00 32.88    -0.001 A 
HETATM   25  C16   D T   1      10.230   8.374   3.098  1.00 31.70     0.015 A 
HETATM   26  C17   D T   1      10.406   8.944   1.755  1.00 32.08     0.071 A 
HETATM   27  C18   D T   1      10.449   8.050   0.642  1.00 32.72     0.023 A 
BRANCH  25  28
HETATM   28  C20   D T   1      10.167   9.217   4.394  1.00 29.95     0.277 C 
BRANCH  28  29
HETATM   29  N3    D T   1       9.366   8.629   5.474  1.00 31.16     0.146 N 
HETATM   30  C21   D T   1      10.188   8.159   6.630  1.00 32.15     0.286 C 
HETATM   31  C22   D T   1       9.302   7.413   7.652  1.00 31.08     0.286 C 
HETATM   32  N4    D T   1       8.276   8.330   8.187  1.00 32.74     0.143 N 
HETATM   33  C23   D T   1       7.449   8.897   7.077  1.00 30.79     0.286 C 
HETATM   34  C25   D T   1       7.477   7.696   9.225  1.00 30.23     0.285 C 
HETATM   35  C24   D T   1       8.324   9.553   5.964  1.00 28.48     0.286 C 
ENDBRANCH  28  29
ENDBRANCH  25  28
BRANCH  26  36
HETATM   36  C19   D T   1      10.551  10.456   1.466  1.00 33.23     0.419 C 
HETATM   37  F1    D T   1       9.432  11.080   1.785  1.00 33.40    -0.166 F 
HETATM   38  F2    D T   1      11.521  11.024   2.179  1.00 31.99    -0.166 F 
HETATM   39  F3    D T   1      10.832  10.672   0.178  1.00 36.12    -0.166 F 
ENDBRANCH  26  36
ENDBRANCH   3  22
TORSDOF 7
ENDMDL
MODEL 5
REMARK VINA RESULT:    -8.900      5.231     11.037
REMARK INTER + INTRA:         -13.264
REMARK INTER:                 -12.043
REMARK INTRA:                  -1.221
REMARK UNBOUND:                -0.722
REMARK  7 active torsions:
REMARK  status: ('A' for Active; 'I' for Inactive)
REMARK    1  A    between atoms: N3_2  and  C20_12 
REMARK    2  A    between atoms: C4_3  and  C5_4 
REMARK    3  A    between atoms: C13_9  and  N2_29 
REMARK    4  A    between atoms: C17_11  and  C19_33 
REMARK    5  A    between atoms: C20_12  and  C16_31 
REMARK    6  A    between atoms: C2_23  and  C3_24 
REMARK    7  A    between atoms: C9_25  and  C12_27 
REMARK       I    between atoms: C12_27  and  N2_29 
ROOT
HETATM    1  C12   D T   1      11.121   4.219  -0.145  1.00 29.52     0.279 C 
HETATM    2  O1    D T   1      12.259   4.420   0.293  1.00 32.52    -0.265 OA
HETATM    3  N2    D T   1      10.018   4.841   0.310  1.00 29.90    -0.208 NA
ENDROOT
BRANCH   1   4
HETATM    4  C9    D T   1      10.911   3.228  -1.251  1.00 29.36     0.059 A 
HETATM    5  C8    D T   1      11.371   1.859  -1.168  1.00 30.11     0.004 A 
HETATM    6  C7    D T   1      11.150   0.958  -2.253  1.00 28.94    -0.004 A 
HETATM    7  C6    D T   1      10.460   1.404  -3.436  1.00 28.77    -0.014 A 
HETATM    8  C5    D T   1       9.997   2.788  -3.508  1.00 26.45     0.038 A 
HETATM    9  C11   D T   1      10.242   0.396  -4.564  1.00 28.14     0.032 C 
HETATM   10  C10   D T   1      10.232   3.660  -2.419  1.00 27.23     0.013 A 
BRANCH   8  11
HETATM   11  C4    D T   1       9.274   3.352  -4.644  1.00 24.91    -0.058 C 
HETATM   12  C3    D T   1       8.634   3.733  -5.609  1.00 23.74    -0.039 C 
BRANCH  12  13
HETATM   13  C2    D T   1       7.888   4.081  -6.747  1.00 23.00     0.145 A 
HETATM   14  N82   D T   1       7.059   3.266  -7.469  1.00 25.15    -0.203 N 
HETATM   15  N81   D T   1       6.783   1.933  -7.235  1.00 28.83    -0.162 NA
HETATM   16  C84   D T   1       6.554   4.088  -8.509  1.00 26.40     0.165 A 
HETATM   17  C83   D T   1       5.930   1.412  -8.130  1.00 28.11     0.121 A 
HETATM   18  C82   D T   1       5.343   2.110  -9.225  1.00 26.65     0.026 A 
HETATM   19  C81   D T   1       5.650   3.447  -9.414  1.00 28.42     0.041 A 
HETATM   20  N1    D T   1       7.037   5.315  -8.422  1.00 27.29    -0.223 NA
HETATM   21  C1    D T   1       7.873   5.309  -7.323  1.00 23.61     0.128 A 
ENDBRANCH  12  13
ENDBRANCH   8  11
ENDBRANCH   1   4
BRANCH   3  22
HETATM   22  C13   D T   1       9.941   6.026   1.085  1.00 31.24     0.085 A 
HETATM   23  C14   D T   1       9.924   5.884   2.495  1.00 32.94     0.019 A 
HETATM   24  C15   D T   1       9.848   7.043   3.331  1.00 32.88    -0.001 A 
HETATM   25  C16   D T   1       9.790   8.376   2.770  1.00 31.70     0.015 A 
HETATM   26  C17   D T   1       9.809   8.526   1.308  1.00 32.08     0.071 A 
HETATM   27  C18   D T   1       9.884   7.345   0.508  1.00 32.72     0.023 A 
BRANCH  25  28
HETATM   28  C20   D T   1       9.714   9.564   3.759  1.00 29.95     0.277 C 
BRANCH  28  29
HETATM   29  N3    D T   1       9.550   9.183   5.168  1.00 31.16     0.146 N 
HETATM   30  C21   D T   1      10.708   9.580   6.025  1.00 32.15     0.286 C 
HETATM   31  C22   D T   1      10.541   9.011   7.451  1.00 31.08     0.286 C 
HETATM   32  N4    D T   1       9.323   9.570   8.072  1.00 32.74     0.143 N 
HETATM   33  C23   D T   1       8.122   9.269   7.234  1.00 30.79     0.286 C 
HETATM   34  C25   D T   1       9.176   9.135   9.453  1.00 30.23     0.285 C 
HETATM   35  C24   D T   1       8.307   9.722   5.752  1.00 28.48     0.286 C 
ENDBRANCH  28  29
ENDBRANCH  25  28
BRANCH  26  36
HETATM   36  C19   D T   1       9.756   9.886   0.574  1.00 33.23     0.419 C 
HETATM   37  F1    D T   1      10.851  10.576   0.836  1.00 33.40    -0.166 F 
HETATM   38  F2    D T   1       9.697   9.753  -0.749  1.00 31.99    -0.166 F 
HETATM   39  F3    D T   1       8.683  10.590   0.945  1.00 36.12    -0.166 F 
ENDBRANCH  26  36
ENDBRANCH   3  22
TORSDOF 7
ENDMDL
MODEL 6
REMARK VINA RESULT:    -8.830      6.517     10.069
REMARK INTER + INTRA:         -13.165
REMARK INTER:                 -12.359
REMARK INTRA:                  -0.806
REMARK UNBOUND:                -0.722
REMARK  7 active torsions:
REMARK  status: ('A' for Active; 'I' for Inactive)
REMARK    1  A    between atoms: N3_2  and  C20_12 
REMARK    2  A    between atoms: C4_3  and  C5_4 
REMARK    3  A    between atoms: C13_9  and  N2_29 
REMARK    4  A    between atoms: C17_11  and  C19_33 
REMARK    5  A    between atoms: C20_12  and  C16_31 
REMARK    6  A    between atoms: C2_23  and  C3_24 
REMARK    7  A    between atoms: C9_25  and  C12_27 
REMARK       I    between atoms: C12_27  and  N2_29 
ROOT
HETATM    1  C12   D T   1       9.501   7.078   0.121  1.00 29.52     0.279 C 
HETATM    2  O1    D T   1       9.174   6.020   0.669  1.00 32.52    -0.265 OA
HETATM    3  N2    D T   1       9.829   7.183  -1.180  1.00 29.90    -0.208 NA
ENDROOT
BRANCH   1   4
HETATM    4  C9    D T   1       9.549   8.348   0.918  1.00 29.36     0.059 A 
HETATM    5  C8    D T   1       9.726   9.646   0.303  1.00 30.11     0.004 A 
HETATM    6  C7    D T   1       9.770  10.823   1.108  1.00 28.94    -0.004 A 
HETATM    7  C6    D T   1       9.633  10.730   2.539  1.00 28.77    -0.014 A 
HETATM    8  C5    D T   1       9.452   9.414   3.148  1.00 26.45     0.038 A 
HETATM    9  C11   D T   1       9.679  12.022   3.352  1.00 28.14     0.032 C 
HETATM   10  C10   D T   1       9.414   8.262   2.327  1.00 27.23     0.013 A 
BRANCH   8  11
HETATM   11  C4    D T   1       9.286   9.191   4.582  1.00 24.91    -0.058 C 
HETATM   12  C3    D T   1       9.070   8.949   5.756  1.00 23.74    -0.039 C 
BRANCH  12  13
HETATM   13  C2    D T   1       8.735   8.640   7.085  1.00 23.00     0.145 A 
HETATM   14  N82   D T   1       8.846   9.461   8.174  1.00 25.15    -0.203 N 
HETATM   15  N81   D T   1       9.310  10.761   8.199  1.00 28.83    -0.162 NA
HETATM   16  C84   D T   1       8.385   8.682   9.267  1.00 26.40     0.165 A 
HETATM   17  C83   D T   1       9.300  11.296   9.430  1.00 28.11     0.121 A 
HETATM   18  C82   D T   1       8.869  10.639  10.619  1.00 26.65     0.026 A 
HETATM   19  C81   D T   1       8.408   9.336  10.540  1.00 28.42     0.041 A 
HETATM   20  N1    D T   1       8.017   7.477   8.870  1.00 27.29    -0.223 NA
HETATM   21  C1    D T   1       8.239   7.450   7.507  1.00 23.61     0.128 A 
ENDBRANCH  12  13
ENDBRANCH   8  11
ENDBRANCH   1   4
BRANCH   3  22
HETATM   22  C13   D T   1       9.562   6.261  -2.224  1.00 31.24     0.085 A 
HETATM   23  C14   D T   1      10.160   6.511  -3.484  1.00 32.94     0.019 A 
HETATM   24  C15   D T   1       9.930   5.617  -4.577  1.00 32.88    -0.001 A 
HETATM   25  C16   D T   1       9.093   4.444  -4.430  1.00 31.70     0.015 A 
HETATM   26  C17   D T   1       8.474   4.181  -3.123  1.00 32.08     0.071 A 
HETATM   27  C18   D T   1       8.727   5.099  -2.058  1.00 32.72     0.023 A 
BRANCH  25  28
HETATM   28  C20   D T   1       8.911   3.538  -5.671  1.00 29.95     0.277 C 
BRANCH  28  29
HETATM   29  N3    D T   1       7.729   3.840  -6.487  1.00 31.16     0.146 N 
HETATM   30  C21   D T   1       7.983   4.879  -7.530  1.00 32.15     0.286 C 
HETATM   31  C22   D T   1       6.666   5.261  -8.242  1.00 31.08     0.286 C 
HETATM   32  N4    D T   1       6.108   4.077  -8.927  1.00 32.74     0.143 N 
HETATM   33  C23   D T   1       5.886   2.964  -7.954  1.00 30.79     0.286 C 
HETATM   34  C25   D T   1       4.914   4.411  -9.690  1.00 30.23     0.285 C 
HETATM   35  C24   D T   1       7.170   2.634  -7.129  1.00 28.48     0.286 C 
ENDBRANCH  28  29
ENDBRANCH  25  28
BRANCH  26  36
HETATM   36  C19   D T   1       7.563   2.969  -2.822  1.00 33.23     0.419 C 
HETATM   37  F1    D T   1       7.163   3.014  -1.565  1.00 33.40    -0.166 F 
HETATM   38  F2    D T   1       6.464   2.954  -3.572  1.00 31.99    -0.166 F 
HETATM   39  F3    D T   1       8.206   1.819  -3.046  1.00 36.12    -0.166 F 
ENDBRANCH  26  36
ENDBRANCH   3  22
TORSDOF 7
ENDMDL
MODEL 7
REMARK VINA RESULT:    -8.692      4.975     11.267
REMARK INTER + INTRA:         -12.972
REMARK INTER:                 -11.935
REMARK INTRA:                  -1.037
REMARK UNBOUND:                -0.722
REMARK  7 active torsions:
REMARK  status: ('A' for Active; 'I' for Inactive)
REMARK    1  A    between atoms: N3_2  and  C20_12 
REMARK    2  A    between atoms: C4_3  and  C5_4 
REMARK    3  A    between atoms: C13_9  and  N2_29 
REMARK    4  A    between atoms: C17_11  and  C19_33 
REMARK    5  A    between atoms: C20_12  and  C16_31 
REMARK    6  A    between atoms: C2_23  and  C3_24 
REMARK    7  A    between atoms: C9_25  and  C12_27 
REMARK       I    between atoms: C12_27  and  N2_29 
ROOT
HETATM    1  C12   D T   1      10.289   3.616  -0.726  1.00 29.52     0.279 C 
HETATM    2  O1    D T   1      11.312   3.344  -0.089  1.00 32.52    -0.265 OA
HETATM    3  N2    D T   1       9.411   4.571  -0.369  1.00 29.90    -0.208 NA
ENDROOT
BRANCH   1   4
HETATM    4  C9    D T   1       9.967   2.861  -1.981  1.00 29.36     0.059 A 
HETATM    5  C8    D T   1      10.463   1.526  -2.235  1.00 30.11     0.004 A 
HETATM    6  C7    D T   1      10.131   0.853  -3.449  1.00 28.94    -0.004 A 
HETATM    7  C6    D T   1       9.292   1.496  -4.428  1.00 28.77    -0.014 A 
HETATM    8  C5    D T   1       8.794   2.843  -4.160  1.00 26.45     0.038 A 
HETATM    9  C11   D T   1       8.960   0.728  -5.707  1.00 28.14     0.032 C 
HETATM   10  C10   D T   1       9.141   3.488  -2.949  1.00 27.23     0.013 A 
BRANCH   8  11
HETATM   11  C4    D T   1       7.927   3.592  -5.064  1.00 24.91    -0.058 C 
HETATM   12  C3    D T   1       7.160   4.131  -5.843  1.00 23.74    -0.039 C 
BRANCH  12  13
HETATM   13  C2    D T   1       6.259   4.667  -6.778  1.00 23.00     0.145 A 
HETATM   14  N82   D T   1       5.724   4.029  -7.865  1.00 25.15    -0.203 N 
HETATM   15  N81   D T   1       5.956   2.731  -8.273  1.00 28.83    -0.162 NA
HETATM   16  C84   D T   1       4.886   4.995  -8.479  1.00 26.40     0.165 A 
HETATM   17  C83   D T   1       5.282   2.404  -9.386  1.00 28.11     0.121 A 
HETATM   18  C82   D T   1       4.408   3.265 -10.112  1.00 26.65     0.026 A 
HETATM   19  C81   D T   1       4.206   4.557  -9.659  1.00 28.42     0.041 A 
HETATM   20  N1    D T   1       4.907   6.135  -7.811  1.00 27.29    -0.223 NA
HETATM   21  C1    D T   1       5.767   5.930  -6.751  1.00 23.61     0.128 A 
ENDBRANCH  12  13
ENDBRANCH   8  11
ENDBRANCH   1   4
BRANCH   3  22
HETATM   22  C13   D T   1       9.606   5.639   0.545  1.00 31.24     0.085 A 
HETATM   23  C14   D T   1       9.867   5.303   1.897  1.00 32.94     0.019 A 
HETATM   24  C15   D T   1      10.073   6.335   2.865  1.00 32.88    -0.001 A 
HETATM   25  C16   D T   1      10.025   7.735   2.498  1.00 31.70     0.015 A 
HETATM   26  C17   D T   1       9.756   8.086   1.097  1.00 32.08     0.071 A 
HETATM   27  C18   D T   1       9.554   7.027   0.161  1.00 32.72     0.023 A 
BRANCH  25  28
HETATM   28  C20   D T   1      10.266   8.775   3.619  1.00 29.95     0.277 C 
BRANCH  28  29
HETATM   29  N3    D T   1       9.465   8.570   4.833  1.00 31.16     0.146 N 
HETATM   30  C21   D T   1      10.291   8.269   6.041  1.00 32.15     0.286 C 
HETATM   31  C22   D T   1       9.384   7.910   7.238  1.00 31.08     0.286 C 
HETATM   32  N4    D T   1       8.519   9.060   7.571  1.00 32.74     0.143 N 
HETATM   33  C23   D T   1       7.702   9.464   6.385  1.00 30.79     0.286 C 
HETATM   34  C25   D T   1       7.711   8.800   8.754  1.00 30.23     0.285 C 
HETATM   35  C24   D T   1       8.582   9.717   5.121  1.00 28.48     0.286 C 
ENDBRANCH  28  29
ENDBRANCH  25  28
BRANCH  26  36
HETATM   36  C19   D T   1       9.680   9.536   0.564  1.00 33.23     0.419 C 
HETATM   37  F1    D T   1       8.726  10.193   1.198  1.00 33.40    -0.166 F 
HETATM   38  F2    D T   1      10.807  10.216   0.762  1.00 31.99    -0.166 F 
HETATM   39  F3    D T   1       9.438   9.552  -0.749  1.00 36.12    -0.166 F 
ENDBRANCH  26  36
ENDBRANCH   3  22
TORSDOF 7
ENDMDL
MODEL 8
REMARK VINA RESULT:    -8.554      6.247      9.319
REMARK INTER + INTRA:         -12.776
REMARK INTER:                 -12.097
REMARK INTRA:                  -0.680
REMARK UNBOUND:                -0.722
REMARK  7 active torsions:
REMARK  status: ('A' for Active; 'I' for Inactive)
REMARK    1  A    between atoms: N3_2  and  C20_12 
REMARK    2  A    between atoms: C4_3  and  C5_4 
REMARK    3  A    between atoms: C13_9  and  N2_29 
REMARK    4  A    between atoms: C17_11  and  C19_33 
REMARK    5  A    between atoms: C20_12  and  C16_31 
REMARK    6  A    between atoms: C2_23  and  C3_24 
REMARK    7  A    between atoms: C9_25  and  C12_27 
REMARK       I    between atoms: C12_27  and  N2_29 
ROOT
HETATM    1  C12   D T   1       9.465   6.603  -1.017  1.00 29.52     0.279 C 
HETATM    2  O1    D T   1       9.004   5.687  -0.328  1.00 32.52    -0.265 OA
HETATM    3  N2    D T   1       9.778   6.481  -2.320  1.00 29.90    -0.208 NA
ENDROOT
BRANCH   1   4
HETATM    4  C9    D T   1       9.705   7.950  -0.405  1.00 29.36     0.059 A 
HETATM    5  C8    D T   1      10.268   9.055  -1.151  1.00 30.11     0.004 A 
HETATM    6  C7    D T   1      10.481  10.317  -0.518  1.00 28.94    -0.004 A 
HETATM    7  C6    D T   1      10.132  10.502   0.867  1.00 28.77    -0.014 A 
HETATM    8  C5    D T   1       9.562   9.380   1.610  1.00 26.45     0.038 A 
HETATM    9  C11   D T   1      10.374  11.874   1.493  1.00 28.14     0.032 C 
HETATM   10  C10   D T   1       9.363   8.140   0.959  1.00 27.23     0.013 A 
BRANCH   8  11
HETATM   11  C4    D T   1       9.154   9.448   3.010  1.00 24.91    -0.058 C 
HETATM   12  C3    D T   1       8.893   9.449   4.200  1.00 23.74    -0.039 C 
BRANCH  12  13
HETATM   13  C2    D T   1       8.652   9.379   5.582  1.00 23.00     0.145 A 
HETATM   14  N82   D T   1       9.136   8.442   6.456  1.00 25.15    -0.203 N 
HETATM   15  N81   D T   1       9.958   7.372   6.165  1.00 28.83    -0.162 NA
HETATM   16  C84   D T   1       8.603   8.811   7.718  1.00 26.40     0.165 A 
HETATM   17  C83   D T   1      10.252   6.631   7.245  1.00 28.11     0.121 A 
HETATM   18  C82   D T   1       9.793   6.875   8.572  1.00 26.65     0.026 A 
HETATM   19  C81   D T   1       8.972   7.964   8.811  1.00 28.42     0.041 A 
HETATM   20  N1    D T   1       7.853   9.894   7.619  1.00 27.29    -0.223 NA
HETATM   21  C1    D T   1       7.881  10.246   6.284  1.00 23.61     0.128 A 
ENDBRANCH  12  13
ENDBRANCH   8  11
ENDBRANCH   1   4
BRANCH   3  22
HETATM   22  C13   D T   1       9.365   5.471  -3.227  1.00 31.24     0.085 A 
HETATM   23  C14   D T   1      10.009   5.423  -4.488  1.00 32.94     0.019 A 
HETATM   24  C15   D T   1       9.638   4.426  -5.445  1.00 32.88    -0.001 A 
HETATM   25  C16   D T   1       8.608   3.449  -5.156  1.00 31.70     0.015 A 
HETATM   26  C17   D T   1       7.940   3.496  -3.848  1.00 32.08     0.071 A 
HETATM   27  C18   D T   1       8.339   4.507  -2.921  1.00 32.72     0.023 A 
BRANCH  25  28
HETATM   28  C20   D T   1       8.283   2.410  -6.256  1.00 29.95     0.277 C 
BRANCH  28  29
HETATM   29  N3    D T   1       7.081   2.704  -7.046  1.00 31.16     0.146 N 
HETATM   30  C21   D T   1       7.153   4.010  -7.767  1.00 32.15     0.286 C 
HETATM   31  C22   D T   1       5.801   4.327  -8.445  1.00 31.08     0.286 C 
HETATM   32  N4    D T   1       5.489   3.288  -9.447  1.00 32.74     0.143 N 
HETATM   33  C23   D T   1       5.463   1.935  -8.809  1.00 30.79     0.286 C 
HETATM   34  C25   D T   1       4.268   3.595 -10.178  1.00 30.23     0.285 C 
HETATM   35  C24   D T   1       6.770   1.632  -8.012  1.00 28.48     0.286 C 
ENDBRANCH  28  29
ENDBRANCH  25  28
BRANCH  26  36
HETATM   36  C19   D T   1       6.830   2.516  -3.405  1.00 33.23     0.419 C 
HETATM   37  F1    D T   1       5.707   2.799  -4.040  1.00 33.40    -0.166 F 
HETATM   38  F2    D T   1       7.120   1.249  -3.690  1.00 31.99    -0.166 F 
HETATM   39  F3    D T   1       6.628   2.585  -2.086  1.00 36.12    -0.166 F 
ENDBRANCH  26  36
ENDBRANCH   3  22
TORSDOF 7
ENDMDL
MODEL 9
REMARK VINA RESULT:    -8.479      5.262      8.838
REMARK INTER + INTRA:         -12.671
REMARK INTER:                 -12.234
REMARK INTRA:                  -0.437
REMARK UNBOUND:                -0.722
REMARK  7 active torsions:
REMARK  status: ('A' for Active; 'I' for Inactive)
REMARK    1  A    between atoms: N3_2  and  C20_12 
REMARK    2  A    between atoms: C4_3  and  C5_4 
REMARK    3  A    between atoms: C13_9  and  N2_29 
REMARK    4  A    between atoms: C17_11  and  C19_33 
REMARK    5  A    between atoms: C20_12  and  C16_31 
REMARK    6  A    between atoms: C2_23  and  C3_24 
REMARK    7  A    between atoms: C9_25  and  C12_27 
REMARK       I    between atoms: C12_27  and  N2_29 
ROOT
HETATM    1  C12   D T   1      10.064   4.902  -0.310  1.00 29.52     0.279 C 
HETATM    2  O1    D T   1       9.889   3.908   0.401  1.00 32.52    -0.265 OA
HETATM    3  N2    D T   1       9.973   4.893  -1.652  1.00 29.90    -0.208 NA
ENDROOT
BRANCH   1   4
HETATM    4  C9    D T   1      10.400   6.221   0.319  1.00 29.36     0.059 A 
HETATM    5  C8    D T   1      10.921   7.337  -0.441  1.00 30.11     0.004 A 
HETATM    6  C7    D T   1      11.228   8.569   0.208  1.00 28.94    -0.004 A 
HETATM    7  C6    D T   1      11.017   8.715   1.626  1.00 28.77    -0.014 A 
HETATM    8  C5    D T   1      10.488   7.583   2.383  1.00 26.45     0.038 A 
HETATM    9  C11   D T   1      11.356  10.059   2.269  1.00 28.14     0.032 C 
HETATM   10  C10   D T   1      10.193   6.372   1.715  1.00 27.23     0.013 A 
BRANCH   8  11
HETATM   11  C4    D T   1      10.217   7.613   3.817  1.00 24.91    -0.058 C 
HETATM   12  C3    D T   1       9.958   7.544   5.007  1.00 23.74    -0.039 C 
BRANCH  12  13
HETATM   13  C2    D T   1       9.609   7.388   6.358  1.00 23.00     0.145 A 
HETATM   14  N82   D T   1       8.674   8.105   7.055  1.00 25.15    -0.203 N 
HETATM   15  N81   D T   1       7.880   9.130   6.580  1.00 28.83    -0.162 NA
HETATM   16  C84   D T   1       8.705   7.567   8.367  1.00 26.40     0.165 A 
HETATM   17  C83   D T   1       7.064   9.636   7.517  1.00 28.11     0.121 A 
HETATM   18  C82   D T   1       6.984   9.202   8.872  1.00 26.65     0.026 A 
HETATM   19  C81   D T   1       7.799   8.168   9.298  1.00 28.42     0.041 A 
HETATM   20  N1    D T   1       9.591   6.592   8.460  1.00 27.29    -0.223 NA
HETATM   21  C1    D T   1      10.158   6.483   7.206  1.00 23.61     0.128 A 
ENDBRANCH  12  13
ENDBRANCH   8  11
ENDBRANCH   1   4
BRANCH   3  22
HETATM   22  C13   D T   1       9.365   3.915  -2.480  1.00 31.24     0.085 A 
HETATM   23  C14   D T   1       7.952   3.939  -2.590  1.00 32.94     0.019 A 
HETATM   24  C15   D T   1       7.280   2.979  -3.410  1.00 32.88    -0.001 A 
HETATM   25  C16   D T   1       8.014   1.970  -4.146  1.00 31.70     0.015 A 
HETATM   26  C17   D T   1       9.479   1.944  -4.036  1.00 32.08     0.071 A 
HETATM   27  C18   D T   1      10.111   2.918  -3.205  1.00 32.72     0.023 A 
BRANCH  25  28
HETATM   28  C20   D T   1       7.194   0.981  -5.009  1.00 29.95     0.277 C 
BRANCH  28  29
HETATM   29  N3    D T   1       6.457   1.595  -6.120  1.00 31.16     0.146 N 
HETATM   30  C21   D T   1       6.934   2.971  -6.455  1.00 32.15     0.286 C 
HETATM   31  C22   D T   1       6.017   3.615  -7.519  1.00 31.08     0.286 C 
HETATM   32  N4    D T   1       6.061   2.820  -8.762  1.00 32.74     0.143 N 
HETATM   33  C23   D T   1       5.656   1.405  -8.495  1.00 30.79     0.286 C 
HETATM   34  C25   D T   1       5.284   3.441  -9.825  1.00 30.23     0.285 C 
HETATM   35  C24   D T   1       6.484   0.762  -7.338  1.00 28.48     0.286 C 
ENDBRANCH  28  29
ENDBRANCH  25  28
BRANCH  26  36
HETATM   36  C19   D T   1      10.386   0.928  -4.766  1.00 33.23     0.419 C 
HETATM   37  F1    D T   1      10.894   0.077  -3.893  1.00 33.40    -0.166 F 
HETATM   38  F2    D T   1       9.726   0.203  -5.665  1.00 31.99    -0.166 F 
HETATM   39  F3    D T   1      11.376   1.548  -5.413  1.00 36.12    -0.166 F 
ENDBRANCH  26  36
ENDBRANCH   3  22
TORSDOF 7
ENDMDL
