MODEL 1
REMARK VINA RESULT:    -9.732      0.000      0.000
REMARK INTER + INTRA:         -14.920
REMARK INTER:                 -13.714
REMARK INTRA:                  -1.206
REMARK UNBOUND:                -1.206
REMARK  7 active torsions:
REMARK  status: ('A' for Active; 'I' for Inactive)
REMARK    1  A    between atoms: N3_2  and  C20_12 
REMARK    2  A    between atoms: C4_3  and  C5_4 
REMARK    3  A    between atoms: C13_9  and  N2_29 
REMARK    4  A    between atoms: C17_11  and  C19_33 
REMARK    5  A    between atoms: C20_12  and  C16_31 
REMARK    6  A    between atoms: C2_23  and  C3_24 
REMARK    7  A    between atoms: C9_25  and  C12_27 
REMARK       I    between atoms: C12_27  and  N2_29 
ROOT
HETATM    1  C12   D T   1     -10.922   3.215  -5.587  1.00 29.52     0.279 C 
HETATM    2  O1    D T   1      -9.822   2.666  -5.711  1.00 32.52    -0.265 OA
HETATM    3  N2    D T   1     -12.040   2.814  -6.221  1.00 29.90    -0.208 NA
ENDROOT
BRANCH   1   4
HETATM    4  C9    D T   1     -11.067   4.406  -4.688  1.00 29.36     0.059 A 
HETATM    5  C8    D T   1     -10.034   5.411  -4.553  1.00 30.11     0.004 A 
HETATM    6  C7    D T   1     -10.223   6.524  -3.678  1.00 28.94    -0.004 A 
HETATM    7  C6    D T   1     -11.445   6.657  -2.929  1.00 28.77    -0.014 A 
HETATM    8  C5    D T   1     -12.482   5.638  -3.074  1.00 26.45     0.038 A 
HETATM    9  C11   D T   1     -11.598   7.871  -2.012  1.00 28.14     0.032 C 
HETATM   10  C10   D T   1     -12.269   4.545  -3.947  1.00 27.23     0.013 A 
BRANCH   8  11
HETATM   11  C4    D T   1     -13.767   5.671  -2.382  1.00 24.91    -0.058 C 
HETATM   12  C3    D T   1     -14.792   5.686  -1.722  1.00 23.74    -0.039 C 
BRANCH  12  13
HETATM   13  C2    D T   1     -15.922   5.663  -0.888  1.00 23.00     0.145 A 
HETATM   14  N82   D T   1     -16.707   4.580  -0.596  1.00 25.15    -0.203 N 
HETATM   15  N81   D T   1     -16.555   3.288  -1.056  1.00 28.83    -0.162 NA
HETATM   16  C84   D T   1     -17.707   5.081   0.277  1.00 26.40     0.165 A 
HETATM   17  C83   D T   1     -17.495   2.454  -0.587  1.00 28.11     0.121 A 
HETATM   18  C82   D T   1     -18.560   2.809   0.292  1.00 26.65     0.026 A 
HETATM   19  C81   D T   1     -18.666   4.118   0.727  1.00 28.42     0.041 A 
HETATM   20  N1    D T   1     -17.540   6.372   0.502  1.00 27.29    -0.223 NA
HETATM   21  C1    D T   1     -16.426   6.735  -0.230  1.00 23.61     0.128 A 
ENDBRANCH  12  13
ENDBRANCH   8  11
ENDBRANCH   1   4
BRANCH   3  22
HETATM   22  C13   D T   1     -12.286   1.567  -6.850  1.00 31.24     0.085 A 
HETATM   23  C14   D T   1     -11.566   1.280  -8.036  1.00 32.94     0.019 A 
HETATM   24  C15   D T   1     -11.771   0.038  -8.717  1.00 32.88    -0.001 A 
HETATM   25  C16   D T   1     -12.705  -0.951  -8.219  1.00 31.70     0.015 A 
HETATM   26  C17   D T   1     -13.452  -0.656  -6.989  1.00 32.08     0.071 A 
HETATM   27  C18   D T   1     -13.221   0.596  -6.341  1.00 32.72     0.023 A 
BRANCH  25  28
HETATM   28  C20   D T   1     -12.850  -2.264  -9.025  1.00 29.95     0.277 C 
BRANCH  28  29
HETATM   29  N3    D T   1     -13.402  -2.100 -10.376  1.00 31.16     0.146 N 
HETATM   30  C21   D T   1     -12.829  -3.060 -11.368  1.00 32.15     0.286 C 
HETATM   31  C22   D T   1     -13.333  -2.729 -12.791  1.00 31.08     0.286 C 
HETATM   32  N4    D T   1     -14.803  -2.866 -12.844  1.00 32.74     0.143 N 
HETATM   33  C23   D T   1     -15.450  -1.979 -11.828  1.00 30.79     0.286 C 
HETATM   34  C25   D T   1     -15.314  -2.654 -14.191  1.00 30.23     0.285 C 
HETATM   35  C24   D T   1     -14.875  -2.204 -10.395  1.00 28.48     0.286 C 
ENDBRANCH  28  29
ENDBRANCH  25  28
BRANCH  26  36
HETATM   36  C19   D T   1     -14.476  -1.618  -6.344  1.00 33.23     0.419 C 
HETATM   37  F1    D T   1     -15.461  -1.855  -7.192  1.00 33.40    -0.166 F 
HETATM   38  F2    D T   1     -13.946  -2.801  -6.037  1.00 31.99    -0.166 F 
HETATM   39  F3    D T   1     -14.971  -1.106  -5.216  1.00 36.12    -0.166 F 
ENDBRANCH  26  36
ENDBRANCH   3  22
TORSDOF 7
ENDMDL
MODEL 2
REMARK VINA RESULT:    -9.444      2.729      3.910
REMARK INTER + INTRA:         -14.514
REMARK INTER:                 -13.823
REMARK INTRA:                  -0.691
REMARK UNBOUND:                -1.206
REMARK  7 active torsions:
REMARK  status: ('A' for Active; 'I' for Inactive)
REMARK    1  A    between atoms: N3_2  and  C20_12 
REMARK    2  A    between atoms: C4_3  and  C5_4 
REMARK    3  A    between atoms: C13_9  and  N2_29 
REMARK    4  A    between atoms: C17_11  and  C19_33 
REMARK    5  A    between atoms: C20_12  and  C16_31 
REMARK    6  A    between atoms: C2_23  and  C3_24 
REMARK    7  A    between atoms: C9_25  and  C12_27 
REMARK       I    between atoms: C12_27  and  N2_29 
ROOT
HETATM    1  C12   D T   1     -12.253   4.896  -3.857  1.00 29.52     0.279 C 
HETATM    2  O1    D T   1     -11.030   4.907  -4.027  1.00 32.52    -0.265 OA
HETATM    3  N2    D T   1     -13.122   4.264  -4.670  1.00 29.90    -0.208 NA
ENDROOT
BRANCH   1   4
HETATM    4  C9    D T   1     -12.853   5.618  -2.688  1.00 29.36     0.059 A 
HETATM    5  C8    D T   1     -12.362   6.900  -2.229  1.00 30.11     0.004 A 
HETATM    6  C7    D T   1     -12.967   7.542  -1.106  1.00 28.94    -0.004 A 
HETATM    7  C6    D T   1     -14.076   6.923  -0.428  1.00 28.77    -0.014 A 
HETATM    8  C5    D T   1     -14.565   5.630  -0.901  1.00 26.45     0.038 A 
HETATM    9  C11   D T   1     -14.691   7.657   0.764  1.00 28.14     0.032 C 
HETATM   10  C10   D T   1     -13.946   5.014  -2.015  1.00 27.23     0.013 A 
BRANCH   8  11
HETATM   11  C4    D T   1     -15.689   4.911  -0.308  1.00 24.91    -0.058 C 
HETATM   12  C3    D T   1     -16.684   4.385   0.159  1.00 23.74    -0.039 C 
BRANCH  12  13
HETATM   13  C2    D T   1     -17.875   3.864   0.692  1.00 23.00     0.145 A 
HETATM   14  N82   D T   1     -18.212   3.772   2.016  1.00 25.15    -0.203 N 
HETATM   15  N81   D T   1     -17.459   4.170   3.102  1.00 28.83    -0.162 NA
HETATM   16  C84   D T   1     -19.500   3.178   2.022  1.00 26.40     0.165 A 
HETATM   17  C83   D T   1     -18.071   3.941   4.273  1.00 28.11     0.121 A 
HETATM   18  C82   D T   1     -19.358   3.351   4.439  1.00 26.65     0.026 A 
HETATM   19  C81   D T   1     -20.075   2.973   3.317  1.00 28.42     0.041 A 
HETATM   20  N1    D T   1     -19.917   2.930   0.793  1.00 27.29    -0.223 NA
HETATM   21  C1    D T   1     -18.898   3.355  -0.037  1.00 23.61     0.128 A 
ENDBRANCH  12  13
ENDBRANCH   8  11
ENDBRANCH   1   4
BRANCH   3  22
HETATM   22  C13   D T   1     -12.844   3.257  -5.628  1.00 31.24     0.085 A 
HETATM   23  C14   D T   1     -13.923   2.442  -6.052  1.00 32.94     0.019 A 
HETATM   24  C15   D T   1     -13.706   1.408  -7.017  1.00 32.88    -0.001 A 
HETATM   25  C16   D T   1     -12.395   1.169  -7.584  1.00 31.70     0.015 A 
HETATM   26  C17   D T   1     -11.275   2.013  -7.149  1.00 32.08     0.071 A 
HETATM   27  C18   D T   1     -11.532   3.032  -6.181  1.00 32.72     0.023 A 
BRANCH  25  28
HETATM   28  C20   D T   1     -12.266   0.030  -8.625  1.00 29.95     0.277 C 
BRANCH  28  29
HETATM   29  N3    D T   1     -13.371  -0.938  -8.619  1.00 31.16     0.146 N 
HETATM   30  C21   D T   1     -13.720  -1.444  -9.981  1.00 32.15     0.286 C 
HETATM   31  C22   D T   1     -14.984  -2.331  -9.918  1.00 31.08     0.286 C 
HETATM   32  N4    D T   1     -14.725  -3.508  -9.064  1.00 32.74     0.143 N 
HETATM   33  C23   D T   1     -14.304  -3.081  -7.694  1.00 30.79     0.286 C 
HETATM   34  C25   D T   1     -15.860  -4.421  -9.051  1.00 30.23     0.285 C 
HETATM   35  C24   D T   1     -13.103  -2.085  -7.728  1.00 28.48     0.286 C 
ENDBRANCH  28  29
ENDBRANCH  25  28
BRANCH  26  36
HETATM   36  C19   D T   1      -9.827   1.871  -7.672  1.00 33.23     0.419 C 
HETATM   37  F1    D T   1      -9.005   2.566  -6.905  1.00 33.40    -0.166 F 
HETATM   38  F2    D T   1      -9.395   0.612  -7.650  1.00 31.99    -0.166 F 
HETATM   39  F3    D T   1      -9.729   2.298  -8.933  1.00 36.12    -0.166 F 
ENDBRANCH  26  36
ENDBRANCH   3  22
TORSDOF 7
ENDMDL
MODEL 3
REMARK VINA RESULT:    -9.312      2.759     10.848
REMARK INTER + INTRA:         -14.328
REMARK INTER:                 -13.325
REMARK INTRA:                  -1.003
REMARK UNBOUND:                -1.206
REMARK  7 active torsions:
REMARK  status: ('A' for Active; 'I' for Inactive)
REMARK    1  A    between atoms: N3_2  and  C20_12 
REMARK    2  A    between atoms: C4_3  and  C5_4 
REMARK    3  A    between atoms: C13_9  and  N2_29 
REMARK    4  A    between atoms: C17_11  and  C19_33 
REMARK    5  A    between atoms: C20_12  and  C16_31 
REMARK    6  A    between atoms: C2_23  and  C3_24 
REMARK    7  A    between atoms: C9_25  and  C12_27 
REMARK       I    between atoms: C12_27  and  N2_29 
ROOT
HETATM    1  C12   D T   1     -13.076   4.044  -4.081  1.00 29.52     0.279 C 
HETATM    2  O1    D T   1     -13.484   5.197  -4.248  1.00 32.52    -0.265 OA
HETATM    3  N2    D T   1     -13.401   3.274  -3.025  1.00 29.90    -0.208 NA
ENDROOT
BRANCH   1   4
HETATM    4  C9    D T   1     -12.157   3.422  -5.090  1.00 29.36     0.059 A 
HETATM    5  C8    D T   1     -10.765   3.797  -5.212  1.00 30.11     0.004 A 
HETATM    6  C7    D T   1      -9.935   3.175  -6.194  1.00 28.94    -0.004 A 
HETATM    7  C6    D T   1     -10.476   2.165  -7.065  1.00 28.77    -0.014 A 
HETATM    8  C5    D T   1     -11.883   1.792  -6.932  1.00 26.45     0.038 A 
HETATM    9  C11   D T   1      -9.543   1.527  -8.094  1.00 28.14     0.032 C 
HETATM   10  C10   D T   1     -12.683   2.424  -5.951  1.00 27.23     0.013 A 
BRANCH   8  11
HETATM   11  C4    D T   1     -12.541   0.773  -7.743  1.00 24.91    -0.058 C 
HETATM   12  C3    D T   1     -13.019  -0.138  -8.398  1.00 23.74    -0.039 C 
BRANCH  12  13
HETATM   13  C2    D T   1     -13.482  -1.231  -9.149  1.00 23.00     0.145 A 
HETATM   14  N82   D T   1     -12.852  -1.827 -10.209  1.00 25.15    -0.203 N 
HETATM   15  N81   D T   1     -11.635  -1.483 -10.761  1.00 28.83    -0.162 NA
HETATM   16  C84   D T   1     -13.726  -2.869 -10.612  1.00 26.40     0.165 A 
HETATM   17  C83   D T   1     -11.293  -2.262 -11.798  1.00 28.11     0.121 A 
HETATM   18  C82   D T   1     -12.065  -3.342 -12.318  1.00 26.65     0.026 A 
HETATM   19  C81   D T   1     -13.278  -3.649 -11.725  1.00 28.42     0.041 A 
HETATM   20  N1    D T   1     -14.806  -2.907  -9.851  1.00 27.29    -0.223 NA
HETATM   21  C1    D T   1     -14.653  -1.880  -8.940  1.00 23.61     0.128 A 
ENDBRANCH  12  13
ENDBRANCH   8  11
ENDBRANCH   1   4
BRANCH   3  22
HETATM   22  C13   D T   1     -14.472   3.453  -2.112  1.00 31.24     0.085 A 
HETATM   23  C14   D T   1     -14.161   3.973  -0.833  1.00 32.94     0.019 A 
HETATM   24  C15   D T   1     -15.198   4.176   0.132  1.00 32.88    -0.001 A 
HETATM   25  C16   D T   1     -16.580   3.863  -0.170  1.00 31.70     0.015 A 
HETATM   26  C17   D T   1     -16.906   3.324  -1.496  1.00 32.08     0.071 A 
HETATM   27  C18   D T   1     -15.841   3.134  -2.429  1.00 32.72     0.023 A 
BRANCH  25  28
HETATM   28  C20   D T   1     -17.628   4.123   0.940  1.00 29.95     0.277 C 
BRANCH  28  29
HETATM   29  N3    D T   1     -18.355   5.393   0.814  1.00 31.16     0.146 N 
HETATM   30  C21   D T   1     -17.819   6.276  -0.265  1.00 32.15     0.286 C 
HETATM   31  C22   D T   1     -18.524   7.651  -0.236  1.00 31.08     0.286 C 
HETATM   32  N4    D T   1     -19.969   7.475  -0.489  1.00 32.74     0.143 N 
HETATM   33  C23   D T   1     -20.569   6.546   0.518  1.00 30.79     0.286 C 
HETATM   34  C25   D T   1     -20.660   8.755  -0.563  1.00 30.23     0.285 C 
HETATM   35  C24   D T   1     -19.802   5.189   0.601  1.00 28.48     0.286 C 
ENDBRANCH  28  29
ENDBRANCH  25  28
BRANCH  26  36
HETATM   36  C19   D T   1     -18.334   2.949  -1.953  1.00 33.23     0.419 C 
HETATM   37  F1    D T   1     -19.019   4.047  -2.223  1.00 33.40    -0.166 F 
HETATM   38  F2    D T   1     -18.341   2.214  -3.063  1.00 31.99    -0.166 F 
HETATM   39  F3    D T   1     -18.970   2.246  -1.013  1.00 36.12    -0.166 F 
ENDBRANCH  26  36
ENDBRANCH   3  22
TORSDOF 7
ENDMDL
MODEL 4
REMARK VINA RESULT:    -9.223      3.483     10.738
REMARK INTER + INTRA:         -14.203
REMARK INTER:                 -13.219
REMARK INTRA:                  -0.984
REMARK UNBOUND:                -1.206
REMARK  7 active torsions:
REMARK  status: ('A' for Active; 'I' for Inactive)
REMARK    1  A    between atoms: N3_2  and  C20_12 
REMARK    2  A    between atoms: C4_3  and  C5_4 
REMARK    3  A    between atoms: C13_9  and  N2_29 
REMARK    4  A    between atoms: C17_11  and  C19_33 
REMARK    5  A    between atoms: C20_12  and  C16_31 
REMARK    6  A    between atoms: C2_23  and  C3_24 
REMARK    7  A    between atoms: C9_25  and  C12_27 
REMARK       I    between atoms: C12_27  and  N2_29 
ROOT
HETATM    1  C12   D T   1     -12.640   4.394  -4.104  1.00 29.52     0.279 C 
HETATM    2  O1    D T   1     -12.502   5.608  -3.925  1.00 32.52    -0.265 OA
HETATM    3  N2    D T   1     -13.539   3.633  -3.452  1.00 29.90    -0.208 NA
ENDROOT
BRANCH   1   4
HETATM    4  C9    D T   1     -11.771   3.681  -5.097  1.00 29.36     0.059 A 
HETATM    5  C8    D T   1     -10.367   3.990  -5.268  1.00 30.11     0.004 A 
HETATM    6  C7    D T   1      -9.587   3.283  -6.233  1.00 28.94    -0.004 A 
HETATM    7  C6    D T   1     -10.190   2.252  -7.037  1.00 28.77    -0.014 A 
HETATM    8  C5    D T   1     -11.608   1.947  -6.855  1.00 26.45     0.038 A 
HETATM    9  C11   D T   1      -9.308   1.522  -8.050  1.00 28.14     0.032 C 
HETATM   10  C10   D T   1     -12.358   2.663  -5.893  1.00 27.23     0.013 A 
BRANCH   8  11
HETATM   11  C4    D T   1     -12.326   0.916  -7.597  1.00 24.91    -0.058 C 
HETATM   12  C3    D T   1     -12.904   0.102  -8.298  1.00 23.74    -0.039 C 
BRANCH  12  13
HETATM   13  C2    D T   1     -13.568  -0.769  -9.176  1.00 23.00     0.145 A 
HETATM   14  N82   D T   1     -13.011  -1.486 -10.201  1.00 25.15    -0.203 N 
HETATM   15  N81   D T   1     -11.685  -1.506 -10.585  1.00 28.83    -0.162 NA
HETATM   16  C84   D T   1     -14.094  -2.199 -10.777  1.00 26.40     0.165 A 
HETATM   17  C83   D T   1     -11.458  -2.311 -11.634  1.00 28.11     0.121 A 
HETATM   18  C82   D T   1     -12.441  -3.086 -12.317  1.00 26.65     0.026 A 
HETATM   19  C81   D T   1     -13.756  -3.034 -11.890  1.00 28.42     0.041 A 
HETATM   20  N1    D T   1     -15.226  -1.937 -10.147  1.00 27.29    -0.223 NA
HETATM   21  C1    D T   1     -14.896  -1.040  -9.150  1.00 23.61     0.128 A 
ENDBRANCH  12  13
ENDBRANCH   8  11
ENDBRANCH   1   4
BRANCH   3  22
HETATM   22  C13   D T   1     -14.682   4.060  -2.728  1.00 31.24     0.085 A 
HETATM   23  C14   D T   1     -15.937   3.976  -3.379  1.00 32.94     0.019 A 
HETATM   24  C15   D T   1     -17.126   4.392  -2.702  1.00 32.88    -0.001 A 
HETATM   25  C16   D T   1     -17.083   4.901  -1.346  1.00 31.70     0.015 A 
HETATM   26  C17   D T   1     -15.784   4.988  -0.668  1.00 32.08     0.071 A 
HETATM   27  C18   D T   1     -14.620   4.565  -1.380  1.00 32.72     0.023 A 
BRANCH  25  28
HETATM   28  C20   D T   1     -18.426   5.320  -0.700  1.00 29.95     0.277 C 
BRANCH  28  29
HETATM   29  N3    D T   1     -19.198   4.216  -0.114  1.00 31.16     0.146 N 
HETATM   30  C21   D T   1     -18.576   2.876  -0.338  1.00 32.15     0.286 C 
HETATM   31  C22   D T   1     -19.515   1.756   0.162  1.00 31.08     0.286 C 
HETATM   32  N4    D T   1     -19.735   1.901   1.616  1.00 32.74     0.143 N 
HETATM   33  C23   D T   1     -20.299   3.251   1.929  1.00 30.79     0.286 C 
HETATM   34  C25   D T   1     -20.540   0.811   2.149  1.00 30.23     0.285 C 
HETATM   35  C24   D T   1     -19.436   4.406   1.331  1.00 28.48     0.286 C 
ENDBRANCH  28  29
ENDBRANCH  25  28
BRANCH  26  36
HETATM   36  C19   D T   1     -15.591   5.507   0.775  1.00 33.23     0.419 C 
HETATM   37  F1    D T   1     -14.302   5.656   1.027  1.00 33.40    -0.166 F 
HETATM   38  F2    D T   1     -16.157   6.696   0.972  1.00 31.99    -0.166 F 
HETATM   39  F3    D T   1     -16.125   4.666   1.663  1.00 36.12    -0.166 F 
ENDBRANCH  26  36
ENDBRANCH   3  22
TORSDOF 7
ENDMDL
MODEL 5
REMARK VINA RESULT:    -9.212      3.108     11.219
REMARK INTER + INTRA:         -14.188
REMARK INTER:                 -13.571
REMARK INTRA:                  -0.617
REMARK UNBOUND:                -1.206
REMARK  7 active torsions:
REMARK  status: ('A' for Active; 'I' for Inactive)
REMARK    1  A    between atoms: N3_2  and  C20_12 
REMARK    2  A    between atoms: C4_3  and  C5_4 
REMARK    3  A    between atoms: C13_9  and  N2_29 
REMARK    4  A    between atoms: C17_11  and  C19_33 
REMARK    5  A    between atoms: C20_12  and  C16_31 
REMARK    6  A    between atoms: C2_23  and  C3_24 
REMARK    7  A    between atoms: C9_25  and  C12_27 
REMARK       I    between atoms: C12_27  and  N2_29 
ROOT
HETATM    1  C12   D T   1     -13.465   3.624  -4.961  1.00 29.52     0.279 C 
HETATM    2  O1    D T   1     -13.838   4.776  -5.200  1.00 32.52    -0.265 OA
HETATM    3  N2    D T   1     -13.977   2.853  -3.982  1.00 29.90    -0.208 NA
ENDROOT
BRANCH   1   4
HETATM    4  C9    D T   1     -12.376   3.004  -5.784  1.00 29.36     0.059 A 
HETATM    5  C8    D T   1     -10.995   3.430  -5.699  1.00 30.11     0.004 A 
HETATM    6  C7    D T   1      -9.998   2.809  -6.510  1.00 28.94    -0.004 A 
HETATM    7  C6    D T   1     -10.357   1.747  -7.413  1.00 28.77    -0.014 A 
HETATM    8  C5    D T   1     -11.754   1.322  -7.490  1.00 26.45     0.038 A 
HETATM    9  C11   D T   1      -9.250   1.111  -8.254  1.00 28.14     0.032 C 
HETATM   10  C10   D T   1     -12.722   1.956  -6.676  1.00 27.23     0.013 A 
BRANCH   8  11
HETATM   11  C4    D T   1     -12.238   0.249  -8.353  1.00 24.91    -0.058 C 
HETATM   12  C3    D T   1     -12.601  -0.709  -9.013  1.00 23.74    -0.039 C 
BRANCH  12  13
HETATM   13  C2    D T   1     -12.956  -1.867  -9.725  1.00 23.00     0.145 A 
HETATM   14  N82   D T   1     -12.336  -2.370 -10.838  1.00 25.15    -0.203 N 
HETATM   15  N81   D T   1     -11.238  -1.849 -11.492  1.00 28.83    -0.162 NA
HETATM   16  C84   D T   1     -13.072  -3.537 -11.167  1.00 26.40     0.165 A 
HETATM   17  C83   D T   1     -10.873  -2.577 -12.558  1.00 28.11     0.121 A 
HETATM   18  C82   D T   1     -11.513  -3.767 -13.013  1.00 26.65     0.026 A 
HETATM   19  C81   D T   1     -12.608  -4.250 -12.319  1.00 28.42     0.041 A 
HETATM   20  N1    D T   1     -14.063  -3.732 -10.315  1.00 27.29    -0.223 NA
HETATM   21  C1    D T   1     -13.991  -2.685  -9.417  1.00 23.61     0.128 A 
ENDBRANCH  12  13
ENDBRANCH   8  11
ENDBRANCH   1   4
BRANCH   3  22
HETATM   22  C13   D T   1     -15.197   3.029  -3.282  1.00 31.24     0.085 A 
HETATM   23  C14   D T   1     -15.150   2.995  -1.867  1.00 32.94     0.019 A 
HETATM   24  C15   D T   1     -16.348   3.167  -1.104  1.00 32.88    -0.001 A 
HETATM   25  C16   D T   1     -17.628   3.380  -1.748  1.00 31.70     0.015 A 
HETATM   26  C17   D T   1     -17.680   3.417  -3.215  1.00 32.08     0.071 A 
HETATM   27  C18   D T   1     -16.462   3.239  -3.940  1.00 32.72     0.023 A 
BRANCH  25  28
HETATM   28  C20   D T   1     -18.864   3.560  -0.834  1.00 29.95     0.277 C 
BRANCH  28  29
HETATM   29  N3    D T   1     -18.604   3.372   0.599  1.00 31.16     0.146 N 
HETATM   30  C21   D T   1     -17.828   4.494   1.210  1.00 32.15     0.286 C 
HETATM   31  C22   D T   1     -17.455   4.158   2.671  1.00 31.08     0.286 C 
HETATM   32  N4    D T   1     -18.684   3.985   3.473  1.00 32.74     0.143 N 
HETATM   33  C23   D T   1     -19.549   2.917   2.883  1.00 30.79     0.286 C 
HETATM   34  C25   D T   1     -18.381   3.759   4.879  1.00 30.23     0.285 C 
HETATM   35  C24   D T   1     -19.845   3.163   1.370  1.00 28.48     0.286 C 
ENDBRANCH  28  29
ENDBRANCH  25  28
BRANCH  26  36
HETATM   36  C19   D T   1     -18.974   3.639  -4.032  1.00 33.23     0.419 C 
HETATM   37  F1    D T   1     -19.826   2.658  -3.793  1.00 33.40    -0.166 F 
HETATM   38  F2    D T   1     -19.596   4.771  -3.710  1.00 31.99    -0.166 F 
HETATM   39  F3    D T   1     -18.712   3.694  -5.340  1.00 36.12    -0.166 F 
ENDBRANCH  26  36
ENDBRANCH   3  22
TORSDOF 7
ENDMDL
MODEL 6
REMARK VINA RESULT:    -8.995      3.240      4.785
REMARK INTER + INTRA:         -13.882
REMARK INTER:                 -13.269
REMARK INTRA:                  -0.613
REMARK UNBOUND:                -1.206
REMARK  7 active torsions:
REMARK  status: ('A' for Active; 'I' for Inactive)
REMARK    1  A    between atoms: N3_2  and  C20_12 
REMARK    2  A    between atoms: C4_3  and  C5_4 
REMARK    3  A    between atoms: C13_9  and  N2_29 
REMARK    4  A    between atoms: C17_11  and  C19_33 
REMARK    5  A    between atoms: C20_12  and  C16_31 
REMARK    6  A    between atoms: C2_23  and  C3_24 
REMARK    7  A    between atoms: C9_25  and  C12_27 
REMARK       I    between atoms: C12_27  and  N2_29 
ROOT
HETATM    1  C12   D T   1     -12.809   1.321  -7.217  1.00 29.52     0.279 C 
HETATM    2  O1    D T   1     -14.037   1.443  -7.163  1.00 32.52    -0.265 OA
HETATM    3  N2    D T   1     -12.177   0.345  -7.898  1.00 29.90    -0.208 NA
ENDROOT
BRANCH   1   4
HETATM    4  C9    D T   1     -11.928   2.295  -6.494  1.00 29.36     0.059 A 
HETATM    5  C8    D T   1     -10.523   2.456  -6.806  1.00 30.11     0.004 A 
HETATM    6  C7    D T   1      -9.728   3.396  -6.083  1.00 28.94    -0.004 A 
HETATM    7  C6    D T   1     -10.320   4.196  -5.042  1.00 28.77    -0.014 A 
HETATM    8  C5    D T   1     -11.739   4.027  -4.737  1.00 26.45     0.038 A 
HETATM    9  C11   D T   1      -9.425   5.191  -4.304  1.00 28.14     0.032 C 
HETATM   10  C10   D T   1     -12.503   3.087  -5.468  1.00 27.23     0.013 A 
BRANCH   8  11
HETATM   11  C4    D T   1     -12.454   4.789  -3.718  1.00 24.91    -0.058 C 
HETATM   12  C3    D T   1     -12.968   5.434  -2.820  1.00 23.74    -0.039 C 
BRANCH  12  13
HETATM   13  C2    D T   1     -13.481   6.159  -1.731  1.00 23.00     0.145 A 
HETATM   14  N82   D T   1     -13.137   7.430  -1.354  1.00 25.15    -0.203 N 
HETATM   15  N81   D T   1     -12.218   8.263  -1.960  1.00 28.83    -0.162 NA
HETATM   16  C84   D T   1     -13.928   7.696  -0.208  1.00 26.40     0.165 A 
HETATM   17  C83   D T   1     -12.105   9.450  -1.345  1.00 28.11     0.121 A 
HETATM   18  C82   D T   1     -12.829   9.860  -0.187  1.00 26.65     0.026 A 
HETATM   19  C81   D T   1     -13.741   8.987   0.381  1.00 28.42     0.041 A 
HETATM   20  N1    D T   1     -14.699   6.664   0.089  1.00 27.29    -0.223 NA
HETATM   21  C1    D T   1     -14.415   5.704  -0.862  1.00 23.61     0.128 A 
ENDBRANCH  12  13
ENDBRANCH   8  11
ENDBRANCH   1   4
BRANCH   3  22
HETATM   22  C13   D T   1     -12.705  -0.492  -8.914  1.00 31.24     0.085 A 
HETATM   23  C14   D T   1     -14.101  -0.730  -8.904  1.00 32.94     0.019 A 
HETATM   24  C15   D T   1     -14.694  -1.565  -9.903  1.00 32.88    -0.001 A 
HETATM   25  C16   D T   1     -13.894  -2.182 -10.942  1.00 31.70     0.015 A 
HETATM   26  C17   D T   1     -12.446  -1.936 -10.955  1.00 32.08     0.071 A 
HETATM   27  C18   D T   1     -11.894  -1.098  -9.938  1.00 32.72     0.023 A 
BRANCH  25  28
HETATM   28  C20   D T   1     -14.631  -3.065 -11.979  1.00 29.95     0.277 C 
BRANCH  28  29
HETATM   29  N3    D T   1     -15.345  -4.216 -11.412  1.00 31.16     0.146 N 
HETATM   30  C21   D T   1     -16.162  -4.958 -12.419  1.00 32.15     0.286 C 
HETATM   31  C22   D T   1     -17.005  -6.053 -11.728  1.00 31.08     0.286 C 
HETATM   32  N4    D T   1     -16.113  -7.033 -11.076  1.00 32.74     0.143 N 
HETATM   33  C23   D T   1     -15.213  -6.352 -10.094  1.00 30.79     0.286 C 
HETATM   34  C25   D T   1     -16.863  -8.135 -10.490  1.00 30.23     0.285 C 
HETATM   35  C24   D T   1     -14.435  -5.159 -10.733  1.00 28.48     0.286 C 
ENDBRANCH  28  29
ENDBRANCH  25  28
BRANCH  26  36
HETATM   36  C19   D T   1     -11.475  -2.526 -12.003  1.00 33.23     0.419 C 
HETATM   37  F1    D T   1     -11.688  -3.824 -12.128  1.00 33.40    -0.166 F 
HETATM   38  F2    D T   1     -11.642  -1.995 -13.213  1.00 31.99    -0.166 F 
HETATM   39  F3    D T   1     -10.205  -2.314 -11.653  1.00 36.12    -0.166 F 
ENDBRANCH  26  36
ENDBRANCH   3  22
TORSDOF 7
ENDMDL
MODEL 7
REMARK VINA RESULT:    -8.971      3.023      4.855
REMARK INTER + INTRA:         -13.848
REMARK INTER:                 -12.974
REMARK INTRA:                  -0.874
REMARK UNBOUND:                -1.206
REMARK  7 active torsions:
REMARK  status: ('A' for Active; 'I' for Inactive)
REMARK    1  A    between atoms: N3_2  and  C20_12 
REMARK    2  A    between atoms: C4_3  and  C5_4 
REMARK    3  A    between atoms: C13_9  and  N2_29 
REMARK    4  A    between atoms: C17_11  and  C19_33 
REMARK    5  A    between atoms: C20_12  and  C16_31 
REMARK    6  A    between atoms: C2_23  and  C3_24 
REMARK    7  A    between atoms: C9_25  and  C12_27 
REMARK       I    between atoms: C12_27  and  N2_29 
ROOT
HETATM    1  C12   D T   1     -12.731   6.849  -2.871  1.00 29.52     0.279 C 
HETATM    2  O1    D T   1     -11.892   7.474  -3.526  1.00 32.52    -0.265 OA
HETATM    3  N2    D T   1     -13.292   5.692  -3.270  1.00 29.90    -0.208 NA
ENDROOT
BRANCH   1   4
HETATM    4  C9    D T   1     -13.186   7.375  -1.542  1.00 29.36     0.059 A 
HETATM    5  C8    D T   1     -12.720   8.635  -1.001  1.00 30.11     0.004 A 
HETATM    6  C7    D T   1     -13.182   9.086   0.272  1.00 28.94    -0.004 A 
HETATM    7  C6    D T   1     -14.121   8.296   1.024  1.00 28.77    -0.014 A 
HETATM    8  C5    D T   1     -14.588   7.028   0.468  1.00 26.45     0.038 A 
HETATM    9  C11   D T   1     -14.589   8.830   2.378  1.00 28.14     0.032 C 
HETATM   10  C10   D T   1     -14.113   6.603  -0.795  1.00 27.23     0.013 A 
BRANCH   8  11
HETATM   11  C4    D T   1     -15.549   6.148   1.126  1.00 24.91    -0.058 C 
HETATM   12  C3    D T   1     -16.385   5.390   1.588  1.00 23.74    -0.039 C 
BRANCH  12  13
HETATM   13  C2    D T   1     -17.392   4.519   2.034  1.00 23.00     0.145 A 
HETATM   14  N82   D T   1     -18.138   3.663   1.268  1.00 25.15    -0.203 N 
HETATM   15  N81   D T   1     -18.059   3.477  -0.097  1.00 28.83    -0.162 NA
HETATM   16  C84   D T   1     -19.007   3.018   2.185  1.00 26.40     0.165 A 
HETATM   17  C83   D T   1     -18.933   2.566  -0.551  1.00 28.11     0.121 A 
HETATM   18  C82   D T   1     -19.867   1.839   0.245  1.00 26.65     0.026 A 
HETATM   19  C81   D T   1     -19.903   2.061   1.611  1.00 28.42     0.041 A 
HETATM   20  N1    D T   1     -18.802   3.447   3.418  1.00 27.29    -0.223 NA
HETATM   21  C1    D T   1     -17.795   4.387   3.321  1.00 23.61     0.128 A 
ENDBRANCH  12  13
ENDBRANCH   8  11
ENDBRANCH   1   4
BRANCH   3  22
HETATM   22  C13   D T   1     -12.837   4.807  -4.281  1.00 31.24     0.085 A 
HETATM   23  C14   D T   1     -13.804   4.287  -5.177  1.00 32.94     0.019 A 
HETATM   24  C15   D T   1     -13.408   3.389  -6.218  1.00 32.88    -0.001 A 
HETATM   25  C16   D T   1     -12.025   2.993  -6.387  1.00 31.70     0.015 A 
HETATM   26  C17   D T   1     -11.020   3.532  -5.461  1.00 32.08     0.071 A 
HETATM   27  C18   D T   1     -11.457   4.423  -4.433  1.00 32.72     0.023 A 
BRANCH  25  28
HETATM   28  C20   D T   1     -11.699   2.021  -7.548  1.00 29.95     0.277 C 
BRANCH  28  29
HETATM   29  N3    D T   1     -12.643   0.908  -7.703  1.00 31.16     0.146 N 
HETATM   30  C21   D T   1     -12.221  -0.084  -8.738  1.00 32.15     0.286 C 
HETATM   31  C22   D T   1     -13.331  -1.137  -8.959  1.00 31.08     0.286 C 
HETATM   32  N4    D T   1     -13.569  -1.882  -7.706  1.00 32.74     0.143 N 
HETATM   33  C23   D T   1     -13.935  -0.944  -6.600  1.00 30.79     0.286 C 
HETATM   34  C25   D T   1     -14.543  -2.948  -7.893  1.00 30.23     0.285 C 
HETATM   35  C24   D T   1     -12.893   0.205  -6.429  1.00 28.48     0.286 C 
ENDBRANCH  28  29
ENDBRANCH  25  28
BRANCH  26  36
HETATM   36  C19   D T   1      -9.512   3.198  -5.526  1.00 33.23     0.419 C 
HETATM   37  F1    D T   1      -8.859   3.905  -4.622  1.00 33.40    -0.166 F 
HETATM   38  F2    D T   1      -9.259   1.917  -5.264  1.00 31.99    -0.166 F 
HETATM   39  F3    D T   1      -9.016   3.455  -6.738  1.00 36.12    -0.166 F 
ENDBRANCH  26  36
ENDBRANCH   3  22
TORSDOF 7
ENDMDL
MODEL 8
REMARK VINA RESULT:    -8.942      3.107      4.361
REMARK INTER + INTRA:         -13.808
REMARK INTER:                 -12.480
REMARK INTRA:                  -1.327
REMARK UNBOUND:                -1.206
REMARK  7 active torsions:
REMARK  status: ('A' for Active; 'I' for Inactive)
REMARK    1  A    between atoms: N3_2  and  C20_12 
REMARK    2  A    between atoms: C4_3  and  C5_4 
REMARK    3  A    between atoms: C13_9  and  N2_29 
REMARK    4  A    between atoms: C17_11  and  C19_33 
REMARK    5  A    between atoms: C20_12  and  C16_31 
REMARK    6  A    between atoms: C2_23  and  C3_24 
REMARK    7  A    between atoms: C9_25  and  C12_27 
REMARK       I    between atoms: C12_27  and  N2_29 
ROOT
HETATM    1  C12   D T   1     -11.670   1.132  -7.685  1.00 29.52     0.279 C 
HETATM    2  O1    D T   1     -10.996   0.591  -8.567  1.00 32.52    -0.265 OA
HETATM    3  N2    D T   1     -12.950   0.814  -7.413  1.00 29.90    -0.208 NA
ENDROOT
BRANCH   1   4
HETATM    4  C9    D T   1     -11.068   2.215  -6.841  1.00 29.36     0.059 A 
HETATM    5  C8    D T   1      -9.699   2.658  -7.001  1.00 30.11     0.004 A 
HETATM    6  C7    D T   1      -9.175   3.691  -6.166  1.00 28.94    -0.004 A 
HETATM    7  C6    D T   1     -10.006   4.306  -5.165  1.00 28.77    -0.014 A 
HETATM    8  C5    D T   1     -11.388   3.854  -5.014  1.00 26.45     0.038 A 
HETATM    9  C11   D T   1      -9.397   5.412  -4.304  1.00 28.14     0.032 C 
HETATM   10  C10   D T   1     -11.882   2.827  -5.853  1.00 27.23     0.013 A 
BRANCH   8  11
HETATM   11  C4    D T   1     -12.331   4.410  -4.049  1.00 24.91    -0.058 C 
HETATM   12  C3    D T   1     -13.072   4.825  -3.174  1.00 23.74    -0.039 C 
BRANCH  12  13
HETATM   13  C2    D T   1     -13.893   5.232  -2.109  1.00 23.00     0.145 A 
HETATM   14  N82   D T   1     -14.859   4.489  -1.485  1.00 25.15    -0.203 N 
HETATM   15  N81   D T   1     -15.229   3.189  -1.768  1.00 28.83    -0.162 NA
HETATM   16  C84   D T   1     -15.393   5.348  -0.491  1.00 26.40     0.165 A 
HETATM   17  C83   D T   1     -16.216   2.744  -0.976  1.00 28.11     0.121 A 
HETATM   18  C82   D T   1     -16.852   3.488   0.061  1.00 26.65     0.026 A 
HETATM   19  C81   D T   1     -16.441   4.787   0.306  1.00 28.42     0.041 A 
HETATM   20  N1    D T   1     -14.794   6.526  -0.508  1.00 27.29    -0.223 NA
HETATM   21  C1    D T   1     -13.859   6.453  -1.522  1.00 23.61     0.128 A 
ENDBRANCH  12  13
ENDBRANCH   8  11
ENDBRANCH   1   4
BRANCH   3  22
HETATM   22  C13   D T   1     -13.660  -0.352  -7.797  1.00 31.24     0.085 A 
HETATM   23  C14   D T   1     -13.605  -1.467  -6.926  1.00 32.94     0.019 A 
HETATM   24  C15   D T   1     -14.300  -2.673  -7.258  1.00 32.88    -0.001 A 
HETATM   25  C16   D T   1     -15.073  -2.786  -8.478  1.00 31.70     0.015 A 
HETATM   26  C17   D T   1     -15.133  -1.631  -9.383  1.00 32.08     0.071 A 
HETATM   27  C18   D T   1     -14.423  -0.447  -9.016  1.00 32.72     0.023 A 
BRANCH  25  28
HETATM   28  C20   D T   1     -15.792  -4.131  -8.744  1.00 29.95     0.277 C 
BRANCH  28  29
HETATM   29  N3    D T   1     -16.832  -4.478  -7.766  1.00 31.16     0.146 N 
HETATM   30  C21   D T   1     -18.152  -3.842  -8.059  1.00 32.15     0.286 C 
HETATM   31  C22   D T   1     -19.149  -4.120  -6.911  1.00 31.08     0.286 C 
HETATM   32  N4    D T   1     -19.378  -5.574  -6.790  1.00 32.74     0.143 N 
HETATM   33  C23   D T   1     -18.086  -6.292  -6.560  1.00 30.79     0.286 C 
HETATM   34  C25   D T   1     -20.383  -5.877  -5.781  1.00 30.23     0.285 C 
HETATM   35  C24   D T   1     -17.013  -5.938  -7.636  1.00 28.48     0.286 C 
ENDBRANCH  28  29
ENDBRANCH  25  28
BRANCH  26  36
HETATM   36  C19   D T   1     -15.920  -1.611 -10.714  1.00 33.23     0.419 C 
HETATM   37  F1    D T   1     -15.429  -2.521 -11.536  1.00 33.40    -0.166 F 
HETATM   38  F2    D T   1     -17.209  -1.900 -10.551  1.00 31.99    -0.166 F 
HETATM   39  F3    D T   1     -15.857  -0.409 -11.290  1.00 36.12    -0.166 F 
ENDBRANCH  26  36
ENDBRANCH   3  22
TORSDOF 7
ENDMDL
MODEL 9
REMARK VINA RESULT:    -8.756      2.943     10.476
REMARK INTER + INTRA:         -13.545
REMARK INTER:                 -12.390
REMARK INTRA:                  -1.155
REMARK UNBOUND:                -1.206
REMARK  7 active torsions:
REMARK  status: ('A' for Active; 'I' for Inactive)
REMARK    1  A    between atoms: N3_2  and  C20_12 
REMARK    2  A    between atoms: C4_3  and  C5_4 
REMARK    3  A    between atoms: C13_9  and  N2_29 
REMARK    4  A    between atoms: C17_11  and  C19_33 
REMARK    5  A    between atoms: C20_12  and  C16_31 
REMARK    6  A    between atoms: C2_23  and  C3_24 
REMARK    7  A    between atoms: C9_25  and  C12_27 
REMARK       I    between atoms: C12_27  and  N2_29 
ROOT
HETATM    1  C12   D T   1     -12.512   4.171  -4.238  1.00 29.52     0.279 C 
HETATM    2  O1    D T   1     -12.304   5.376  -4.070  1.00 32.52    -0.265 OA
HETATM    3  N2    D T   1     -13.397   3.451  -3.524  1.00 29.90    -0.208 NA
ENDROOT
BRANCH   1   4
HETATM    4  C9    D T   1     -11.754   3.421  -5.292  1.00 29.36     0.059 A 
HETATM    5  C8    D T   1     -10.351   3.660  -5.562  1.00 30.11     0.004 A 
HETATM    6  C7    D T   1      -9.678   2.921  -6.582  1.00 28.94    -0.004 A 
HETATM    7  C6    D T   1     -10.388   1.926  -7.343  1.00 28.77    -0.014 A 
HETATM    8  C5    D T   1     -11.803   1.691  -7.061  1.00 26.45     0.038 A 
HETATM    9  C11   D T   1      -9.618   1.158  -8.418  1.00 28.14     0.032 C 
HETATM   10  C10   D T   1     -12.445   2.439  -6.047  1.00 27.23     0.013 A 
BRANCH   8  11
HETATM   11  C4    D T   1     -12.623   0.701  -7.752  1.00 24.91    -0.058 C 
HETATM   12  C3    D T   1     -13.385  -0.075  -8.302  1.00 23.74    -0.039 C 
BRANCH  12  13
HETATM   13  C2    D T   1     -14.336  -0.931  -8.883  1.00 23.00     0.145 A 
HETATM   14  N82   D T   1     -14.806  -2.109  -8.367  1.00 25.15    -0.203 N 
HETATM   15  N81   D T   1     -14.449  -2.702  -7.173  1.00 28.83    -0.162 NA
HETATM   16  C84   D T   1     -15.735  -2.582  -9.329  1.00 26.40     0.165 A 
HETATM   17  C83   D T   1     -15.089  -3.860  -6.954  1.00 28.11     0.121 A 
HETATM   18  C82   D T   1     -16.044  -4.461  -7.825  1.00 26.65     0.026 A 
HETATM   19  C81   D T   1     -16.370  -3.824  -9.010  1.00 28.42     0.041 A 
HETATM   20  N1    D T   1     -15.825  -1.751 -10.353  1.00 27.29    -0.223 NA
HETATM   21  C1    D T   1     -14.947  -0.722 -10.075  1.00 23.61     0.128 A 
ENDBRANCH  12  13
ENDBRANCH   8  11
ENDBRANCH   1   4
BRANCH   3  22
HETATM   22  C13   D T   1     -14.463   3.930  -2.719  1.00 31.24     0.085 A 
HETATM   23  C14   D T   1     -14.125   4.703  -1.581  1.00 32.94     0.019 A 
HETATM   24  C15   D T   1     -15.155   5.214  -0.730  1.00 32.88    -0.001 A 
HETATM   25  C16   D T   1     -16.555   4.962  -1.004  1.00 31.70     0.015 A 
HETATM   26  C17   D T   1     -16.908   4.161  -2.183  1.00 32.08     0.071 A 
HETATM   27  C18   D T   1     -15.850   3.667  -3.006  1.00 32.72     0.023 A 
BRANCH  25  28
HETATM   28  C20   D T   1     -17.593   5.563  -0.025  1.00 29.95     0.277 C 
BRANCH  28  29
HETATM   29  N3    D T   1     -18.146   4.612   0.948  1.00 31.16     0.146 N 
HETATM   30  C21   D T   1     -17.720   4.891   2.354  1.00 32.15     0.286 C 
HETATM   31  C22   D T   1     -18.205   3.767   3.296  1.00 31.08     0.286 C 
HETATM   32  N4    D T   1     -19.681   3.711   3.287  1.00 32.74     0.143 N 
HETATM   33  C23   D T   1     -20.190   3.498   1.896  1.00 30.79     0.286 C 
HETATM   34  C25   D T   1     -20.187   2.727   4.233  1.00 30.23     0.285 C 
HETATM   35  C24   D T   1     -19.620   4.548   0.891  1.00 28.48     0.286 C 
ENDBRANCH  28  29
ENDBRANCH  25  28
BRANCH  26  36
HETATM   36  C19   D T   1     -18.357   3.817  -2.597  1.00 33.23     0.419 C 
HETATM   37  F1    D T   1     -18.849   2.901  -1.781  1.00 33.40    -0.166 F 
HETATM   38  F2    D T   1     -19.173   4.867  -2.526  1.00 31.99    -0.166 F 
HETATM   39  F3    D T   1     -18.404   3.367  -3.852  1.00 36.12    -0.166 F 
ENDBRANCH  26  36
ENDBRANCH   3  22
TORSDOF 7
ENDMDL
