MODEL 1
REMARK VINA RESULT:    -8.519      0.000      0.000
REMARK INTER + INTRA:         -13.132
REMARK INTER:                 -12.005
REMARK INTRA:                  -1.126
REMARK UNBOUND:                -1.126
REMARK  7 active torsions:
REMARK  status: ('A' for Active; 'I' for Inactive)
REMARK    1  A    between atoms: N3_2  and  C20_12 
REMARK    2  A    between atoms: C4_3  and  C5_4 
REMARK    3  A    between atoms: C13_9  and  N2_29 
REMARK    4  A    between atoms: C17_11  and  C19_33 
REMARK    5  A    between atoms: C20_12  and  C16_31 
REMARK    6  A    between atoms: C2_23  and  C3_24 
REMARK    7  A    between atoms: C9_25  and  C12_27 
REMARK       I    between atoms: C12_27  and  N2_29 
ROOT
HETATM    1  C12   D T   1       9.999  -7.364  -0.476  1.00 29.52     0.279 C 
HETATM    2  O1    D T   1      10.981  -7.921  -0.976  1.00 32.52    -0.265 OA
HETATM    3  N2    D T   1       8.935  -8.020   0.025  1.00 29.90    -0.208 NA
ENDROOT
BRANCH   1   4
HETATM    4  C9    D T   1       9.944  -5.868  -0.399  1.00 29.36     0.059 A 
HETATM    5  C8    D T   1      10.435  -5.127   0.743  1.00 30.11     0.004 A 
HETATM    6  C7    D T   1      10.353  -3.702   0.766  1.00 28.94    -0.004 A 
HETATM    7  C6    D T   1       9.788  -2.990  -0.352  1.00 28.77    -0.014 A 
HETATM    8  C5    D T   1       9.299  -3.748  -1.501  1.00 26.45     0.038 A 
HETATM    9  C11   D T   1       9.732  -1.464  -0.278  1.00 28.14     0.032 C 
HETATM   10  C10   D T   1       9.389  -5.160  -1.497  1.00 27.23     0.013 A 
BRANCH   8  11
HETATM   11  C4    D T   1       8.722  -3.140  -2.696  1.00 24.91    -0.058 C 
HETATM   12  C3    D T   1       8.311  -2.676  -3.746  1.00 23.74    -0.039 C 
BRANCH  12  13
HETATM   13  C2    D T   1       7.922  -2.162  -4.994  1.00 23.00     0.145 A 
HETATM   14  N82   D T   1       8.077  -0.877  -5.439  1.00 25.15    -0.203 N 
HETATM   15  N81   D T   1       8.645   0.182  -4.760  1.00 28.83    -0.162 NA
HETATM   16  C84   D T   1       7.523  -0.874  -6.746  1.00 26.40     0.165 A 
HETATM   17  C83   D T   1       8.644   1.319  -5.470  1.00 28.11     0.121 A 
HETATM   18  C82   D T   1       8.125   1.477  -6.788  1.00 26.65     0.026 A 
HETATM   19  C81   D T   1       7.567   0.383  -7.428  1.00 28.42     0.041 A 
HETATM   20  N1    D T   1       7.068  -2.071  -7.071  1.00 27.29    -0.223 NA
HETATM   21  C1    D T   1       7.314  -2.874  -5.975  1.00 23.61     0.128 A 
ENDBRANCH  12  13
ENDBRANCH   8  11
ENDBRANCH   1   4
BRANCH   3  22
HETATM   22  C13   D T   1       8.844  -9.388   0.387  1.00 31.24     0.085 A 
HETATM   23  C14   D T   1       8.997  -9.712   1.757  1.00 32.94     0.019 A 
HETATM   24  C15   D T   1       8.917 -11.075   2.187  1.00 32.88    -0.001 A 
HETATM   25  C16   D T   1       8.675 -12.149   1.245  1.00 31.70     0.015 A 
HETATM   26  C17   D T   1       8.515 -11.816  -0.178  1.00 32.08     0.071 A 
HETATM   27  C18   D T   1       8.605 -10.444  -0.564  1.00 32.72     0.023 A 
BRANCH  25  28
HETATM   28  C20   D T   1       8.601 -13.588   1.809  1.00 29.95     0.277 C 
BRANCH  28  29
HETATM   29  N3    D T   1       7.465 -13.841   2.705  1.00 31.16     0.146 N 
HETATM   30  C21   D T   1       6.450 -14.770   2.122  1.00 32.15     0.286 C 
HETATM   31  C22   D T   1       5.215 -14.866   3.045  1.00 31.08     0.286 C 
HETATM   32  N4    D T   1       5.613 -15.416   4.355  1.00 32.74     0.143 N 
HETATM   33  C23   D T   1       6.680 -14.571   4.977  1.00 30.79     0.286 C 
HETATM   34  C25   D T   1       4.464 -15.612   5.229  1.00 30.23     0.285 C 
HETATM   35  C24   D T   1       7.895 -14.354   4.021  1.00 28.48     0.286 C 
ENDBRANCH  28  29
ENDBRANCH  25  28
BRANCH  26  36
HETATM   36  C19   D T   1       8.251 -12.857  -1.289  1.00 33.23     0.419 C 
HETATM   37  F1    D T   1       9.364 -13.516  -1.556  1.00 33.40    -0.166 F 
HETATM   38  F2    D T   1       7.345 -13.764  -0.937  1.00 31.99    -0.166 F 
HETATM   39  F3    D T   1       7.804 -12.267  -2.402  1.00 36.12    -0.166 F 
ENDBRANCH  26  36
ENDBRANCH   3  22
TORSDOF 7
ENDMDL
MODEL 2
REMARK VINA RESULT:    -8.433      2.249      2.843
REMARK INTER + INTRA:         -13.010
REMARK INTER:                 -11.891
REMARK INTRA:                  -1.119
REMARK UNBOUND:                -1.126
REMARK  7 active torsions:
REMARK  status: ('A' for Active; 'I' for Inactive)
REMARK    1  A    between atoms: N3_2  and  C20_12 
REMARK    2  A    between atoms: C4_3  and  C5_4 
REMARK    3  A    between atoms: C13_9  and  N2_29 
REMARK    4  A    between atoms: C17_11  and  C19_33 
REMARK    5  A    between atoms: C20_12  and  C16_31 
REMARK    6  A    between atoms: C2_23  and  C3_24 
REMARK    7  A    between atoms: C9_25  and  C12_27 
REMARK       I    between atoms: C12_27  and  N2_29 
ROOT
HETATM    1  C12   D T   1       8.016  -7.677  -0.078  1.00 29.52     0.279 C 
HETATM    2  O1    D T   1       7.136  -7.971  -0.892  1.00 32.52    -0.265 OA
HETATM    3  N2    D T   1       8.538  -8.541   0.813  1.00 29.90    -0.208 NA
ENDROOT
BRANCH   1   4
HETATM    4  C9    D T   1       8.568  -6.283  -0.043  1.00 29.36     0.059 A 
HETATM    5  C8    D T   1       9.374  -5.790   1.054  1.00 30.11     0.004 A 
HETATM    6  C7    D T   1       9.871  -4.453   1.038  1.00 28.94    -0.004 A 
HETATM    7  C6    D T   1       9.579  -3.584  -0.074  1.00 28.77    -0.014 A 
HETATM    8  C5    D T   1       8.767  -4.092  -1.177  1.00 26.45     0.038 A 
HETATM    9  C11   D T   1      10.142  -2.163  -0.042  1.00 28.14     0.032 C 
HETATM   10  C10   D T   1       8.285  -5.422  -1.135  1.00 27.23     0.013 A 
BRANCH   8  11
HETATM   11  C4    D T   1       8.419  -3.315  -2.362  1.00 24.91    -0.058 C 
HETATM   12  C3    D T   1       8.219  -2.630  -3.351  1.00 23.74    -0.039 C 
BRANCH  12  13
HETATM   13  C2    D T   1       8.065  -1.790  -4.466  1.00 23.00     0.145 A 
HETATM   14  N82   D T   1       8.548  -0.518  -4.612  1.00 25.15    -0.203 N 
HETATM   15  N81   D T   1       9.284   0.208  -3.697  1.00 28.83    -0.162 NA
HETATM   16  C84   D T   1       8.121  -0.111  -5.903  1.00 26.40     0.165 A 
HETATM   17  C83   D T   1       9.604   1.433  -4.139  1.00 28.11     0.121 A 
HETATM   18  C82   D T   1       9.247   1.980  -5.405  1.00 26.65     0.026 A 
HETATM   19  C81   D T   1       8.509   1.211  -6.288  1.00 28.42     0.041 A 
HETATM   20  N1    D T   1       7.433  -1.068  -6.499  1.00 27.29    -0.223 NA
HETATM   21  C1    D T   1       7.395  -2.115  -5.600  1.00 23.61     0.128 A 
ENDBRANCH  12  13
ENDBRANCH   8  11
ENDBRANCH   1   4
BRANCH   3  22
HETATM   22  C13   D T   1       8.464  -9.957   0.801  1.00 31.24     0.085 A 
HETATM   23  C14   D T   1       8.929 -10.625  -0.359  1.00 32.94     0.019 A 
HETATM   24  C15   D T   1       8.881 -12.053  -0.433  1.00 32.88    -0.001 A 
HETATM   25  C16   D T   1       8.367 -12.848   0.664  1.00 31.70     0.015 A 
HETATM   26  C17   D T   1       7.885 -12.158   1.869  1.00 32.08     0.071 A 
HETATM   27  C18   D T   1       7.948 -10.732   1.901  1.00 32.72     0.023 A 
BRANCH  25  28
HETATM   28  C20   D T   1       8.362 -14.386   0.489  1.00 29.95     0.277 C 
BRANCH  28  29
HETATM   29  N3    D T   1       7.029 -14.986   0.346  1.00 31.16     0.146 N 
HETATM   30  C21   D T   1       6.733 -15.440  -1.047  1.00 32.15     0.286 C 
HETATM   31  C22   D T   1       5.266 -15.912  -1.159  1.00 31.08     0.286 C 
HETATM   32  N4    D T   1       5.043 -17.064  -0.264  1.00 32.74     0.143 N 
HETATM   33  C23   D T   1       5.382 -16.705   1.149  1.00 30.79     0.286 C 
HETATM   34  C25   D T   1       3.697 -17.602  -0.405  1.00 30.23     0.285 C 
HETATM   35  C24   D T   1       6.819 -16.111   1.279  1.00 28.48     0.286 C 
ENDBRANCH  28  29
ENDBRANCH  25  28
BRANCH  26  36
HETATM   36  C19   D T   1       7.315 -12.877   3.112  1.00 33.23     0.419 C 
HETATM   37  F1    D T   1       7.210 -12.022   4.113  1.00 33.40    -0.166 F 
HETATM   38  F2    D T   1       6.098 -13.374   2.906  1.00 31.99    -0.166 F 
HETATM   39  F3    D T   1       8.097 -13.897   3.477  1.00 36.12    -0.166 F 
ENDBRANCH  26  36
ENDBRANCH   3  22
TORSDOF 7
ENDMDL
MODEL 3
REMARK VINA RESULT:    -7.922      1.924      2.730
REMARK INTER + INTRA:         -12.290
REMARK INTER:                 -11.084
REMARK INTRA:                  -1.206
REMARK UNBOUND:                -1.126
REMARK  7 active torsions:
REMARK  status: ('A' for Active; 'I' for Inactive)
REMARK    1  A    between atoms: N3_2  and  C20_12 
REMARK    2  A    between atoms: C4_3  and  C5_4 
REMARK    3  A    between atoms: C13_9  and  N2_29 
REMARK    4  A    between atoms: C17_11  and  C19_33 
REMARK    5  A    between atoms: C20_12  and  C16_31 
REMARK    6  A    between atoms: C2_23  and  C3_24 
REMARK    7  A    between atoms: C9_25  and  C12_27 
REMARK       I    between atoms: C12_27  and  N2_29 
ROOT
HETATM    1  C12   D T   1       8.648  -7.099   0.313  1.00 29.52     0.279 C 
HETATM    2  O1    D T   1       8.057  -7.477  -0.703  1.00 32.52    -0.265 OA
HETATM    3  N2    D T   1       8.902  -7.888   1.374  1.00 29.90    -0.208 NA
ENDROOT
BRANCH   1   4
HETATM    4  C9    D T   1       9.133  -5.684   0.415  1.00 29.36     0.059 A 
HETATM    5  C8    D T   1       9.865  -5.191   1.562  1.00 30.11     0.004 A 
HETATM    6  C7    D T   1      10.299  -3.832   1.609  1.00 28.94    -0.004 A 
HETATM    7  C6    D T   1      10.016  -2.942   0.512  1.00 28.77    -0.014 A 
HETATM    8  C5    D T   1       9.279  -3.451  -0.642  1.00 26.45     0.038 A 
HETATM    9  C11   D T   1      10.510  -1.499   0.612  1.00 28.14     0.032 C 
HETATM   10  C10   D T   1       8.859  -4.802  -0.662  1.00 27.23     0.013 A 
BRANCH   8  11
HETATM   11  C4    D T   1       8.948  -2.653  -1.818  1.00 24.91    -0.058 C 
HETATM   12  C3    D T   1       8.727  -1.915  -2.763  1.00 23.74    -0.039 C 
BRANCH  12  13
HETATM   13  C2    D T   1       8.503  -0.993  -3.799  1.00 23.00     0.145 A 
HETATM   14  N82   D T   1       8.016  -1.261  -5.050  1.00 25.15    -0.203 N 
HETATM   15  N81   D T   1       7.644  -2.489  -5.558  1.00 28.83    -0.162 NA
HETATM   16  C84   D T   1       7.984  -0.003  -5.706  1.00 26.40     0.165 A 
HETATM   17  C83   D T   1       7.210  -2.421  -6.824  1.00 28.11     0.121 A 
HETATM   18  C82   D T   1       7.121  -1.236  -7.611  1.00 26.65     0.026 A 
HETATM   19  C81   D T   1       7.504  -0.027  -7.054  1.00 28.42     0.041 A 
HETATM   20  N1    D T   1       8.416   0.959  -4.911  1.00 27.29    -0.223 NA
HETATM   21  C1    D T   1       8.744   0.340  -3.721  1.00 23.61     0.128 A 
ENDBRANCH  12  13
ENDBRANCH   8  11
ENDBRANCH   1   4
BRANCH   3  22
HETATM   22  C13   D T   1       8.868  -9.305   1.436  1.00 31.24     0.085 A 
HETATM   23  C14   D T   1       7.678  -9.910   1.909  1.00 32.94     0.019 A 
HETATM   24  C15   D T   1       7.582 -11.335   1.995  1.00 32.88    -0.001 A 
HETATM   25  C16   D T   1       8.684 -12.190   1.602  1.00 31.70     0.015 A 
HETATM   26  C17   D T   1       9.920 -11.565   1.111  1.00 32.08     0.071 A 
HETATM   27  C18   D T   1       9.975 -10.140   1.043  1.00 32.72     0.023 A 
BRANCH  25  28
HETATM   28  C20   D T   1       8.479 -13.719   1.729  1.00 29.95     0.277 C 
BRANCH  28  29
HETATM   29  N3    D T   1       7.319 -14.248   0.999  1.00 31.16     0.146 N 
HETATM   30  C21   D T   1       7.694 -15.161  -0.122  1.00 32.15     0.286 C 
HETATM   31  C22   D T   1       6.443 -15.551  -0.940  1.00 31.08     0.286 C 
HETATM   32  N4    D T   1       5.492 -16.281  -0.078  1.00 32.74     0.143 N 
HETATM   33  C23   D T   1       5.116 -15.452   1.109  1.00 30.79     0.286 C 
HETATM   34  C25   D T   1       4.336 -16.751  -0.830  1.00 30.23     0.285 C 
HETATM   35  C24   D T   1       6.366 -14.939   1.891  1.00 28.48     0.286 C 
ENDBRANCH  28  29
ENDBRANCH  25  28
BRANCH  26  36
HETATM   36  C19   D T   1      11.169 -12.352   0.657  1.00 33.23     0.419 C 
HETATM   37  F1    D T   1      12.091 -11.513   0.221  1.00 33.40    -0.166 F 
HETATM   38  F2    D T   1      11.724 -13.050   1.644  1.00 31.99    -0.166 F 
HETATM   39  F3    D T   1      10.863 -13.221  -0.312  1.00 36.12    -0.166 F 
ENDBRANCH  26  36
ENDBRANCH   3  22
TORSDOF 7
ENDMDL
MODEL 4
REMARK VINA RESULT:    -7.828      2.190      3.212
REMARK INTER + INTRA:         -12.158
REMARK INTER:                 -11.101
REMARK INTRA:                  -1.058
REMARK UNBOUND:                -1.126
REMARK  7 active torsions:
REMARK  status: ('A' for Active; 'I' for Inactive)
REMARK    1  A    between atoms: N3_2  and  C20_12 
REMARK    2  A    between atoms: C4_3  and  C5_4 
REMARK    3  A    between atoms: C13_9  and  N2_29 
REMARK    4  A    between atoms: C17_11  and  C19_33 
REMARK    5  A    between atoms: C20_12  and  C16_31 
REMARK    6  A    between atoms: C2_23  and  C3_24 
REMARK    7  A    between atoms: C9_25  and  C12_27 
REMARK       I    between atoms: C12_27  and  N2_29 
ROOT
HETATM    1  C12   D T   1       9.296  -7.514  -0.910  1.00 29.52     0.279 C 
HETATM    2  O1    D T   1       9.540  -8.031  -2.004  1.00 32.52    -0.265 OA
HETATM    3  N2    D T   1       8.939  -8.207   0.189  1.00 29.90    -0.208 NA
ENDROOT
BRANCH   1   4
HETATM    4  C9    D T   1       9.392  -6.027  -0.746  1.00 29.36     0.059 A 
HETATM    5  C8    D T   1       9.849  -5.404   0.478  1.00 30.11     0.004 A 
HETATM    6  C7    D T   1       9.916  -3.982   0.581  1.00 28.94    -0.004 A 
HETATM    7  C6    D T   1       9.536  -3.156  -0.536  1.00 28.77    -0.014 A 
HETATM    8  C5    D T   1       9.079  -3.794  -1.768  1.00 26.45     0.038 A 
HETATM    9  C11   D T   1       9.633  -1.639  -0.374  1.00 28.14     0.032 C 
HETATM   10  C10   D T   1       9.020  -5.207  -1.842  1.00 27.23     0.013 A 
BRANCH   8  11
HETATM   11  C4    D T   1       8.683  -3.066  -2.969  1.00 24.91    -0.058 C 
HETATM   12  C3    D T   1       8.318  -2.543  -4.008  1.00 23.74    -0.039 C 
BRANCH  12  13
HETATM   13  C2    D T   1       7.895  -2.026  -5.244  1.00 23.00     0.145 A 
HETATM   14  N82   D T   1       8.071  -0.750  -5.707  1.00 25.15    -0.203 N 
HETATM   15  N81   D T   1       8.698   0.295  -5.062  1.00 28.83    -0.162 NA
HETATM   16  C84   D T   1       7.464  -0.741  -6.990  1.00 26.40     0.165 A 
HETATM   17  C83   D T   1       8.703   1.426  -5.782  1.00 28.11     0.121 A 
HETATM   18  C82   D T   1       8.135   1.589  -7.079  1.00 26.65     0.026 A 
HETATM   19  C81   D T   1       7.519   0.508  -7.685  1.00 28.42     0.041 A 
HETATM   20  N1    D T   1       6.960  -1.926  -7.286  1.00 27.29    -0.223 NA
HETATM   21  C1    D T   1       7.225  -2.727  -6.193  1.00 23.61     0.128 A 
ENDBRANCH  12  13
ENDBRANCH   8  11
ENDBRANCH   1   4
BRANCH   3  22
HETATM   22  C13   D T   1       9.085  -9.597   0.429  1.00 31.24     0.085 A 
HETATM   23  C14   D T   1       9.709  -9.989   1.638  1.00 32.94     0.019 A 
HETATM   24  C15   D T   1       9.886 -11.377   1.938  1.00 32.88    -0.001 A 
HETATM   25  C16   D T   1       9.432 -12.409   1.027  1.00 31.70     0.015 A 
HETATM   26  C17   D T   1       8.782 -12.005  -0.228  1.00 32.08     0.071 A 
HETATM   27  C18   D T   1       8.628 -10.610  -0.490  1.00 32.72     0.023 A 
BRANCH  25  28
HETATM   28  C20   D T   1       9.664 -13.881   1.446  1.00 29.95     0.277 C 
BRANCH  28  29
HETATM   29  N3    D T   1      10.788 -14.543   0.771  1.00 31.16     0.146 N 
HETATM   30  C21   D T   1      12.028 -14.596   1.603  1.00 32.15     0.286 C 
HETATM   31  C22   D T   1      13.206 -15.159   0.778  1.00 31.08     0.286 C 
HETATM   32  N4    D T   1      12.903 -16.540   0.354  1.00 32.74     0.143 N 
HETATM   33  C23   D T   1      11.633 -16.579  -0.436  1.00 30.79     0.286 C 
HETATM   34  C25   D T   1      14.026 -17.145  -0.349  1.00 30.23     0.285 C 
HETATM   35  C24   D T   1      10.445 -15.907   0.322  1.00 28.48     0.286 C 
ENDBRANCH  28  29
ENDBRANCH  25  28
BRANCH  26  36
HETATM   36  C19   D T   1       8.248 -12.995  -1.287  1.00 33.23     0.419 C 
HETATM   37  F1    D T   1       9.257 -13.645  -1.837  1.00 33.40    -0.166 F 
HETATM   38  F2    D T   1       7.439 -13.915  -0.768  1.00 31.99    -0.166 F 
HETATM   39  F3    D T   1       7.558 -12.357  -2.236  1.00 36.12    -0.166 F 
ENDBRANCH  26  36
ENDBRANCH   3  22
TORSDOF 7
ENDMDL
MODEL 5
REMARK VINA RESULT:    -7.695      1.709      2.105
REMARK INTER + INTRA:         -11.971
REMARK INTER:                 -10.709
REMARK INTRA:                  -1.262
REMARK UNBOUND:                -1.126
REMARK  7 active torsions:
REMARK  status: ('A' for Active; 'I' for Inactive)
REMARK    1  A    between atoms: N3_2  and  C20_12 
REMARK    2  A    between atoms: C4_3  and  C5_4 
REMARK    3  A    between atoms: C13_9  and  N2_29 
REMARK    4  A    between atoms: C17_11  and  C19_33 
REMARK    5  A    between atoms: C20_12  and  C16_31 
REMARK    6  A    between atoms: C2_23  and  C3_24 
REMARK    7  A    between atoms: C9_25  and  C12_27 
REMARK       I    between atoms: C12_27  and  N2_29 
ROOT
HETATM    1  C12   D T   1       8.578  -7.107   0.304  1.00 29.52     0.279 C 
HETATM    2  O1    D T   1       7.919  -7.681  -0.568  1.00 32.52    -0.265 OA
HETATM    3  N2    D T   1       9.011  -7.700   1.434  1.00 29.90    -0.208 NA
ENDROOT
BRANCH   1   4
HETATM    4  C9    D T   1       8.944  -5.663   0.138  1.00 29.36     0.059 A 
HETATM    5  C8    D T   1       9.704  -4.931   1.129  1.00 30.11     0.004 A 
HETATM    6  C7    D T   1      10.021  -3.555   0.921  1.00 28.94    -0.004 A 
HETATM    7  C6    D T   1       9.591  -2.885  -0.279  1.00 28.77    -0.014 A 
HETATM    8  C5    D T   1       8.826  -3.634  -1.274  1.00 26.45     0.038 A 
HETATM    9  C11   D T   1       9.963  -1.413  -0.454  1.00 28.14     0.032 C 
HETATM   10  C10   D T   1       8.524  -4.997  -1.043  1.00 27.23     0.013 A 
BRANCH   8  11
HETATM   11  C4    D T   1       8.350  -3.071  -2.534  1.00 24.91    -0.058 C 
HETATM   12  C3    D T   1       8.040  -2.623  -3.625  1.00 23.74    -0.039 C 
BRANCH  12  13
HETATM   13  C2    D T   1       7.776  -2.104  -4.903  1.00 23.00     0.145 A 
HETATM   14  N82   D T   1       8.016  -0.829  -5.340  1.00 25.15    -0.203 N 
HETATM   15  N81   D T   1       8.565   0.213  -4.622  1.00 28.83    -0.162 NA
HETATM   16  C84   D T   1       7.571  -0.816  -6.688  1.00 26.40     0.165 A 
HETATM   17  C83   D T   1       8.666   1.343  -5.335  1.00 28.11     0.121 A 
HETATM   18  C82   D T   1       8.264   1.510  -6.692  1.00 26.65     0.026 A 
HETATM   19  C81   D T   1       7.720   0.432  -7.371  1.00 28.42     0.041 A 
HETATM   20  N1    D T   1       7.100  -1.998  -7.044  1.00 27.29    -0.223 NA
HETATM   21  C1    D T   1       7.224  -2.801  -5.928  1.00 23.61     0.128 A 
ENDBRANCH  12  13
ENDBRANCH   8  11
ENDBRANCH   1   4
BRANCH   3  22
HETATM   22  C13   D T   1       9.110  -9.087   1.709  1.00 31.24     0.085 A 
HETATM   23  C14   D T   1       8.129  -9.656   2.558  1.00 32.94     0.019 A 
HETATM   24  C15   D T   1       8.175 -11.051   2.874  1.00 32.88    -0.001 A 
HETATM   25  C16   D T   1       9.208 -11.912   2.337  1.00 31.70     0.015 A 
HETATM   26  C17   D T   1      10.226 -11.325   1.454  1.00 32.08     0.071 A 
HETATM   27  C18   D T   1      10.147  -9.929   1.167  1.00 32.72     0.023 A 
BRANCH  25  28
HETATM   28  C20   D T   1       9.167 -13.407   2.734  1.00 29.95     0.277 C 
BRANCH  28  29
HETATM   29  N3    D T   1       7.991 -14.142   2.249  1.00 31.16     0.146 N 
HETATM   30  C21   D T   1       8.100 -14.548   0.815  1.00 32.15     0.286 C 
HETATM   31  C22   D T   1       6.771 -15.172   0.331  1.00 31.08     0.286 C 
HETATM   32  N4    D T   1       6.479 -16.390   1.112  1.00 32.74     0.143 N 
HETATM   33  C23   D T   1       6.419 -16.075   2.573  1.00 30.79     0.286 C 
HETATM   34  C25   D T   1       5.282 -17.065   0.627  1.00 30.23     0.285 C 
HETATM   35  C24   D T   1       7.699 -15.333   3.071  1.00 28.48     0.286 C 
ENDBRANCH  28  29
ENDBRANCH  25  28
BRANCH  26  36
HETATM   36  C19   D T   1      11.382 -12.124   0.810  1.00 33.23     0.419 C 
HETATM   37  F1    D T   1      12.039 -12.787   1.743  1.00 33.40    -0.166 F 
HETATM   38  F2    D T   1      10.955 -13.026  -0.070  1.00 31.99    -0.166 F 
HETATM   39  F3    D T   1      12.223 -11.313   0.162  1.00 36.12    -0.166 F 
ENDBRANCH  26  36
ENDBRANCH   3  22
TORSDOF 7
ENDMDL
MODEL 6
REMARK VINA RESULT:    -7.530      2.419      3.431
REMARK INTER + INTRA:         -11.738
REMARK INTER:                 -10.599
REMARK INTRA:                  -1.139
REMARK UNBOUND:                -1.126
REMARK  7 active torsions:
REMARK  status: ('A' for Active; 'I' for Inactive)
REMARK    1  A    between atoms: N3_2  and  C20_12 
REMARK    2  A    between atoms: C4_3  and  C5_4 
REMARK    3  A    between atoms: C13_9  and  N2_29 
REMARK    4  A    between atoms: C17_11  and  C19_33 
REMARK    5  A    between atoms: C20_12  and  C16_31 
REMARK    6  A    between atoms: C2_23  and  C3_24 
REMARK    7  A    between atoms: C9_25  and  C12_27 
REMARK       I    between atoms: C12_27  and  N2_29 
ROOT
HETATM    1  C12   D T   1      10.448  -7.205   0.819  1.00 29.52     0.279 C 
HETATM    2  O1    D T   1      11.390  -7.808   1.341  1.00 32.52    -0.265 OA
HETATM    3  N2    D T   1       9.371  -7.810   0.283  1.00 29.90    -0.208 NA
ENDROOT
BRANCH   1   4
HETATM    4  C9    D T   1      10.459  -5.707   0.757  1.00 29.36     0.059 A 
HETATM    5  C8    D T   1      10.927  -4.884   1.851  1.00 30.11     0.004 A 
HETATM    6  C7    D T   1      10.911  -3.461   1.739  1.00 28.94    -0.004 A 
HETATM    7  C6    D T   1      10.434  -2.833   0.534  1.00 28.77    -0.014 A 
HETATM    8  C5    D T   1       9.966  -3.674  -0.566  1.00 26.45     0.038 A 
HETATM    9  C11   D T   1      10.445  -1.306   0.465  1.00 28.14     0.032 C 
HETATM   10  C10   D T   1       9.991  -5.082  -0.429  1.00 27.23     0.013 A 
BRANCH   8  11
HETATM   11  C4    D T   1       9.477  -3.157  -1.840  1.00 24.91    -0.058 C 
HETATM   12  C3    D T   1       9.078  -2.636  -2.868  1.00 23.74    -0.039 C 
BRANCH  12  13
HETATM   13  C2    D T   1       8.603  -1.955  -4.001  1.00 23.00     0.145 A 
HETATM   14  N82   D T   1       8.858  -0.656  -4.349  1.00 25.15    -0.203 N 
HETATM   15  N81   D T   1       9.631   0.258  -3.663  1.00 28.83    -0.162 NA
HETATM   16  C84   D T   1       8.150  -0.458  -5.563  1.00 26.40     0.165 A 
HETATM   17  C83   D T   1       9.681   1.455  -4.264  1.00 28.11     0.121 A 
HETATM   18  C82   D T   1       9.026   1.804  -5.480  1.00 26.65     0.026 A 
HETATM   19  C81   D T   1       8.263   0.850  -6.132  1.00 28.42     0.041 A 
HETATM   20  N1    D T   1       7.515  -1.557  -5.928  1.00 27.29    -0.223 NA
HETATM   21  C1    D T   1       7.795  -2.491  -4.950  1.00 23.61     0.128 A 
ENDBRANCH  12  13
ENDBRANCH   8  11
ENDBRANCH   1   4
BRANCH   3  22
HETATM   22  C13   D T   1       8.930  -9.144   0.482  1.00 31.24     0.085 A 
HETATM   23  C14   D T   1       9.217 -10.085  -0.537  1.00 32.94     0.019 A 
HETATM   24  C15   D T   1       8.798 -11.446  -0.395  1.00 32.88    -0.001 A 
HETATM   25  C16   D T   1       8.082 -11.896   0.781  1.00 31.70     0.015 A 
HETATM   26  C17   D T   1       7.784 -10.922   1.840  1.00 32.08     0.071 A 
HETATM   27  C18   D T   1       8.217  -9.573   1.659  1.00 32.72     0.023 A 
BRANCH  25  28
HETATM   28  C20   D T   1       7.678 -13.389   0.841  1.00 29.95     0.277 C 
BRANCH  28  29
HETATM   29  N3    D T   1       8.522 -14.289   0.045  1.00 31.16     0.146 N 
HETATM   30  C21   D T   1       9.497 -15.066   0.869  1.00 32.15     0.286 C 
HETATM   31  C22   D T   1      10.453 -15.868  -0.042  1.00 31.08     0.286 C 
HETATM   32  N4    D T   1       9.682 -16.839  -0.843  1.00 32.74     0.143 N 
HETATM   33  C23   D T   1       8.636 -16.139  -1.652  1.00 30.79     0.286 C 
HETATM   34  C25   D T   1      10.552 -17.682  -1.650  1.00 30.23     0.285 C 
HETATM   35  C24   D T   1       7.725 -15.223  -0.775  1.00 28.48     0.286 C 
ENDBRANCH  28  29
ENDBRANCH  25  28
BRANCH  26  36
HETATM   36  C19   D T   1       7.032 -11.262   3.146  1.00 33.23     0.419 C 
HETATM   37  F1    D T   1       5.950 -11.966   2.867  1.00 33.40    -0.166 F 
HETATM   38  F2    D T   1       7.761 -11.998   3.982  1.00 31.99    -0.166 F 
HETATM   39  F3    D T   1       6.684 -10.152   3.803  1.00 36.12    -0.166 F 
ENDBRANCH  26  36
ENDBRANCH   3  22
TORSDOF 7
ENDMDL
MODEL 7
REMARK VINA RESULT:    -7.385      1.541      1.941
REMARK INTER + INTRA:         -11.533
REMARK INTER:                 -10.650
REMARK INTRA:                  -0.884
REMARK UNBOUND:                -1.126
REMARK  7 active torsions:
REMARK  status: ('A' for Active; 'I' for Inactive)
REMARK    1  A    between atoms: N3_2  and  C20_12 
REMARK    2  A    between atoms: C4_3  and  C5_4 
REMARK    3  A    between atoms: C13_9  and  N2_29 
REMARK    4  A    between atoms: C17_11  and  C19_33 
REMARK    5  A    between atoms: C20_12  and  C16_31 
REMARK    6  A    between atoms: C2_23  and  C3_24 
REMARK    7  A    between atoms: C9_25  and  C12_27 
REMARK       I    between atoms: C12_27  and  N2_29 
ROOT
HETATM    1  C12   D T   1      10.230  -7.187   1.869  1.00 29.52     0.279 C 
HETATM    2  O1    D T   1      10.968  -7.745   2.686  1.00 32.52    -0.265 OA
HETATM    3  N2    D T   1       9.258  -7.815   1.180  1.00 29.90    -0.208 NA
ENDROOT
BRANCH   1   4
HETATM    4  C9    D T   1      10.387  -5.722   1.596  1.00 29.36     0.059 A 
HETATM    5  C8    D T   1      10.921  -4.798   2.574  1.00 30.11     0.004 A 
HETATM    6  C7    D T   1      11.045  -3.411   2.262  1.00 28.94    -0.004 A 
HETATM    7  C6    D T   1      10.645  -2.920   0.968  1.00 28.77    -0.014 A 
HETATM    8  C5    D T   1      10.110  -3.861  -0.013  1.00 26.45     0.038 A 
HETATM    9  C11   D T   1      10.806  -1.426   0.685  1.00 28.14     0.032 C 
HETATM   10  C10   D T   1       9.996  -5.231   0.323  1.00 27.23     0.013 A 
BRANCH   8  11
HETATM   11  C4    D T   1       9.688  -3.488  -1.359  1.00 24.91    -0.058 C 
HETATM   12  C3    D T   1       9.305  -3.091  -2.447  1.00 23.74    -0.039 C 
BRANCH  12  13
HETATM   13  C2    D T   1       8.810  -2.569  -3.653  1.00 23.00     0.145 A 
HETATM   14  N82   D T   1       8.774  -1.253  -4.028  1.00 25.15    -0.203 N 
HETATM   15  N81   D T   1       9.213  -0.164  -3.303  1.00 28.83    -0.162 NA
HETATM   16  C84   D T   1       8.184  -1.258  -5.319  1.00 26.40     0.165 A 
HETATM   17  C83   D T   1       9.034   0.998  -3.947  1.00 28.11     0.121 A 
HETATM   18  C82   D T   1       8.457   1.153  -5.241  1.00 26.65     0.026 A 
HETATM   19  C81   D T   1       8.035   0.028  -5.929  1.00 28.42     0.041 A 
HETATM   20  N1    D T   1       7.888  -2.486  -5.702  1.00 27.29    -0.223 NA
HETATM   21  C1    D T   1       8.275  -3.305  -4.659  1.00 23.61     0.128 A 
ENDBRANCH  12  13
ENDBRANCH   8  11
ENDBRANCH   1   4
BRANCH   3  22
HETATM   22  C13   D T   1       8.667  -9.074   1.456  1.00 31.24     0.085 A 
HETATM   23  C14   D T   1       7.879  -9.183   2.627  1.00 32.94     0.019 A 
HETATM   24  C15   D T   1       7.256 -10.428   2.961  1.00 32.88    -0.001 A 
HETATM   25  C16   D T   1       7.408 -11.596   2.118  1.00 31.70     0.015 A 
HETATM   26  C17   D T   1       8.224 -11.486   0.901  1.00 32.08     0.071 A 
HETATM   27  C18   D T   1       8.830 -10.227   0.606  1.00 32.72     0.023 A 
BRANCH  25  28
HETATM   28  C20   D T   1       6.690 -12.893   2.563  1.00 29.95     0.277 C 
BRANCH  28  29
HETATM   29  N3    D T   1       7.097 -13.403   3.879  1.00 31.16     0.146 N 
HETATM   30  C21   D T   1       6.290 -14.576   4.332  1.00 32.15     0.286 C 
HETATM   31  C22   D T   1       6.663 -14.958   5.782  1.00 31.08     0.286 C 
HETATM   32  N4    D T   1       8.084 -15.352   5.844  1.00 32.74     0.143 N 
HETATM   33  C23   D T   1       8.958 -14.246   5.342  1.00 30.79     0.286 C 
HETATM   34  C25   D T   1       8.458 -15.810   7.176  1.00 30.23     0.285 C 
HETATM   35  C24   D T   1       8.531 -13.753   3.924  1.00 28.48     0.286 C 
ENDBRANCH  28  29
ENDBRANCH  25  28
BRANCH  26  36
HETATM   36  C19   D T   1       8.469 -12.647  -0.089  1.00 33.23     0.419 C 
HETATM   37  F1    D T   1       9.722 -13.053   0.003  1.00 33.40    -0.166 F 
HETATM   38  F2    D T   1       7.705 -13.707   0.164  1.00 31.99    -0.166 F 
HETATM   39  F3    D T   1       8.212 -12.270  -1.344  1.00 36.12    -0.166 F 
ENDBRANCH  26  36
ENDBRANCH   3  22
TORSDOF 7
ENDMDL
MODEL 8
REMARK VINA RESULT:    -7.323      2.316      3.073
REMARK INTER + INTRA:         -11.446
REMARK INTER:                 -10.149
REMARK INTRA:                  -1.297
REMARK UNBOUND:                -1.126
REMARK  7 active torsions:
REMARK  status: ('A' for Active; 'I' for Inactive)
REMARK    1  A    between atoms: N3_2  and  C20_12 
REMARK    2  A    between atoms: C4_3  and  C5_4 
REMARK    3  A    between atoms: C13_9  and  N2_29 
REMARK    4  A    between atoms: C17_11  and  C19_33 
REMARK    5  A    between atoms: C20_12  and  C16_31 
REMARK    6  A    between atoms: C2_23  and  C3_24 
REMARK    7  A    between atoms: C9_25  and  C12_27 
REMARK       I    between atoms: C12_27  and  N2_29 
ROOT
HETATM    1  C12   D T   1      11.466  -5.447   0.582  1.00 29.52     0.279 C 
HETATM    2  O1    D T   1      11.086  -5.516   1.755  1.00 32.52    -0.265 OA
HETATM    3  N2    D T   1      11.404  -6.470  -0.291  1.00 29.90    -0.208 NA
ENDROOT
BRANCH   1   4
HETATM    4  C9    D T   1      12.036  -4.165   0.054  1.00 29.36     0.059 A 
HETATM    5  C8    D T   1      13.327  -3.657   0.466  1.00 30.11     0.004 A 
HETATM    6  C7    D T   1      13.821  -2.428  -0.066  1.00 28.94    -0.004 A 
HETATM    7  C6    D T   1      13.040  -1.686  -1.023  1.00 28.77    -0.014 A 
HETATM    8  C5    D T   1      11.739  -2.210  -1.434  1.00 26.45     0.038 A 
HETATM    9  C11   D T   1      13.619  -0.380  -1.565  1.00 28.14     0.032 C 
HETATM   10  C10   D T   1      11.273  -3.430  -0.890  1.00 27.23     0.013 A 
BRANCH   8  11
HETATM   11  C4    D T   1      10.866  -1.559  -2.406  1.00 24.91    -0.058 C 
HETATM   12  C3    D T   1      10.134  -1.101  -3.267  1.00 23.74    -0.039 C 
BRANCH  12  13
HETATM   13  C2    D T   1       9.315  -0.646  -4.314  1.00 23.00     0.145 A 
HETATM   14  N82   D T   1       9.566   0.401  -5.160  1.00 25.15    -0.203 N 
HETATM   15  N81   D T   1      10.670   1.228  -5.163  1.00 28.83    -0.162 NA
HETATM   16  C84   D T   1       8.441   0.448  -6.024  1.00 26.40     0.165 A 
HETATM   17  C83   D T   1      10.616   2.167  -6.119  1.00 28.11     0.121 A 
HETATM   18  C82   D T   1       9.557   2.340  -7.057  1.00 26.65     0.026 A 
HETATM   19  C81   D T   1       8.471   1.481  -7.013  1.00 28.42     0.041 A 
HETATM   20  N1    D T   1       7.573  -0.502  -5.727  1.00 27.29    -0.223 NA
HETATM   21  C1    D T   1       8.118  -1.183  -4.656  1.00 23.61     0.128 A 
ENDBRANCH  12  13
ENDBRANCH   8  11
ENDBRANCH   1   4
BRANCH   3  22
HETATM   22  C13   D T   1      10.637  -7.658  -0.191  1.00 31.24     0.085 A 
HETATM   23  C14   D T   1      11.318  -8.847   0.167  1.00 32.94     0.019 A 
HETATM   24  C15   D T   1      10.600 -10.079   0.284  1.00 32.88    -0.001 A 
HETATM   25  C16   D T   1       9.171 -10.144   0.049  1.00 31.70     0.015 A 
HETATM   26  C17   D T   1       8.461  -8.911  -0.321  1.00 32.08     0.071 A 
HETATM   27  C18   D T   1       9.216  -7.704  -0.430  1.00 32.72     0.023 A 
BRANCH  25  28
HETATM   28  C20   D T   1       8.485 -11.522   0.206  1.00 29.95     0.277 C 
BRANCH  28  29
HETATM   29  N3    D T   1       8.482 -12.057   1.574  1.00 31.16     0.146 N 
HETATM   30  C21   D T   1       7.612 -11.281   2.509  1.00 32.15     0.286 C 
HETATM   31  C22   D T   1       7.780 -11.798   3.955  1.00 31.08     0.286 C 
HETATM   32  N4    D T   1       7.357 -13.210   4.031  1.00 32.74     0.143 N 
HETATM   33  C23   D T   1       8.142 -14.046   3.071  1.00 30.79     0.286 C 
HETATM   34  C25   D T   1       7.409 -13.715   5.397  1.00 30.23     0.285 C 
HETATM   35  C24   D T   1       8.093 -13.480   1.617  1.00 28.48     0.286 C 
ENDBRANCH  28  29
ENDBRANCH  25  28
BRANCH  26  36
HETATM   36  C19   D T   1       6.943  -8.834  -0.597  1.00 33.23     0.419 C 
HETATM   37  F1    D T   1       6.613  -9.716  -1.522  1.00 33.40    -0.166 F 
HETATM   38  F2    D T   1       6.210  -9.114   0.477  1.00 31.99    -0.166 F 
HETATM   39  F3    D T   1       6.591  -7.610  -1.003  1.00 36.12    -0.166 F 
ENDBRANCH  26  36
ENDBRANCH   3  22
TORSDOF 7
ENDMDL
MODEL 9
REMARK VINA RESULT:    -7.079      2.510      3.255
REMARK INTER + INTRA:         -11.102
REMARK INTER:                  -9.891
REMARK INTRA:                  -1.211
REMARK UNBOUND:                -1.126
REMARK  7 active torsions:
REMARK  status: ('A' for Active; 'I' for Inactive)
REMARK    1  A    between atoms: N3_2  and  C20_12 
REMARK    2  A    between atoms: C4_3  and  C5_4 
REMARK    3  A    between atoms: C13_9  and  N2_29 
REMARK    4  A    between atoms: C17_11  and  C19_33 
REMARK    5  A    between atoms: C20_12  and  C16_31 
REMARK    6  A    between atoms: C2_23  and  C3_24 
REMARK    7  A    between atoms: C9_25  and  C12_27 
REMARK       I    between atoms: C12_27  and  N2_29 
ROOT
HETATM    1  C12   D T   1       9.636  -7.313   1.226  1.00 29.52     0.279 C 
HETATM    2  O1    D T   1      10.131  -8.092   0.406  1.00 32.52    -0.265 OA
HETATM    3  N2    D T   1       8.769  -7.682   2.188  1.00 29.90    -0.208 NA
ENDROOT
BRANCH   1   4
HETATM    4  C9    D T   1       9.994  -5.858   1.188  1.00 29.36     0.059 A 
HETATM    5  C8    D T   1      10.782  -5.220   2.221  1.00 30.11     0.004 A 
HETATM    6  C7    D T   1      11.089  -3.829   2.136  1.00 28.94    -0.004 A 
HETATM    7  C6    D T   1      10.623  -3.050   1.018  1.00 28.77    -0.014 A 
HETATM    8  C5    D T   1       9.831  -3.704  -0.021  1.00 26.45     0.038 A 
HETATM    9  C11   D T   1      10.987  -1.566   0.974  1.00 28.14     0.032 C 
HETATM   10  C10   D T   1       9.539  -5.084   0.088  1.00 27.23     0.013 A 
BRANCH   8  11
HETATM   11  C4    D T   1       9.317  -3.026  -1.207  1.00 24.91    -0.058 C 
HETATM   12  C3    D T   1       8.903  -2.543  -2.247  1.00 23.74    -0.039 C 
BRANCH  12  13
HETATM   13  C2    D T   1       8.468  -2.058  -3.492  1.00 23.00     0.145 A 
HETATM   14  N82   D T   1       8.682  -0.809  -4.010  1.00 25.15    -0.203 N 
HETATM   15  N81   D T   1       9.366   0.235  -3.421  1.00 28.83    -0.162 NA
HETATM   16  C84   D T   1       8.042  -0.825  -5.277  1.00 26.40     0.165 A 
HETATM   17  C83   D T   1       9.396   1.336  -4.186  1.00 28.11     0.121 A 
HETATM   18  C82   D T   1       8.802   1.471  -5.474  1.00 26.65     0.026 A 
HETATM   19  C81   D T   1       8.128   0.393  -6.022  1.00 28.42     0.041 A 
HETATM   20  N1    D T   1       7.485  -1.999  -5.513  1.00 27.29    -0.223 NA
HETATM   21  C1    D T   1       7.748  -2.768  -4.396  1.00 23.61     0.128 A 
ENDBRANCH  12  13
ENDBRANCH   8  11
ENDBRANCH   1   4
BRANCH   3  22
HETATM   22  C13   D T   1       8.509  -8.989   2.673  1.00 31.24     0.085 A 
HETATM   23  C14   D T   1       7.314  -9.619   2.243  1.00 32.94     0.019 A 
HETATM   24  C15   D T   1       6.994 -10.938   2.698  1.00 32.88    -0.001 A 
HETATM   25  C16   D T   1       7.874 -11.660   3.595  1.00 31.70     0.015 A 
HETATM   26  C17   D T   1       9.114 -11.010   4.041  1.00 32.08     0.071 A 
HETATM   27  C18   D T   1       9.394  -9.692   3.567  1.00 32.72     0.023 A 
BRANCH  25  28
HETATM   28  C20   D T   1       7.441 -13.083   4.024  1.00 29.95     0.277 C 
BRANCH  28  29
HETATM   29  N3    D T   1       7.044 -13.966   2.920  1.00 31.16     0.146 N 
HETATM   30  C21   D T   1       8.171 -14.299   1.997  1.00 32.15     0.286 C 
HETATM   31  C22   D T   1       7.652 -15.096   0.779  1.00 31.08     0.286 C 
HETATM   32  N4    D T   1       7.063 -16.371   1.232  1.00 32.74     0.143 N 
HETATM   33  C23   D T   1       5.963 -16.122   2.215  1.00 30.79     0.286 C 
HETATM   34  C25   D T   1       6.643 -17.199   0.109  1.00 30.23     0.285 C 
HETATM   35  C24   D T   1       6.423 -15.216   3.400  1.00 28.48     0.286 C 
ENDBRANCH  28  29
ENDBRANCH  25  28
BRANCH  26  36
HETATM   36  C19   D T   1      10.143 -11.662   4.992  1.00 33.23     0.419 C 
HETATM   37  F1    D T   1      10.611 -12.770   4.449  1.00 33.40    -0.166 F 
HETATM   38  F2    D T   1      11.192 -10.879   5.228  1.00 31.99    -0.166 F 
HETATM   39  F3    D T   1       9.590 -11.944   6.176  1.00 36.12    -0.166 F 
ENDBRANCH  26  36
ENDBRANCH   3  22
TORSDOF 7
ENDMDL
