MODEL 1
REMARK VINA RESULT:    -9.256      0.000      0.000
REMARK INTER + INTRA:         -14.142
REMARK INTER:                 -13.044
REMARK INTRA:                  -1.098
REMARK UNBOUND:                -1.098
REMARK  7 active torsions:
REMARK  status: ('A' for Active; 'I' for Inactive)
REMARK    1  A    between atoms: N3_2  and  C20_12 
REMARK    2  A    between atoms: C4_3  and  C5_4 
REMARK    3  A    between atoms: C13_9  and  N2_29 
REMARK    4  A    between atoms: C17_11  and  C19_33 
REMARK    5  A    between atoms: C20_12  and  C16_31 
REMARK    6  A    between atoms: C2_23  and  C3_24 
REMARK    7  A    between atoms: C9_25  and  C12_27 
REMARK       I    between atoms: C12_27  and  N2_29 
ROOT
HETATM    1  C12   D T   1       3.286  10.424   2.435  1.00 29.52     0.279 C 
HETATM    2  O1    D T   1       2.588  11.292   2.970  1.00 32.52    -0.265 OA
HETATM    3  N2    D T   1       3.337  10.212   1.107  1.00 29.90    -0.208 NA
ENDROOT
BRANCH   1   4
HETATM    4  C9    D T   1       4.146   9.530   3.277  1.00 29.36     0.059 A 
HETATM    5  C8    D T   1       5.562   9.357   3.037  1.00 30.11     0.004 A 
HETATM    6  C7    D T   1       6.333   8.489   3.867  1.00 28.94    -0.004 A 
HETATM    7  C6    D T   1       5.707   7.782   4.955  1.00 28.77    -0.014 A 
HETATM    8  C5    D T   1       4.276   7.965   5.191  1.00 26.45     0.038 A 
HETATM    9  C11   D T   1       6.579   6.871   5.817  1.00 28.14     0.032 C 
HETATM   10  C10   D T   1       3.535   8.831   4.351  1.00 27.23     0.013 A 
BRANCH   8  11
HETATM   11  C4    D T   1       3.534   7.318   6.268  1.00 24.91    -0.058 C 
HETATM   12  C3    D T   1       2.875   6.719   7.099  1.00 23.74    -0.039 C 
BRANCH  12  13
HETATM   13  C2    D T   1       2.061   5.994   7.987  1.00 23.00     0.145 A 
HETATM   14  N82   D T   1       2.475   5.113   8.949  1.00 25.15    -0.203 N 
HETATM   15  N81   D T   1       3.771   4.750   9.250  1.00 28.83    -0.162 NA
HETATM   16  C84   D T   1       1.279   4.656   9.562  1.00 26.40     0.165 A 
HETATM   17  C83   D T   1       3.845   3.856  10.248  1.00 28.11     0.121 A 
HETATM   18  C82   D T   1       2.737   3.305  10.956  1.00 26.65     0.026 A 
HETATM   19  C81   D T   1       1.455   3.705  10.617  1.00 28.42     0.041 A 
HETATM   20  N1    D T   1       0.218   5.221   9.014  1.00 27.29    -0.223 NA
HETATM   21  C1    D T   1       0.707   6.054   8.028  1.00 23.61     0.128 A 
ENDBRANCH  12  13
ENDBRANCH   8  11
ENDBRANCH   1   4
BRANCH   3  22
HETATM   22  C13   D T   1       2.915  11.080   0.067  1.00 31.24     0.085 A 
HETATM   23  C14   D T   1       3.719  12.215  -0.203  1.00 32.94     0.019 A 
HETATM   24  C15   D T   1       3.347  13.128  -1.240  1.00 32.88    -0.001 A 
HETATM   25  C16   D T   1       2.154  12.920  -2.036  1.00 31.70     0.015 A 
HETATM   26  C17   D T   1       1.319  11.743  -1.759  1.00 32.08     0.071 A 
HETATM   27  C18   D T   1       1.725  10.858  -0.714  1.00 32.72     0.023 A 
BRANCH  25  28
HETATM   28  C20   D T   1       1.841  13.962  -3.136  1.00 29.95     0.277 C 
BRANCH  28  29
HETATM   29  N3    D T   1       2.997  14.372  -3.945  1.00 31.16     0.146 N 
HETATM   30  C21   D T   1       3.585  13.254  -4.743  1.00 32.15     0.286 C 
HETATM   31  C22   D T   1       4.884  13.716  -5.439  1.00 31.08     0.286 C 
HETATM   32  N4    D T   1       4.583  14.816  -6.378  1.00 32.74     0.143 N 
HETATM   33  C23   D T   1       3.927  15.953  -5.662  1.00 30.79     0.286 C 
HETATM   34  C25   D T   1       5.763  15.221  -7.129  1.00 30.23     0.285 C 
HETATM   35  C24   D T   1       2.678  15.497  -4.845  1.00 28.48     0.286 C 
ENDBRANCH  28  29
ENDBRANCH  25  28
BRANCH  26  36
HETATM   36  C19   D T   1       0.026  11.395  -2.529  1.00 33.23     0.419 C 
HETATM   37  F1    D T   1       0.312  11.155  -3.796  1.00 33.40    -0.166 F 
HETATM   38  F2    D T   1      -0.574  10.303  -2.061  1.00 31.99    -0.166 F 
HETATM   39  F3    D T   1      -0.860  12.392  -2.454  1.00 36.12    -0.166 F 
ENDBRANCH  26  36
ENDBRANCH   3  22
TORSDOF 7
ENDMDL
MODEL 2
REMARK VINA RESULT:    -9.124      5.062      6.629
REMARK INTER + INTRA:         -13.955
REMARK INTER:                 -12.711
REMARK INTRA:                  -1.244
REMARK UNBOUND:                -1.098
REMARK  7 active torsions:
REMARK  status: ('A' for Active; 'I' for Inactive)
REMARK    1  A    between atoms: N3_2  and  C20_12 
REMARK    2  A    between atoms: C4_3  and  C5_4 
REMARK    3  A    between atoms: C13_9  and  N2_29 
REMARK    4  A    between atoms: C17_11  and  C19_33 
REMARK    5  A    between atoms: C20_12  and  C16_31 
REMARK    6  A    between atoms: C2_23  and  C3_24 
REMARK    7  A    between atoms: C9_25  and  C12_27 
REMARK       I    between atoms: C12_27  and  N2_29 
ROOT
HETATM    1  C12   D T   1       1.303   9.362   5.250  1.00 29.52     0.279 C 
HETATM    2  O1    D T   1       0.960  10.467   5.682  1.00 32.52    -0.265 OA
HETATM    3  N2    D T   1       2.205   9.184   4.267  1.00 29.90    -0.208 NA
ENDROOT
BRANCH   1   4
HETATM    4  C9    D T   1       0.703   8.114   5.825  1.00 29.36     0.059 A 
HETATM    5  C8    D T   1      -0.590   7.611   5.418  1.00 30.11     0.004 A 
HETATM    6  C7    D T   1      -1.116   6.419   6.002  1.00 28.94    -0.004 A 
HETATM    7  C6    D T   1      -0.360   5.706   6.998  1.00 28.77    -0.014 A 
HETATM    8  C5    D T   1       0.947   6.221   7.401  1.00 26.45     0.038 A 
HETATM    9  C11   D T   1      -0.966   4.432   7.586  1.00 28.14     0.032 C 
HETATM   10  C10   D T   1       1.444   7.405   6.807  1.00 27.23     0.013 A 
BRANCH   8  11
HETATM   11  C4    D T   1       1.812   5.579   8.386  1.00 24.91    -0.058 C 
HETATM   12  C3    D T   1       2.605   5.105   9.180  1.00 23.74    -0.039 C 
BRANCH  12  13
HETATM   13  C2    D T   1       3.591   4.599  10.045  1.00 23.00     0.145 A 
HETATM   14  N82   D T   1       4.948   4.695   9.893  1.00 25.15    -0.203 N 
HETATM   15  N81   D T   1       5.633   5.304   8.862  1.00 28.83    -0.162 NA
HETATM   16  C84   D T   1       5.489   4.028  11.023  1.00 26.40     0.165 A 
HETATM   17  C83   D T   1       6.965   5.222   9.000  1.00 28.11     0.121 A 
HETATM   18  C82   D T   1       7.653   4.586  10.075  1.00 26.65     0.026 A 
HETATM   19  C81   D T   1       6.919   3.991  11.086  1.00 28.42     0.041 A 
HETATM   20  N1    D T   1       4.531   3.565  11.805  1.00 27.29    -0.223 NA
HETATM   21  C1    D T   1       3.345   3.919  11.192  1.00 23.61     0.128 A 
ENDBRANCH  12  13
ENDBRANCH   8  11
ENDBRANCH   1   4
BRANCH   3  22
HETATM   22  C13   D T   1       3.156  10.116   3.776  1.00 31.24     0.085 A 
HETATM   23  C14   D T   1       2.675  11.175   2.967  1.00 32.94     0.019 A 
HETATM   24  C15   D T   1       3.584  12.148   2.442  1.00 32.88    -0.001 A 
HETATM   25  C16   D T   1       5.004  12.080   2.722  1.00 31.70     0.015 A 
HETATM   26  C17   D T   1       5.506  10.983   3.560  1.00 32.08     0.071 A 
HETATM   27  C18   D T   1       4.565  10.032   4.062  1.00 32.72     0.023 A 
BRANCH  25  28
HETATM   28  C20   D T   1       5.903  13.182   2.111  1.00 29.95     0.277 C 
BRANCH  28  29
HETATM   29  N3    D T   1       5.657  14.535   2.626  1.00 31.16     0.146 N 
HETATM   30  C21   D T   1       6.329  14.799   3.934  1.00 32.15     0.286 C 
HETATM   31  C22   D T   1       5.899  16.175   4.490  1.00 31.08     0.286 C 
HETATM   32  N4    D T   1       6.315  17.242   3.558  1.00 32.74     0.143 N 
HETATM   33  C23   D T   1       5.733  17.010   2.201  1.00 30.79     0.286 C 
HETATM   34  C25   D T   1       6.016  18.566   4.087  1.00 30.23     0.285 C 
HETATM   35  C24   D T   1       6.046  15.580   1.659  1.00 28.48     0.286 C 
ENDBRANCH  28  29
ENDBRANCH  25  28
BRANCH  26  36
HETATM   36  C19   D T   1       6.991  10.790   3.941  1.00 33.23     0.419 C 
HETATM   37  F1    D T   1       7.720  10.672   2.845  1.00 33.40    -0.166 F 
HETATM   38  F2    D T   1       7.486  11.822   4.619  1.00 31.99    -0.166 F 
HETATM   39  F3    D T   1       7.154   9.705   4.703  1.00 36.12    -0.166 F 
ENDBRANCH  26  36
ENDBRANCH   3  22
TORSDOF 7
ENDMDL
MODEL 3
REMARK VINA RESULT:    -9.045      3.902      5.848
REMARK INTER + INTRA:         -13.844
REMARK INTER:                 -12.478
REMARK INTRA:                  -1.365
REMARK UNBOUND:                -1.098
REMARK  7 active torsions:
REMARK  status: ('A' for Active; 'I' for Inactive)
REMARK    1  A    between atoms: N3_2  and  C20_12 
REMARK    2  A    between atoms: C4_3  and  C5_4 
REMARK    3  A    between atoms: C13_9  and  N2_29 
REMARK    4  A    between atoms: C17_11  and  C19_33 
REMARK    5  A    between atoms: C20_12  and  C16_31 
REMARK    6  A    between atoms: C2_23  and  C3_24 
REMARK    7  A    between atoms: C9_25  and  C12_27 
REMARK       I    between atoms: C12_27  and  N2_29 
ROOT
HETATM    1  C12   D T   1       1.177   8.866   5.384  1.00 29.52     0.279 C 
HETATM    2  O1    D T   1       0.828  10.012   5.687  1.00 32.52    -0.265 OA
HETATM    3  N2    D T   1       2.044   8.580   4.395  1.00 29.90    -0.208 NA
ENDROOT
BRANCH   1   4
HETATM    4  C9    D T   1       0.628   7.692   6.138  1.00 29.36     0.059 A 
HETATM    5  C8    D T   1      -0.715   7.193   5.932  1.00 30.11     0.004 A 
HETATM    6  C7    D T   1      -1.189   6.074   6.681  1.00 28.94    -0.004 A 
HETATM    7  C6    D T   1      -0.332   5.429   7.642  1.00 28.77    -0.014 A 
HETATM    8  C5    D T   1       1.022   5.939   7.840  1.00 26.45     0.038 A 
HETATM    9  C11   D T   1      -0.888   4.231   8.411  1.00 28.14     0.032 C 
HETATM   10  C10   D T   1       1.467   7.051   7.086  1.00 27.23     0.013 A 
BRANCH   8  11
HETATM   11  C4    D T   1       1.987   5.362   8.771  1.00 24.91    -0.058 C 
HETATM   12  C3    D T   1       2.860   4.939   9.507  1.00 23.74    -0.039 C 
BRANCH  12  13
HETATM   13  C2    D T   1       3.932   4.488  10.297  1.00 23.00     0.145 A 
HETATM   14  N82   D T   1       5.267   4.597  10.013  1.00 25.15    -0.203 N 
HETATM   15  N81   D T   1       5.841   5.169   8.897  1.00 28.83    -0.162 NA
HETATM   16  C84   D T   1       5.924   3.990  11.115  1.00 26.40     0.165 A 
HETATM   17  C83   D T   1       7.181   5.114   8.913  1.00 28.11     0.121 A 
HETATM   18  C82   D T   1       7.979   4.538   9.945  1.00 26.65     0.026 A 
HETATM   19  C81   D T   1       7.354   3.978  11.046  1.00 28.42     0.041 A 
HETATM   20  N1    D T   1       5.052   3.549  12.004  1.00 27.29    -0.223 NA
HETATM   21  C1    D T   1       3.808   3.857  11.491  1.00 23.61     0.128 A 
ENDBRANCH  12  13
ENDBRANCH   8  11
ENDBRANCH   1   4
BRANCH   3  22
HETATM   22  C13   D T   1       2.954   9.457   3.751  1.00 31.24     0.085 A 
HETATM   23  C14   D T   1       4.113   9.839   4.470  1.00 32.94     0.019 A 
HETATM   24  C15   D T   1       5.070  10.721   3.874  1.00 32.88    -0.001 A 
HETATM   25  C16   D T   1       4.885  11.239   2.534  1.00 31.70     0.015 A 
HETATM   26  C17   D T   1       3.684  10.844   1.785  1.00 32.08     0.071 A 
HETATM   27  C18   D T   1       2.754   9.964   2.417  1.00 32.72     0.023 A 
BRANCH  25  28
HETATM   28  C20   D T   1       5.979  12.182   1.978  1.00 29.95     0.277 C 
BRANCH  28  29
HETATM   29  N3    D T   1       5.725  13.614   2.190  1.00 31.16     0.146 N 
HETATM   30  C21   D T   1       6.420  14.164   3.393  1.00 32.15     0.286 C 
HETATM   31  C22   D T   1       5.983  15.625   3.644  1.00 31.08     0.286 C 
HETATM   32  N4    D T   1       6.366  16.465   2.491  1.00 32.74     0.143 N 
HETATM   33  C23   D T   1       5.759  15.936   1.231  1.00 30.79     0.286 C 
HETATM   34  C25   D T   1       6.059  17.870   2.723  1.00 30.23     0.285 C 
HETATM   35  C24   D T   1       6.080  14.425   1.009  1.00 28.48     0.286 C 
ENDBRANCH  28  29
ENDBRANCH  25  28
BRANCH  26  36
HETATM   36  C19   D T   1       3.361  11.317   0.350  1.00 33.23     0.419 C 
HETATM   37  F1    D T   1       2.205  10.810  -0.037  1.00 33.40    -0.166 F 
HETATM   38  F2    D T   1       3.247  12.640   0.258  1.00 31.99    -0.166 F 
HETATM   39  F3    D T   1       4.319  10.946  -0.504  1.00 36.12    -0.166 F 
ENDBRANCH  26  36
ENDBRANCH   3  22
TORSDOF 7
ENDMDL
MODEL 4
REMARK VINA RESULT:    -8.990      3.934      5.833
REMARK INTER + INTRA:         -13.766
REMARK INTER:                 -12.451
REMARK INTRA:                  -1.315
REMARK UNBOUND:                -1.098
REMARK  7 active torsions:
REMARK  status: ('A' for Active; 'I' for Inactive)
REMARK    1  A    between atoms: N3_2  and  C20_12 
REMARK    2  A    between atoms: C4_3  and  C5_4 
REMARK    3  A    between atoms: C13_9  and  N2_29 
REMARK    4  A    between atoms: C17_11  and  C19_33 
REMARK    5  A    between atoms: C20_12  and  C16_31 
REMARK    6  A    between atoms: C2_23  and  C3_24 
REMARK    7  A    between atoms: C9_25  and  C12_27 
REMARK       I    between atoms: C12_27  and  N2_29 
ROOT
HETATM    1  C12   D T   1       1.048   8.765   5.289  1.00 29.52     0.279 C 
HETATM    2  O1    D T   1       0.564   9.882   5.498  1.00 32.52    -0.265 OA
HETATM    3  N2    D T   1       2.006   8.517   4.378  1.00 29.90    -0.208 NA
ENDROOT
BRANCH   1   4
HETATM    4  C9    D T   1       0.569   7.583   6.078  1.00 29.36     0.059 A 
HETATM    5  C8    D T   1      -0.732   6.985   5.874  1.00 30.11     0.004 A 
HETATM    6  C7    D T   1      -1.140   5.862   6.656  1.00 28.94    -0.004 A 
HETATM    7  C6    D T   1      -0.256   5.313   7.650  1.00 28.77    -0.014 A 
HETATM    8  C5    D T   1       1.058   5.922   7.847  1.00 26.45     0.038 A 
HETATM    9  C11   D T   1      -0.739   4.107   8.455  1.00 28.14     0.032 C 
HETATM   10  C10   D T   1       1.436   7.035   7.059  1.00 27.23     0.013 A 
BRANCH   8  11
HETATM   11  C4    D T   1       2.046   5.447   8.811  1.00 24.91    -0.058 C 
HETATM   12  C3    D T   1       2.929   5.028   9.538  1.00 23.74    -0.039 C 
BRANCH  12  13
HETATM   13  C2    D T   1       3.985   4.503  10.302  1.00 23.00     0.145 A 
HETATM   14  N82   D T   1       5.323   4.593  10.027  1.00 25.15    -0.203 N 
HETATM   15  N81   D T   1       5.916   5.213   8.947  1.00 28.83    -0.162 NA
HETATM   16  C84   D T   1       5.961   3.905  11.093  1.00 26.40     0.165 A 
HETATM   17  C83   D T   1       7.254   5.122   8.962  1.00 28.11     0.121 A 
HETATM   18  C82   D T   1       8.033   4.465   9.959  1.00 26.65     0.026 A 
HETATM   19  C81   D T   1       7.390   3.858  11.025  1.00 28.42     0.041 A 
HETATM   20  N1    D T   1       5.074   3.436  11.953  1.00 27.29    -0.223 NA
HETATM   21  C1    D T   1       3.840   3.806  11.457  1.00 23.61     0.128 A 
ENDBRANCH  12  13
ENDBRANCH   8  11
ENDBRANCH   1   4
BRANCH   3  22
HETATM   22  C13   D T   1       2.866   9.449   3.739  1.00 31.24     0.085 A 
HETATM   23  C14   D T   1       3.983   9.915   4.474  1.00 32.94     0.019 A 
HETATM   24  C15   D T   1       4.888  10.855   3.885  1.00 32.88    -0.001 A 
HETATM   25  C16   D T   1       4.691  11.348   2.537  1.00 31.70     0.015 A 
HETATM   26  C17   D T   1       3.533  10.865   1.773  1.00 32.08     0.071 A 
HETATM   27  C18   D T   1       2.654   9.929   2.398  1.00 32.72     0.023 A 
BRANCH  25  28
HETATM   28  C20   D T   1       5.728  12.359   1.990  1.00 29.95     0.277 C 
BRANCH  28  29
HETATM   29  N3    D T   1       6.990  11.762   1.534  1.00 31.16     0.146 N 
HETATM   30  C21   D T   1       7.240  11.954   0.073  1.00 32.15     0.286 C 
HETATM   31  C22   D T   1       8.496  11.169  -0.365  1.00 31.08     0.286 C 
HETATM   32  N4    D T   1       9.680  11.680   0.355  1.00 32.74     0.143 N 
HETATM   33  C23   D T   1       9.479  11.583   1.833  1.00 30.79     0.286 C 
HETATM   34  C25   D T   1      10.905  11.034  -0.096  1.00 30.23     0.285 C 
HETATM   35  C24   D T   1       8.151  12.262   2.296  1.00 28.48     0.286 C 
ENDBRANCH  28  29
ENDBRANCH  25  28
BRANCH  26  36
HETATM   36  C19   D T   1       3.203  11.302   0.328  1.00 33.23     0.419 C 
HETATM   37  F1    D T   1       4.128  10.847  -0.498  1.00 33.40    -0.166 F 
HETATM   38  F2    D T   1       2.039  10.821  -0.102  1.00 31.99    -0.166 F 
HETATM   39  F3    D T   1       3.136  12.633   0.233  1.00 36.12    -0.166 F 
ENDBRANCH  26  36
ENDBRANCH   3  22
TORSDOF 7
ENDMDL
MODEL 5
REMARK VINA RESULT:    -8.983      4.197      5.845
REMARK INTER + INTRA:         -13.756
REMARK INTER:                 -12.467
REMARK INTRA:                  -1.289
REMARK UNBOUND:                -1.098
REMARK  7 active torsions:
REMARK  status: ('A' for Active; 'I' for Inactive)
REMARK    1  A    between atoms: N3_2  and  C20_12 
REMARK    2  A    between atoms: C4_3  and  C5_4 
REMARK    3  A    between atoms: C13_9  and  N2_29 
REMARK    4  A    between atoms: C17_11  and  C19_33 
REMARK    5  A    between atoms: C20_12  and  C16_31 
REMARK    6  A    between atoms: C2_23  and  C3_24 
REMARK    7  A    between atoms: C9_25  and  C12_27 
REMARK       I    between atoms: C12_27  and  N2_29 
ROOT
HETATM    1  C12   D T   1       1.357   9.371   5.208  1.00 29.52     0.279 C 
HETATM    2  O1    D T   1       1.056  10.483   5.655  1.00 32.52    -0.265 OA
HETATM    3  N2    D T   1       2.222   9.175   4.196  1.00 29.90    -0.208 NA
ENDROOT
BRANCH   1   4
HETATM    4  C9    D T   1       0.745   8.136   5.799  1.00 29.36     0.059 A 
HETATM    5  C8    D T   1      -0.556   7.643   5.401  1.00 30.11     0.004 A 
HETATM    6  C7    D T   1      -1.094   6.464   6.000  1.00 28.94    -0.004 A 
HETATM    7  C6    D T   1      -0.342   5.753   7.001  1.00 28.77    -0.014 A 
HETATM    8  C5    D T   1       0.971   6.257   7.395  1.00 26.45     0.038 A 
HETATM    9  C11   D T   1      -0.962   4.493   7.605  1.00 28.14     0.032 C 
HETATM   10  C10   D T   1       1.480   7.429   6.786  1.00 27.23     0.013 A 
BRANCH   8  11
HETATM   11  C4    D T   1       1.832   5.616   8.384  1.00 24.91    -0.058 C 
HETATM   12  C3    D T   1       2.627   5.128   9.168  1.00 23.74    -0.039 C 
BRANCH  12  13
HETATM   13  C2    D T   1       3.612   4.591  10.013  1.00 23.00     0.145 A 
HETATM   14  N82   D T   1       4.969   4.667   9.847  1.00 25.15    -0.203 N 
HETATM   15  N81   D T   1       5.654   5.283   8.820  1.00 28.83    -0.162 NA
HETATM   16  C84   D T   1       5.512   3.971  10.959  1.00 26.40     0.165 A 
HETATM   17  C83   D T   1       6.985   5.178   8.942  1.00 28.11     0.121 A 
HETATM   18  C82   D T   1       7.674   4.511   9.998  1.00 26.65     0.026 A 
HETATM   19  C81   D T   1       6.941   3.910  11.007  1.00 28.42     0.041 A 
HETATM   20  N1    D T   1       4.554   3.510  11.744  1.00 27.29    -0.223 NA
HETATM   21  C1    D T   1       3.368   3.894  11.150  1.00 23.61     0.128 A 
ENDBRANCH  12  13
ENDBRANCH   8  11
ENDBRANCH   1   4
BRANCH   3  22
HETATM   22  C13   D T   1       3.180  10.084   3.677  1.00 31.24     0.085 A 
HETATM   23  C14   D T   1       2.720  11.067   2.768  1.00 32.94     0.019 A 
HETATM   24  C15   D T   1       3.637  12.014   2.210  1.00 32.88    -0.001 A 
HETATM   25  C16   D T   1       5.044  11.996   2.558  1.00 31.70     0.015 A 
HETATM   26  C17   D T   1       5.523  10.977   3.502  1.00 32.08     0.071 A 
HETATM   27  C18   D T   1       4.575  10.050   4.033  1.00 32.72     0.023 A 
BRANCH  25  28
HETATM   28  C20   D T   1       5.952  13.065   1.904  1.00 29.95     0.277 C 
BRANCH  28  29
HETATM   29  N3    D T   1       6.273  12.821   0.491  1.00 31.16     0.146 N 
HETATM   30  C21   D T   1       5.868  13.945  -0.407  1.00 32.15     0.286 C 
HETATM   31  C22   D T   1       6.088  13.556  -1.886  1.00 31.08     0.286 C 
HETATM   32  N4    D T   1       7.521  13.294  -2.126  1.00 32.74     0.143 N 
HETATM   33  C23   D T   1       8.020  12.221  -1.212  1.00 30.79     0.286 C 
HETATM   34  C25   D T   1       7.790  13.016  -3.530  1.00 30.23     0.285 C 
HETATM   35  C24   D T   1       7.704  12.525   0.286  1.00 28.48     0.286 C 
ENDBRANCH  28  29
ENDBRANCH  25  28
BRANCH  26  36
HETATM   36  C19   D T   1       6.991  10.843   3.963  1.00 33.23     0.419 C 
HETATM   37  F1    D T   1       7.753  10.514   2.935  1.00 33.40    -0.166 F 
HETATM   38  F2    D T   1       7.482  11.980   4.452  1.00 31.99    -0.166 F 
HETATM   39  F3    D T   1       7.111   9.920   4.921  1.00 36.12    -0.166 F 
ENDBRANCH  26  36
ENDBRANCH   3  22
TORSDOF 7
ENDMDL
MODEL 6
REMARK VINA RESULT:    -8.821      1.467      2.060
REMARK INTER + INTRA:         -13.529
REMARK INTER:                 -12.899
REMARK INTRA:                  -0.630
REMARK UNBOUND:                -1.098
REMARK  7 active torsions:
REMARK  status: ('A' for Active; 'I' for Inactive)
REMARK    1  A    between atoms: N3_2  and  C20_12 
REMARK    2  A    between atoms: C4_3  and  C5_4 
REMARK    3  A    between atoms: C13_9  and  N2_29 
REMARK    4  A    between atoms: C17_11  and  C19_33 
REMARK    5  A    between atoms: C20_12  and  C16_31 
REMARK    6  A    between atoms: C2_23  and  C3_24 
REMARK    7  A    between atoms: C9_25  and  C12_27 
REMARK       I    between atoms: C12_27  and  N2_29 
ROOT
HETATM    1  C12   D T   1       4.408  10.682   2.514  1.00 29.52     0.279 C 
HETATM    2  O1    D T   1       4.661  11.863   2.772  1.00 32.52    -0.265 OA
HETATM    3  N2    D T   1       3.642  10.284   1.481  1.00 29.90    -0.208 NA
ENDROOT
BRANCH   1   4
HETATM    4  C9    D T   1       4.967   9.591   3.377  1.00 29.36     0.059 A 
HETATM    5  C8    D T   1       6.337   9.137   3.269  1.00 30.11     0.004 A 
HETATM    6  C7    D T   1       6.817   8.090   4.113  1.00 28.94    -0.004 A 
HETATM    7  C6    D T   1       5.942   7.483   5.082  1.00 28.77    -0.014 A 
HETATM    8  C5    D T   1       4.562   7.950   5.185  1.00 26.45     0.038 A 
HETATM    9  C11   D T   1       6.509   6.371   5.965  1.00 28.14     0.032 C 
HETATM   10  C10   D T   1       4.111   8.988   4.335  1.00 27.23     0.013 A 
BRANCH   8  11
HETATM   11  C4    D T   1       3.588   7.426   6.137  1.00 24.91    -0.058 C 
HETATM   12  C3    D T   1       2.813   6.900   6.916  1.00 23.74    -0.039 C 
BRANCH  12  13
HETATM   13  C2    D T   1       1.942   6.209   7.776  1.00 23.00     0.145 A 
HETATM   14  N82   D T   1       2.286   5.295   8.736  1.00 25.15    -0.203 N 
HETATM   15  N81   D T   1       3.554   4.860   9.061  1.00 28.83    -0.162 NA
HETATM   16  C84   D T   1       1.054   4.895   9.316  1.00 26.40     0.165 A 
HETATM   17  C83   D T   1       3.558   3.952  10.048  1.00 28.11     0.121 A 
HETATM   18  C82   D T   1       2.406   3.452  10.724  1.00 26.65     0.026 A 
HETATM   19  C81   D T   1       1.156   3.923  10.362  1.00 28.42     0.041 A 
HETATM   20  N1    D T   1       0.038   5.522   8.752  1.00 27.29    -0.223 NA
HETATM   21  C1    D T   1       0.593   6.340   7.788  1.00 23.61     0.128 A 
ENDBRANCH  12  13
ENDBRANCH   8  11
ENDBRANCH   1   4
BRANCH   3  22
HETATM   22  C13   D T   1       3.263  11.031   0.336  1.00 31.24     0.085 A 
HETATM   23  C14   D T   1       4.154  12.037  -0.111  1.00 32.94     0.019 A 
HETATM   24  C15   D T   1       3.830  12.824  -1.261  1.00 32.88    -0.001 A 
HETATM   25  C16   D T   1       2.597  12.616  -1.994  1.00 31.70     0.015 A 
HETATM   26  C17   D T   1       1.671  11.572  -1.533  1.00 32.08     0.071 A 
HETATM   27  C18   D T   1       2.032  10.811  -0.380  1.00 32.72     0.023 A 
BRANCH  25  28
HETATM   28  C20   D T   1       2.340  13.516  -3.226  1.00 29.95     0.277 C 
BRANCH  28  29
HETATM   29  N3    D T   1       1.881  14.876  -2.912  1.00 31.16     0.146 N 
HETATM   30  C21   D T   1       2.876  15.932  -3.271  1.00 32.15     0.286 C 
HETATM   31  C22   D T   1       2.398  17.312  -2.770  1.00 31.08     0.286 C 
HETATM   32  N4    D T   1       1.123  17.668  -3.425  1.00 32.74     0.143 N 
HETATM   33  C23   D T   1       0.089  16.619  -3.167  1.00 30.79     0.286 C 
HETATM   34  C25   D T   1       0.682  19.005  -3.055  1.00 30.23     0.285 C 
HETATM   35  C24   D T   1       0.587  15.190  -3.549  1.00 28.48     0.286 C 
ENDBRANCH  28  29
ENDBRANCH  25  28
BRANCH  26  36
HETATM   36  C19   D T   1       0.327  11.240  -2.218  1.00 33.23     0.419 C 
HETATM   37  F1    D T   1       0.442  11.393  -3.525  1.00 33.40    -0.166 F 
HETATM   38  F2    D T   1      -0.057   9.982  -2.013  1.00 31.99    -0.166 F 
HETATM   39  F3    D T   1      -0.651  12.027  -1.762  1.00 36.12    -0.166 F 
ENDBRANCH  26  36
ENDBRANCH   3  22
TORSDOF 7
ENDMDL
MODEL 7
REMARK VINA RESULT:    -8.582      3.581      5.317
REMARK INTER + INTRA:         -13.191
REMARK INTER:                 -12.034
REMARK INTRA:                  -1.157
REMARK UNBOUND:                -1.098
REMARK  7 active torsions:
REMARK  status: ('A' for Active; 'I' for Inactive)
REMARK    1  A    between atoms: N3_2  and  C20_12 
REMARK    2  A    between atoms: C4_3  and  C5_4 
REMARK    3  A    between atoms: C13_9  and  N2_29 
REMARK    4  A    between atoms: C17_11  and  C19_33 
REMARK    5  A    between atoms: C20_12  and  C16_31 
REMARK    6  A    between atoms: C2_23  and  C3_24 
REMARK    7  A    between atoms: C9_25  and  C12_27 
REMARK       I    between atoms: C12_27  and  N2_29 
ROOT
HETATM    1  C12   D T   1       1.817   9.185   4.958  1.00 29.52     0.279 C 
HETATM    2  O1    D T   1       1.559  10.374   5.173  1.00 32.52    -0.265 OA
HETATM    3  N2    D T   1       2.456   8.740   3.861  1.00 29.90    -0.208 NA
ENDROOT
BRANCH   1   4
HETATM    4  C9    D T   1       1.411   8.140   5.953  1.00 29.36     0.059 A 
HETATM    5  C8    D T   1       0.027   7.860   6.269  1.00 30.11     0.004 A 
HETATM    6  C7    D T   1      -0.304   6.857   7.229  1.00 28.94    -0.004 A 
HETATM    7  C6    D T   1       0.738   6.110   7.886  1.00 28.77    -0.014 A 
HETATM    8  C5    D T   1       2.132   6.398   7.558  1.00 26.45     0.038 A 
HETATM    9  C11   D T   1       0.329   5.043   8.899  1.00 28.14     0.032 C 
HETATM   10  C10   D T   1       2.433   7.400   6.603  1.00 27.23     0.013 A 
BRANCH   8  11
HETATM   11  C4    D T   1       3.273   5.701   8.142  1.00 24.91    -0.058 C 
HETATM   12  C3    D T   1       4.247   5.201   8.678  1.00 23.74    -0.039 C 
BRANCH  12  13
HETATM   13  C2    D T   1       5.400   4.713   9.315  1.00 23.00     0.145 A 
HETATM   14  N82   D T   1       5.477   4.157  10.564  1.00 25.15    -0.203 N 
HETATM   15  N81   D T   1       4.445   3.960  11.458  1.00 28.83    -0.162 NA
HETATM   16  C84   D T   1       6.849   3.834  10.735  1.00 26.40     0.165 A 
HETATM   17  C83   D T   1       4.848   3.393  12.605  1.00 28.11     0.121 A 
HETATM   18  C82   D T   1       6.186   3.016  12.922  1.00 26.65     0.026 A 
HETATM   19  C81   D T   1       7.186   3.233  11.989  1.00 28.42     0.041 A 
HETATM   20  N1    D T   1       7.551   4.167   9.667  1.00 27.29    -0.223 NA
HETATM   21  C1    D T   1       6.647   4.719   8.782  1.00 23.61     0.128 A 
ENDBRANCH  12  13
ENDBRANCH   8  11
ENDBRANCH   1   4
BRANCH   3  22
HETATM   22  C13   D T   1       3.232   9.488   2.938  1.00 31.24     0.085 A 
HETATM   23  C14   D T   1       4.637   9.491   3.118  1.00 32.94     0.019 A 
HETATM   24  C15   D T   1       5.474  10.225   2.219  1.00 32.88    -0.001 A 
HETATM   25  C16   D T   1       4.916  10.976   1.112  1.00 31.70     0.015 A 
HETATM   26  C17   D T   1       3.459  10.974   0.924  1.00 32.08     0.071 A 
HETATM   27  C18   D T   1       2.660  10.230   1.844  1.00 32.72     0.023 A 
BRANCH  25  28
HETATM   28  C20   D T   1       5.906  11.734   0.196  1.00 29.95     0.277 C 
BRANCH  28  29
HETATM   29  N3    D T   1       6.707  12.764   0.871  1.00 31.16     0.146 N 
HETATM   30  C21   D T   1       7.822  13.291   0.026  1.00 32.15     0.286 C 
HETATM   31  C22   D T   1       8.714  14.246   0.850  1.00 31.08     0.286 C 
HETATM   32  N4    D T   1       7.918  15.405   1.303  1.00 32.74     0.143 N 
HETATM   33  C23   D T   1       6.739  14.953   2.104  1.00 30.79     0.286 C 
HETATM   34  C25   D T   1       8.740  16.382   2.004  1.00 30.23     0.285 C 
HETATM   35  C24   D T   1       5.882  13.891   1.346  1.00 28.48     0.286 C 
ENDBRANCH  28  29
ENDBRANCH  25  28
BRANCH  26  36
HETATM   36  C19   D T   1       2.730  11.726  -0.212  1.00 33.23     0.419 C 
HETATM   37  F1    D T   1       1.484  11.976   0.146  1.00 33.40    -0.166 F 
HETATM   38  F2    D T   1       3.289  12.901  -0.493  1.00 31.99    -0.166 F 
HETATM   39  F3    D T   1       2.734  11.011  -1.341  1.00 36.12    -0.166 F 
ENDBRANCH  26  36
ENDBRANCH   3  22
TORSDOF 7
ENDMDL
MODEL 8
REMARK VINA RESULT:    -8.530      3.869      6.837
REMARK INTER + INTRA:         -13.119
REMARK INTER:                 -12.242
REMARK INTRA:                  -0.877
REMARK UNBOUND:                -1.098
REMARK  7 active torsions:
REMARK  status: ('A' for Active; 'I' for Inactive)
REMARK    1  A    between atoms: N3_2  and  C20_12 
REMARK    2  A    between atoms: C4_3  and  C5_4 
REMARK    3  A    between atoms: C13_9  and  N2_29 
REMARK    4  A    between atoms: C17_11  and  C19_33 
REMARK    5  A    between atoms: C20_12  and  C16_31 
REMARK    6  A    between atoms: C2_23  and  C3_24 
REMARK    7  A    between atoms: C9_25  and  C12_27 
REMARK       I    between atoms: C12_27  and  N2_29 
ROOT
HETATM    1  C12   D T   1       3.479   6.954   6.674  1.00 29.52     0.279 C 
HETATM    2  O1    D T   1       4.442   6.552   6.012  1.00 32.52    -0.265 OA
HETATM    3  N2    D T   1       2.912   8.164   6.519  1.00 29.90    -0.208 NA
ENDROOT
BRANCH   1   4
HETATM    4  C9    D T   1       2.874   6.073   7.725  1.00 29.36     0.059 A 
HETATM    5  C8    D T   1       1.453   5.811   7.800  1.00 30.11     0.004 A 
HETATM    6  C7    D T   1       0.928   4.968   8.825  1.00 28.94    -0.004 A 
HETATM    7  C6    D T   1       1.811   4.365   9.790  1.00 28.77    -0.014 A 
HETATM    8  C5    D T   1       3.245   4.634   9.705  1.00 26.45     0.038 A 
HETATM    9  C11   D T   1       1.199   3.465  10.862  1.00 28.14     0.032 C 
HETATM   10  C10   D T   1       3.739   5.475   8.679  1.00 27.23     0.013 A 
BRANCH   8  11
HETATM   11  C4    D T   1       4.240   4.070  10.612  1.00 24.91    -0.058 C 
HETATM   12  C3    D T   1       5.132   3.668  11.337  1.00 23.74    -0.039 C 
BRANCH  12  13
HETATM   13  C2    D T   1       6.223   3.252  12.119  1.00 23.00     0.145 A 
HETATM   14  N82   D T   1       7.552   3.399  11.823  1.00 25.15    -0.203 N 
HETATM   15  N81   D T   1       8.099   3.982  10.699  1.00 28.83    -0.162 NA
HETATM   16  C84   D T   1       8.237   2.818  12.922  1.00 26.40     0.165 A 
HETATM   17  C83   D T   1       9.440   3.967  10.703  1.00 28.11     0.121 A 
HETATM   18  C82   D T   1      10.264   3.419  11.730  1.00 26.65     0.026 A 
HETATM   19  C81   D T   1       9.665   2.847  12.840  1.00 28.42     0.041 A 
HETATM   20  N1    D T   1       7.386   2.355  13.821  1.00 27.29    -0.223 NA
HETATM   21  C1    D T   1       6.128   2.624  13.317  1.00 23.61     0.128 A 
ENDBRANCH  12  13
ENDBRANCH   8  11
ENDBRANCH   1   4
BRANCH   3  22
HETATM   22  C13   D T   1       3.039   9.055   5.422  1.00 31.24     0.085 A 
HETATM   23  C14   D T   1       1.919   9.859   5.100  1.00 32.94     0.019 A 
HETATM   24  C15   D T   1       1.985  10.778   4.005  1.00 32.88    -0.001 A 
HETATM   25  C16   D T   1       3.186  10.912   3.206  1.00 31.70     0.015 A 
HETATM   26  C17   D T   1       4.350  10.080   3.538  1.00 32.08     0.071 A 
HETATM   27  C18   D T   1       4.241   9.174   4.637  1.00 32.72     0.023 A 
BRANCH  25  28
HETATM   28  C20   D T   1       3.159  11.937   2.046  1.00 29.95     0.277 C 
BRANCH  28  29
HETATM   29  N3    D T   1       2.161  11.661   1.003  1.00 31.16     0.146 N 
HETATM   30  C21   D T   1       1.468  12.890   0.511  1.00 32.15     0.286 C 
HETATM   31  C22   D T   1       0.328  12.511  -0.461  1.00 31.08     0.286 C 
HETATM   32  N4    D T   1       0.887  11.819  -1.640  1.00 32.74     0.143 N 
HETATM   33  C23   D T   1       1.658  10.607  -1.222  1.00 30.79     0.286 C 
HETATM   34  C25   D T   1      -0.139  11.527  -2.630  1.00 30.23     0.285 C 
HETATM   35  C24   D T   1       2.739  10.936  -0.145  1.00 28.48     0.286 C 
ENDBRANCH  28  29
ENDBRANCH  25  28
BRANCH  26  36
HETATM   36  C19   D T   1       5.693  10.121   2.775  1.00 33.23     0.419 C 
HETATM   37  F1    D T   1       6.247  11.312   2.910  1.00 33.40    -0.166 F 
HETATM   38  F2    D T   1       6.574   9.236   3.236  1.00 31.99    -0.166 F 
HETATM   39  F3    D T   1       5.516   9.856   1.477  1.00 36.12    -0.166 F 
ENDBRANCH  26  36
ENDBRANCH   3  22
TORSDOF 7
ENDMDL
MODEL 9
REMARK VINA RESULT:    -8.484      1.521      2.059
REMARK INTER + INTRA:         -13.053
REMARK INTER:                 -12.051
REMARK INTRA:                  -1.002
REMARK UNBOUND:                -1.098
REMARK  7 active torsions:
REMARK  status: ('A' for Active; 'I' for Inactive)
REMARK    1  A    between atoms: N3_2  and  C20_12 
REMARK    2  A    between atoms: C4_3  and  C5_4 
REMARK    3  A    between atoms: C13_9  and  N2_29 
REMARK    4  A    between atoms: C17_11  and  C19_33 
REMARK    5  A    between atoms: C20_12  and  C16_31 
REMARK    6  A    between atoms: C2_23  and  C3_24 
REMARK    7  A    between atoms: C9_25  and  C12_27 
REMARK       I    between atoms: C12_27  and  N2_29 
ROOT
HETATM    1  C12   D T   1       5.314  10.593   1.156  1.00 29.52     0.279 C 
HETATM    2  O1    D T   1       6.206  10.646   0.303  1.00 32.52    -0.265 OA
HETATM    3  N2    D T   1       4.160  11.280   1.083  1.00 29.90    -0.208 NA
ENDROOT
BRANCH   1   4
HETATM    4  C9    D T   1       5.486   9.721   2.364  1.00 29.36     0.059 A 
HETATM    5  C8    D T   1       6.763   9.160   2.745  1.00 30.11     0.004 A 
HETATM    6  C7    D T   1       6.869   8.332   3.904  1.00 28.94    -0.004 A 
HETATM    7  C6    D T   1       5.706   8.055   4.705  1.00 28.77    -0.014 A 
HETATM    8  C5    D T   1       4.421   8.629   4.313  1.00 26.45     0.038 A 
HETATM    9  C11   D T   1       5.876   7.169   5.938  1.00 28.14     0.032 C 
HETATM   10  C10   D T   1       4.343   9.445   3.159  1.00 27.23     0.013 A 
BRANCH   8  11
HETATM   11  C4    D T   1       3.176   8.434   5.052  1.00 24.91    -0.058 C 
HETATM   12  C3    D T   1       2.145   8.177   5.647  1.00 23.74    -0.039 C 
BRANCH  12  13
HETATM   13  C2    D T   1       0.954   7.796   6.287  1.00 23.00     0.145 A 
HETATM   14  N82   D T   1       0.809   6.835   7.251  1.00 25.15    -0.203 N 
HETATM   15  N81   D T   1       1.796   6.038   7.795  1.00 28.83    -0.162 NA
HETATM   16  C84   D T   1      -0.576   6.837   7.562  1.00 26.40     0.165 A 
HETATM   17  C83   D T   1       1.329   5.186   8.720  1.00 28.11     0.121 A 
HETATM   18  C82   D T   1      -0.030   5.071   9.135  1.00 26.65     0.026 A 
HETATM   19  C81   D T   1      -0.982   5.895   8.561  1.00 28.42     0.041 A 
HETATM   20  N1    D T   1      -1.223   7.736   6.842  1.00 27.29    -0.223 NA
HETATM   21  C1    D T   1      -0.267   8.332   6.044  1.00 23.61     0.128 A 
ENDBRANCH  12  13
ENDBRANCH   8  11
ENDBRANCH   1   4
BRANCH   3  22
HETATM   22  C13   D T   1       3.584  11.902  -0.055  1.00 31.24     0.085 A 
HETATM   23  C14   D T   1       4.275  13.004  -0.617  1.00 32.94     0.019 A 
HETATM   24  C15   D T   1       3.747  13.673  -1.766  1.00 32.88    -0.001 A 
HETATM   25  C16   D T   1       2.506  13.246  -2.383  1.00 31.70     0.015 A 
HETATM   26  C17   D T   1       1.788  12.103  -1.802  1.00 32.08     0.071 A 
HETATM   27  C18   D T   1       2.349  11.465  -0.654  1.00 32.72     0.023 A 
BRANCH  25  28
HETATM   28  C20   D T   1       2.021  14.033  -3.624  1.00 29.95     0.277 C 
BRANCH  28  29
HETATM   29  N3    D T   1       3.094  14.565  -4.475  1.00 31.16     0.146 N 
HETATM   30  C21   D T   1       3.801  13.510  -5.262  1.00 32.15     0.286 C 
HETATM   31  C22   D T   1       5.011  14.116  -6.006  1.00 31.08     0.286 C 
HETATM   32  N4    D T   1       4.547  15.142  -6.962  1.00 32.74     0.143 N 
HETATM   33  C23   D T   1       3.768  16.205  -6.256  1.00 30.79     0.286 C 
HETATM   34  C25   D T   1       5.646  15.674  -7.756  1.00 30.23     0.285 C 
HETATM   35  C24   D T   1       2.609  15.614  -5.393  1.00 28.48     0.286 C 
ENDBRANCH  28  29
ENDBRANCH  25  28
BRANCH  26  36
HETATM   36  C19   D T   1       0.460  11.541  -2.357  1.00 33.23     0.419 C 
HETATM   37  F1    D T   1       0.135  10.440  -1.703  1.00 33.40    -0.166 F 
HETATM   38  F2    D T   1      -0.558  12.386  -2.210  1.00 31.99    -0.166 F 
HETATM   39  F3    D T   1       0.561  11.272  -3.661  1.00 36.12    -0.166 F 
ENDBRANCH  26  36
ENDBRANCH   3  22
TORSDOF 7
ENDMDL
