MODEL 1
REMARK VINA RESULT:    -7.763      0.000      0.000
REMARK INTER + INTRA:          -9.098
REMARK INTER:                  -8.671
REMARK INTRA:                  -0.427
REMARK UNBOUND:                -0.427
REMARK  2 active torsions:
REMARK  status: ('A' for Active; 'I' for Inactive)
REMARK    1  A    between atoms: C5_4  and  O7_13 
REMARK    2  A    between atoms: C8_10  and  O7_13 
ROOT
HETATM    1  O7    D T 801       6.037   0.804  -7.374  1.00 44.91    -0.304 OA
ENDROOT
BRANCH   1   2
HETATM    2  C5    D T 801       5.308   1.631  -6.554  1.00 45.35     0.125 A 
HETATM    3  C6    D T 801       4.245   1.047  -5.809  1.00 44.30     0.154 A 
HETATM    4  C1    D T 801       3.454   1.900  -4.953  1.00 43.93     0.041 A 
HETATM    5  O17   D T 801       3.961  -0.273  -5.893  1.00 43.09    -0.188 OA
HETATM    6  C2    D T 801       3.789   3.291  -4.904  1.00 44.08     0.060 A 
HETATM    7  C3    D T 801       4.847   3.895  -5.641  1.00 44.17     0.014 A 
HETATM    8 CL14   D T 801       2.846   4.316  -3.889  1.00 45.88    -0.082 Cl
HETATM    9  C4    D T 801       5.614   3.039  -6.477  1.00 45.15     0.028 A 
ENDBRANCH   1   2
BRANCH   1  10
HETATM   10  C8    D T 801       6.496   1.136  -8.645  1.00 47.49     0.111 A 
HETATM   11  C9    D T 801       5.542   1.162  -9.730  1.00 48.15     0.081 A 
HETATM   12  C10   D T 801       5.958   1.496 -11.053  1.00 48.95     0.025 A 
HETATM   13 CL16   D T 801       3.840   0.784  -9.470  1.00 47.31    -0.080 Cl
HETATM   14  C11   D T 801       7.346   1.806 -11.293  1.00 49.51     0.059 A 
HETATM   15  C12   D T 801       8.311   1.787 -10.231  1.00 49.76     0.013 A 
HETATM   16 CL15   D T 801       7.870   2.212 -12.886  1.00 51.18    -0.082 Cl
HETATM   17  C13   D T 801       7.883   1.455  -8.933  1.00 48.54     0.026 A 
ENDBRANCH   1  10
TORSDOF 2
ENDMDL
MODEL 2
REMARK VINA RESULT:    -7.655      1.543      2.014
REMARK INTER + INTRA:          -8.977
REMARK INTER:                  -8.480
REMARK INTRA:                  -0.497
REMARK UNBOUND:                -0.427
REMARK  2 active torsions:
REMARK  status: ('A' for Active; 'I' for Inactive)
REMARK    1  A    between atoms: C5_4  and  O7_13 
REMARK    2  A    between atoms: C8_10  and  O7_13 
ROOT
HETATM    1  O7    D T 801       6.673   1.212  -6.757  1.00 44.91    -0.304 OA
ENDROOT
BRANCH   1   2
HETATM    2  C5    D T 801       5.735   1.925  -6.049  1.00 45.35     0.125 A 
HETATM    3  C6    D T 801       4.606   1.215  -5.553  1.00 44.30     0.154 A 
HETATM    4  C1    D T 801       3.600   1.948  -4.821  1.00 43.93     0.041 A 
HETATM    5  O17   D T 801       4.456  -0.113  -5.759  1.00 43.09    -0.188 OA
HETATM    6  C2    D T 801       3.800   3.354  -4.636  1.00 44.08     0.060 A 
HETATM    7  C3    D T 801       4.922   4.082  -5.124  1.00 44.17     0.014 A 
HETATM    8 CL14   D T 801       2.600   4.235  -3.769  1.00 45.88    -0.082 Cl
HETATM    9  C4    D T 801       5.901   3.344  -5.842  1.00 45.15     0.028 A 
ENDBRANCH   1   2
BRANCH   1  10
HETATM   10  C8    D T 801       6.961   1.384  -8.107  1.00 47.49     0.111 A 
HETATM   11  C9    D T 801       8.234   1.970  -8.464  1.00 48.15     0.081 A 
HETATM   12  C10   D T 801       8.580   2.169  -9.833  1.00 48.95     0.025 A 
HETATM   13 CL16   D T 801       9.399   2.460  -7.237  1.00 47.31    -0.080 Cl
HETATM   14  C11   D T 801       7.643   1.779 -10.857  1.00 49.51     0.059 A 
HETATM   15  C12   D T 801       6.374   1.195 -10.526  1.00 49.76     0.013 A 
HETATM   16 CL15   D T 801       8.042   2.011 -12.519  1.00 51.18    -0.082 Cl
HETATM   17  C13   D T 801       6.048   1.006  -9.171  1.00 48.54     0.026 A 
ENDBRANCH   1  10
TORSDOF 2
ENDMDL
MODEL 3
REMARK VINA RESULT:    -7.638      1.410      6.149
REMARK INTER + INTRA:          -8.958
REMARK INTER:                  -8.455
REMARK INTRA:                  -0.503
REMARK UNBOUND:                -0.427
REMARK  2 active torsions:
REMARK  status: ('A' for Active; 'I' for Inactive)
REMARK    1  A    between atoms: C5_4  and  O7_13 
REMARK    2  A    between atoms: C8_10  and  O7_13 
ROOT
HETATM    1  O7    D T 801       6.882   1.325  -6.841  1.00 44.91    -0.304 OA
ENDROOT
BRANCH   1   2
HETATM    2  C5    D T 801       7.146   1.476  -8.181  1.00 45.35     0.125 A 
HETATM    3  C6    D T 801       8.370   2.106  -8.544  1.00 44.30     0.154 A 
HETATM    4  C1    D T 801       8.660   2.289  -9.946  1.00 43.93     0.041 A 
HETATM    5  O17   D T 801       9.250   2.536  -7.611  1.00 43.09    -0.188 OA
HETATM    6  C2    D T 801       7.693   1.824 -10.894  1.00 44.08     0.060 A 
HETATM    7  C3    D T 801       6.464   1.192 -10.553  1.00 44.17     0.014 A 
HETATM    8 CL14   D T 801       8.031   2.044 -12.570  1.00 45.88    -0.082 Cl
HETATM    9  C4    D T 801       6.196   1.020  -9.168  1.00 45.15     0.028 A 
ENDBRANCH   1   2
BRANCH   1  10
HETATM   10  C8    D T 801       5.920   2.035  -6.128  1.00 47.49     0.111 A 
HETATM   11  C9    D T 801       4.727   1.335  -5.709  1.00 48.15     0.081 A 
HETATM   12  C10   D T 801       3.710   2.013  -4.975  1.00 48.95     0.025 A 
HETATM   13 CL16   D T 801       4.479  -0.369  -6.084  1.00 47.31    -0.080 Cl
HETATM   14  C11   D T 801       3.886   3.409  -4.658  1.00 49.51     0.059 A 
HETATM   15  C12   D T 801       5.063   4.124  -5.064  1.00 49.76     0.013 A 
HETATM   16 CL15   D T 801       2.667   4.248  -3.772  1.00 51.18    -0.082 Cl
HETATM   17  C13   D T 801       6.056   3.440  -5.787  1.00 48.54     0.026 A 
ENDBRANCH   1  10
TORSDOF 2
ENDMDL
MODEL 4
REMARK VINA RESULT:    -7.596      1.140      5.934
REMARK INTER + INTRA:          -8.911
REMARK INTER:                  -8.576
REMARK INTRA:                  -0.335
REMARK UNBOUND:                -0.427
REMARK  2 active torsions:
REMARK  status: ('A' for Active; 'I' for Inactive)
REMARK    1  A    between atoms: C5_4  and  O7_13 
REMARK    2  A    between atoms: C8_10  and  O7_13 
ROOT
HETATM    1  O7    D T 801       6.196   0.919  -7.407  1.00 44.91    -0.304 OA
ENDROOT
BRANCH   1   2
HETATM    2  C5    D T 801       6.607   1.242  -8.678  1.00 45.35     0.125 A 
HETATM    3  C6    D T 801       5.633   1.200  -9.714  1.00 44.30     0.154 A 
HETATM    4  C1    D T 801       6.046   1.520 -11.060  1.00 43.93     0.041 A 
HETATM    5  O17   D T 801       4.347   0.863  -9.467  1.00 43.09    -0.188 OA
HETATM    6  C2    D T 801       7.420   1.864 -11.273  1.00 44.08     0.060 A 
HETATM    7  C3    D T 801       8.410   1.912 -10.251  1.00 44.17     0.014 A 
HETATM    8 CL14   D T 801       7.921   2.242 -12.878  1.00 45.88    -0.082 Cl
HETATM    9  C4    D T 801       7.983   1.594  -8.933  1.00 45.15     0.028 A 
ENDBRANCH   1   2
BRANCH   1  10
HETATM   10  C8    D T 801       5.438   1.738  -6.576  1.00 47.49     0.111 A 
HETATM   11  C9    D T 801       4.303   1.157  -5.895  1.00 48.15     0.081 A 
HETATM   12  C10   D T 801       3.492   1.951  -5.031  1.00 48.95     0.025 A 
HETATM   13 CL16   D T 801       3.876  -0.540  -6.101  1.00 47.31    -0.080 Cl
HETATM   14  C11   D T 801       3.819   3.344  -4.848  1.00 49.51     0.059 A 
HETATM   15  C12   D T 801       4.940   3.942  -5.514  1.00 49.76     0.013 A 
HETATM   16 CL15   D T 801       2.850   4.322  -3.808  1.00 51.18    -0.082 Cl
HETATM   17  C13   D T 801       5.730   3.145  -6.362  1.00 48.54     0.026 A 
ENDBRANCH   1  10
TORSDOF 2
ENDMDL
MODEL 5
REMARK VINA RESULT:    -7.472      2.426      2.998
REMARK INTER + INTRA:          -8.773
REMARK INTER:                  -8.317
REMARK INTRA:                  -0.456
REMARK UNBOUND:                -0.427
REMARK  2 active torsions:
REMARK  status: ('A' for Active; 'I' for Inactive)
REMARK    1  A    between atoms: C5_4  and  O7_13 
REMARK    2  A    between atoms: C8_10  and  O7_13 
ROOT
HETATM    1  O7    D T 801       6.522   3.358  -6.898  1.00 44.91    -0.304 OA
ENDROOT
BRANCH   1   2
HETATM    2  C5    D T 801       5.820   2.564  -6.024  1.00 45.35     0.125 A 
HETATM    3  C6    D T 801       4.688   3.138  -5.379  1.00 44.30     0.154 A 
HETATM    4  C1    D T 801       3.945   2.328  -4.444  1.00 43.93     0.041 A 
HETATM    5  O17   D T 801       4.306   4.414  -5.618  1.00 43.09    -0.188 OA
HETATM    6  C2    D T 801       4.393   0.987  -4.219  1.00 44.08     0.060 A 
HETATM    7  C3    D T 801       5.522   0.394  -4.853  1.00 44.17     0.014 A 
HETATM    8 CL14   D T 801       3.514   0.015  -3.100  1.00 45.88    -0.082 Cl
HETATM    9  C4    D T 801       6.240   1.207  -5.770  1.00 45.15     0.028 A 
ENDBRANCH   1   2
BRANCH   1  10
HETATM   10  C8    D T 801       6.787   3.047  -8.229  1.00 47.49     0.111 A 
HETATM   11  C9    D T 801       8.107   2.564  -8.567  1.00 48.15     0.081 A 
HETATM   12  C10   D T 801       8.432   2.231  -9.915  1.00 48.95     0.025 A 
HETATM   13 CL16   D T 801       9.359   2.370  -7.342  1.00 47.31    -0.080 Cl
HETATM   14  C11   D T 801       7.426   2.384 -10.937  1.00 49.51     0.059 A 
HETATM   15  C12   D T 801       6.110   2.861 -10.624  1.00 49.76     0.013 A 
HETATM   16 CL15   D T 801       7.799   1.986 -12.574  1.00 51.18    -0.082 Cl
HETATM   17  C13   D T 801       5.806   3.186  -9.290  1.00 48.54     0.026 A 
ENDBRANCH   1  10
TORSDOF 2
ENDMDL
MODEL 6
REMARK VINA RESULT:    -7.370      2.146      6.214
REMARK INTER + INTRA:          -8.658
REMARK INTER:                  -8.186
REMARK INTRA:                  -0.472
REMARK UNBOUND:                -0.427
REMARK  2 active torsions:
REMARK  status: ('A' for Active; 'I' for Inactive)
REMARK    1  A    between atoms: C5_4  and  O7_13 
REMARK    2  A    between atoms: C8_10  and  O7_13 
ROOT
HETATM    1  O7    D T 801       6.661   3.265  -6.952  1.00 44.91    -0.304 OA
ENDROOT
BRANCH   1   2
HETATM    2  C5    D T 801       6.886   2.963  -8.274  1.00 45.35     0.125 A 
HETATM    3  C6    D T 801       8.179   2.485  -8.628  1.00 44.30     0.154 A 
HETATM    4  C1    D T 801       8.443   2.177 -10.013  1.00 43.93     0.041 A 
HETATM    5  O17   D T 801       9.154   2.323  -7.704  1.00 43.09    -0.188 OA
HETATM    6  C2    D T 801       7.381   2.373 -10.954  1.00 44.08     0.060 A 
HETATM    7  C3    D T 801       6.082   2.849 -10.621  1.00 44.17     0.014 A 
HETATM    8 CL14   D T 801       7.691   2.013 -12.611  1.00 45.88    -0.082 Cl
HETATM    9  C4    D T 801       5.842   3.147  -9.253  1.00 45.15     0.028 A 
ENDBRANCH   1   2
BRANCH   1  10
HETATM   10  C8    D T 801       5.946   2.472  -6.058  1.00 47.49     0.111 A 
HETATM   11  C9    D T 801       4.777   3.040  -5.426  1.00 48.15     0.081 A 
HETATM   12  C10   D T 801       4.008   2.272  -4.503  1.00 48.95     0.025 A 
HETATM   13 CL16   D T 801       4.257   4.689  -5.765  1.00 47.31    -0.080 Cl
HETATM   14  C11   D T 801       4.415   0.920  -4.206  1.00 49.51     0.059 A 
HETATM   15  C12   D T 801       5.572   0.336  -4.822  1.00 49.76     0.013 A 
HETATM   16 CL15   D T 801       3.499  -0.026  -3.092  1.00 51.18    -0.082 Cl
HETATM   17  C13   D T 801       6.319   1.107  -5.730  1.00 48.54     0.026 A 
ENDBRANCH   1  10
TORSDOF 2
ENDMDL
MODEL 7
REMARK VINA RESULT:    -7.267      9.295     11.616
REMARK INTER + INTRA:          -8.544
REMARK INTER:                  -8.072
REMARK INTRA:                  -0.472
REMARK UNBOUND:                -0.427
REMARK  2 active torsions:
REMARK  status: ('A' for Active; 'I' for Inactive)
REMARK    1  A    between atoms: C5_4  and  O7_13 
REMARK    2  A    between atoms: C8_10  and  O7_13 
ROOT
HETATM    1  O7    D T 801       6.508   5.959   3.145  1.00 44.91    -0.304 OA
ENDROOT
BRANCH   1   2
HETATM    2  C5    D T 801       7.247   4.887   3.583  1.00 45.35     0.125 A 
HETATM    3  C6    D T 801       6.603   3.954   4.445  1.00 44.30     0.154 A 
HETATM    4  C1    D T 801       7.365   2.828   4.931  1.00 43.93     0.041 A 
HETATM    5  O17   D T 801       5.312   4.105   4.817  1.00 43.09    -0.188 OA
HETATM    6  C2    D T 801       8.731   2.716   4.515  1.00 44.08     0.060 A 
HETATM    7  C3    D T 801       9.393   3.637   3.654  1.00 44.17     0.014 A 
HETATM    8 CL14   D T 801       9.648   1.378   5.096  1.00 45.88    -0.082 Cl
HETATM    9  C4    D T 801       8.626   4.738   3.186  1.00 45.15     0.028 A 
ENDBRANCH   1   2
BRANCH   1  10
HETATM   10  C8    D T 801       6.363   6.344   1.815  1.00 47.49     0.111 A 
HETATM   11  C9    D T 801       6.950   7.598   1.399  1.00 48.15     0.081 A 
HETATM   12  C10   D T 801       6.832   8.039   0.049  1.00 48.95     0.025 A 
HETATM   13 CL16   D T 801       7.827   8.624   2.532  1.00 47.31    -0.080 Cl
HETATM   14  C11   D T 801       6.117   7.219  -0.897  1.00 49.51     0.059 A 
HETATM   15  C12   D T 801       5.526   5.971  -0.507  1.00 49.76     0.013 A 
HETATM   16 CL15   D T 801       5.962   7.736  -2.536  1.00 51.18    -0.082 Cl
HETATM   17  C13   D T 801       5.652   5.550   0.829  1.00 48.54     0.026 A 
ENDBRANCH   1  10
TORSDOF 2
ENDMDL
MODEL 8
REMARK VINA RESULT:    -7.001      2.709      3.519
REMARK INTER + INTRA:          -8.247
REMARK INTER:                  -7.871
REMARK INTRA:                  -0.376
REMARK UNBOUND:                -0.427
REMARK  2 active torsions:
REMARK  status: ('A' for Active; 'I' for Inactive)
REMARK    1  A    between atoms: C5_4  and  O7_13 
REMARK    2  A    between atoms: C8_10  and  O7_13 
ROOT
HETATM    1  O7    D T 801       3.992   2.555  -5.362  1.00 44.91    -0.304 OA
ENDROOT
BRANCH   1   2
HETATM    2  C5    D T 801       4.432   3.262  -4.268  1.00 45.35     0.125 A 
HETATM    3  C6    D T 801       4.244   4.673  -4.279  1.00 44.30     0.154 A 
HETATM    4  C1    D T 801       4.713   5.437  -3.148  1.00 43.93     0.041 A 
HETATM    5  O17   D T 801       3.650   5.302  -5.318  1.00 43.09    -0.188 OA
HETATM    6  C2    D T 801       5.343   4.727  -2.076  1.00 44.08     0.060 A 
HETATM    7  C3    D T 801       5.540   3.317  -2.046  1.00 44.17     0.014 A 
HETATM    8 CL14   D T 801       5.909   5.634  -0.725  1.00 45.88    -0.082 Cl
HETATM    9  C4    D T 801       5.072   2.582  -3.168  1.00 45.15     0.028 A 
ENDBRANCH   1   2
BRANCH   1  10
HETATM   10  C8    D T 801       4.781   2.182  -6.447  1.00 47.49     0.111 A 
HETATM   11  C9    D T 801       4.264   1.183  -7.355  1.00 48.15     0.081 A 
HETATM   12  C10   D T 801       5.031   0.765  -8.482  1.00 48.95     0.025 A 
HETATM   13 CL16   D T 801       2.683   0.445  -7.110  1.00 47.31    -0.080 Cl
HETATM   14  C11   D T 801       6.330   1.351  -8.703  1.00 49.51     0.059 A 
HETATM   15  C12   D T 801       6.862   2.344  -7.815  1.00 49.76     0.013 A 
HETATM   16 CL15   D T 801       7.273   0.858 -10.061  1.00 51.18    -0.082 Cl
HETATM   17  C13   D T 801       6.093   2.745  -6.707  1.00 48.54     0.026 A 
ENDBRANCH   1  10
TORSDOF 2
ENDMDL
MODEL 9
REMARK VINA RESULT:    -6.987      2.090      2.548
REMARK INTER + INTRA:          -8.231
REMARK INTER:                  -7.874
REMARK INTRA:                  -0.357
REMARK UNBOUND:                -0.427
REMARK  2 active torsions:
REMARK  status: ('A' for Active; 'I' for Inactive)
REMARK    1  A    between atoms: C5_4  and  O7_13 
REMARK    2  A    between atoms: C8_10  and  O7_13 
ROOT
HETATM    1  O7    D T 801       4.169   2.212  -6.233  1.00 44.91    -0.304 OA
ENDROOT
BRANCH   1   2
HETATM    2  C5    D T 801       4.448   2.938  -5.100  1.00 45.35     0.125 A 
HETATM    3  C6    D T 801       4.924   2.226  -3.964  1.00 44.30     0.154 A 
HETATM    4  C1    D T 801       5.209   2.966  -2.757  1.00 43.93     0.041 A 
HETATM    5  O17   D T 801       5.105   0.886  -3.990  1.00 43.09    -0.188 OA
HETATM    6  C2    D T 801       4.994   4.382  -2.776  1.00 44.08     0.060 A 
HETATM    7  C3    D T 801       4.519   5.113  -3.902  1.00 44.17     0.014 A 
HETATM    8 CL14   D T 801       5.326   5.271  -1.338  1.00 45.88    -0.082 Cl
HETATM    9  C4    D T 801       4.245   4.367  -5.080  1.00 45.15     0.028 A 
ENDBRANCH   1   2
BRANCH   1  10
HETATM   10  C8    D T 801       5.045   2.016  -7.297  1.00 47.49     0.111 A 
HETATM   11  C9    D T 801       5.314   0.660  -7.719  1.00 48.15     0.081 A 
HETATM   12  C10   D T 801       6.203   0.403  -8.804  1.00 48.95     0.025 A 
HETATM   13 CL16   D T 801       4.564  -0.719  -6.919  1.00 47.31    -0.080 Cl
HETATM   14  C11   D T 801       6.832   1.514  -9.474  1.00 49.51     0.059 A 
HETATM   15  C12   D T 801       6.580   2.868  -9.072  1.00 49.76     0.013 A 
HETATM   16 CL15   D T 801       7.911   1.224 -10.788  1.00 51.18    -0.082 Cl
HETATM   17  C13   D T 801       5.700   3.105  -8.000  1.00 48.54     0.026 A 
ENDBRANCH   1  10
TORSDOF 2
ENDMDL
