MODEL 1
REMARK VINA RESULT:    -7.792      0.000      0.000
REMARK INTER + INTRA:          -9.122
REMARK INTER:                  -8.703
REMARK INTRA:                  -0.418
REMARK UNBOUND:                -0.418
REMARK  2 active torsions:
REMARK  status: ('A' for Active; 'I' for Inactive)
REMARK    1  A    between atoms: C5_4  and  O7_13 
REMARK    2  A    between atoms: C8_10  and  O7_13 
ROOT
HETATM    1  O7    D T 801       5.721   0.184  -7.665  1.00 44.91    -0.304 OA
ENDROOT
BRANCH   1   2
HETATM    2  C5    D T 801       4.999   1.029  -6.857  1.00 45.35     0.125 A 
HETATM    3  C6    D T 801       4.016   0.445  -6.008  1.00 44.30     0.154 A 
HETATM    4  C1    D T 801       3.235   1.315  -5.161  1.00 43.93     0.041 A 
HETATM    5  O17   D T 801       3.800  -0.890  -5.985  1.00 43.09    -0.188 OA
HETATM    6  C2    D T 801       3.495   2.721  -5.227  1.00 44.08     0.060 A 
HETATM    7  C3    D T 801       4.473   3.324  -6.067  1.00 44.17     0.014 A 
HETATM    8 CL14   D T 801       2.562   3.765  -4.223  1.00 45.88    -0.082 Cl
HETATM    9  C4    D T 801       5.233   2.453  -6.892  1.00 45.15     0.028 A 
ENDBRANCH   1   2
BRANCH   1  10
HETATM   10  C8    D T 801       6.172   0.489  -8.947  1.00 47.49     0.111 A 
HETATM   11  C9    D T 801       5.213   0.478 -10.027  1.00 48.15     0.081 A 
HETATM   12  C10   D T 801       5.620   0.785 -11.359  1.00 48.95     0.025 A 
HETATM   13 CL16   D T 801       3.516   0.093  -9.750  1.00 47.31    -0.080 Cl
HETATM   14  C11   D T 801       7.003   1.101 -11.614  1.00 49.51     0.059 A 
HETATM   15  C12   D T 801       7.973   1.115 -10.556  1.00 49.76     0.013 A 
HETATM   16 CL15   D T 801       7.518   1.473 -13.219  1.00 51.18    -0.082 Cl
HETATM   17  C13   D T 801       7.554   0.812  -9.248  1.00 48.54     0.026 A 
ENDBRANCH   1  10
TORSDOF 2
ENDMDL
MODEL 2
REMARK VINA RESULT:    -7.623      1.249      5.978
REMARK INTER + INTRA:          -8.932
REMARK INTER:                  -8.600
REMARK INTRA:                  -0.332
REMARK UNBOUND:                -0.418
REMARK  2 active torsions:
REMARK  status: ('A' for Active; 'I' for Inactive)
REMARK    1  A    between atoms: C5_4  and  O7_13 
REMARK    2  A    between atoms: C8_10  and  O7_13 
ROOT
HETATM    1  O7    D T 801       5.761   0.501  -7.650  1.00 44.91    -0.304 OA
ENDROOT
BRANCH   1   2
HETATM    2  C5    D T 801       6.196   0.754  -8.929  1.00 45.35     0.125 A 
HETATM    3  C6    D T 801       5.253   0.601  -9.985  1.00 44.30     0.154 A 
HETATM    4  C1    D T 801       5.691   0.846 -11.338  1.00 43.93     0.041 A 
HETATM    5  O17   D T 801       3.974   0.230  -9.747  1.00 43.09    -0.188 OA
HETATM    6  C2    D T 801       7.056   1.229 -11.539  1.00 44.08     0.060 A 
HETATM    7  C3    D T 801       8.013   1.388 -10.498  1.00 44.17     0.014 A 
HETATM    8 CL14   D T 801       7.586   1.518 -13.153  1.00 45.88    -0.082 Cl
HETATM    9  C4    D T 801       7.564   1.144  -9.173  1.00 45.15     0.028 A 
ENDBRANCH   1   2
BRANCH   1  10
HETATM   10  C8    D T 801       5.032   1.386  -6.859  1.00 47.49     0.111 A 
HETATM   11  C9    D T 801       4.055   0.838  -5.946  1.00 48.15     0.081 A 
HETATM   12  C10   D T 801       3.282   1.699  -5.113  1.00 48.95     0.025 A 
HETATM   13 CL16   D T 801       3.782  -0.898  -5.821  1.00 47.31    -0.080 Cl
HETATM   14  C11   D T 801       3.484   3.124  -5.197  1.00 49.51     0.059 A 
HETATM   15  C12   D T 801       4.447   3.690  -6.100  1.00 49.76     0.013 A 
HETATM   16 CL15   D T 801       2.558   4.184  -4.199  1.00 51.18    -0.082 Cl
HETATM   17  C13   D T 801       5.202   2.826  -6.913  1.00 48.54     0.026 A 
ENDBRANCH   1  10
TORSDOF 2
ENDMDL
MODEL 3
REMARK VINA RESULT:    -7.513      1.475      1.910
REMARK INTER + INTRA:          -8.809
REMARK INTER:                  -8.396
REMARK INTRA:                  -0.413
REMARK UNBOUND:                -0.418
REMARK  2 active torsions:
REMARK  status: ('A' for Active; 'I' for Inactive)
REMARK    1  A    between atoms: C5_4  and  O7_13 
REMARK    2  A    between atoms: C8_10  and  O7_13 
ROOT
HETATM    1  O7    D T 801       5.349   0.536  -7.234  1.00 44.91    -0.304 OA
ENDROOT
BRANCH   1   2
HETATM    2  C5    D T 801       4.719   1.484  -6.462  1.00 45.35     0.125 A 
HETATM    3  C6    D T 801       3.900   1.022  -5.393  1.00 44.30     0.154 A 
HETATM    4  C1    D T 801       3.217   1.999  -4.579  1.00 43.93     0.041 A 
HETATM    5  O17   D T 801       3.749  -0.297  -5.133  1.00 43.09    -0.188 OA
HETATM    6  C2    D T 801       3.403   3.382  -4.899  1.00 44.08     0.060 A 
HETATM    7  C3    D T 801       4.217   3.864  -5.962  1.00 44.17     0.014 A 
HETATM    8 CL14   D T 801       2.585   4.553  -3.934  1.00 45.88    -0.082 Cl
HETATM    9  C4    D T 801       4.882   2.889  -6.751  1.00 45.15     0.028 A 
ENDBRANCH   1   2
BRANCH   1  10
HETATM   10  C8    D T 801       5.789   0.728  -8.541  1.00 47.49     0.111 A 
HETATM   11  C9    D T 801       7.185   1.036  -8.752  1.00 48.15     0.081 A 
HETATM   12  C10   D T 801       7.689   1.241 -10.070  1.00 48.95     0.025 A 
HETATM   13 CL16   D T 801       8.313   1.169  -7.405  1.00 47.31    -0.080 Cl
HETATM   14  C11   D T 801       6.787   1.141 -11.189  1.00 49.51     0.059 A 
HETATM   15  C12   D T 801       5.396   0.838 -11.002  1.00 49.76     0.013 A 
HETATM   16 CL15   D T 801       7.376   1.387 -12.792  1.00 51.18    -0.082 Cl
HETATM   17  C13   D T 801       4.915   0.638  -9.696  1.00 48.54     0.026 A 
ENDBRANCH   1  10
TORSDOF 2
ENDMDL
MODEL 4
REMARK VINA RESULT:    -7.280      2.504      3.084
REMARK INTER + INTRA:          -8.549
REMARK INTER:                  -8.145
REMARK INTRA:                  -0.404
REMARK UNBOUND:                -0.418
REMARK  2 active torsions:
REMARK  status: ('A' for Active; 'I' for Inactive)
REMARK    1  A    between atoms: C5_4  and  O7_13 
REMARK    2  A    between atoms: C8_10  and  O7_13 
ROOT
HETATM    1  O7    D T 801       5.285   3.321  -7.414  1.00 44.91    -0.304 OA
ENDROOT
BRANCH   1   2
HETATM    2  C5    D T 801       4.754   2.554  -6.405  1.00 45.35     0.125 A 
HETATM    3  C6    D T 801       4.799   3.084  -5.084  1.00 44.30     0.154 A 
HETATM    4  C1    D T 801       4.262   2.289  -4.005  1.00 43.93     0.041 A 
HETATM    5  O17   D T 801       5.335   4.298  -4.825  1.00 43.09    -0.188 OA
HETATM    6  C2    D T 801       3.713   1.008  -4.330  1.00 44.08     0.060 A 
HETATM    7  C3    D T 801       3.657   0.460  -5.642  1.00 44.17     0.014 A 
HETATM    8 CL14   D T 801       3.074   0.051  -3.046  1.00 45.88    -0.082 Cl
HETATM    9  C4    D T 801       4.190   1.256  -6.691  1.00 45.15     0.028 A 
ENDBRANCH   1   2
BRANCH   1  10
HETATM   10  C8    D T 801       5.790   2.829  -8.615  1.00 47.49     0.111 A 
HETATM   11  C9    D T 801       7.156   2.359  -8.639  1.00 48.15     0.081 A 
HETATM   12  C10   D T 801       7.723   1.844  -9.842  1.00 48.95     0.025 A 
HETATM   13 CL16   D T 801       8.169   2.399  -7.198  1.00 47.31    -0.080 Cl
HETATM   14  C11   D T 801       6.916   1.803 -11.036  1.00 49.51     0.059 A 
HETATM   15  C12   D T 801       5.557   2.267 -11.035  1.00 49.76     0.013 A 
HETATM   16 CL15   D T 801       7.583   1.186 -12.503  1.00 51.18    -0.082 Cl
HETATM   17  C13   D T 801       5.013   2.770  -9.840  1.00 48.54     0.026 A 
ENDBRANCH   1  10
TORSDOF 2
ENDMDL
MODEL 5
REMARK VINA RESULT:    -7.181      2.335      6.363
REMARK INTER + INTRA:          -8.438
REMARK INTER:                  -7.949
REMARK INTRA:                  -0.490
REMARK UNBOUND:                -0.418
REMARK  2 active torsions:
REMARK  status: ('A' for Active; 'I' for Inactive)
REMARK    1  A    between atoms: C5_4  and  O7_13 
REMARK    2  A    between atoms: C8_10  and  O7_13 
ROOT
HETATM    1  O7    D T 801       4.187   1.826  -7.186  1.00 44.91    -0.304 OA
ENDROOT
BRANCH   1   2
HETATM    2  C5    D T 801       5.089   1.519  -8.175  1.00 45.35     0.125 A 
HETATM    3  C6    D T 801       5.328   2.504  -9.176  1.00 44.30     0.154 A 
HETATM    4  C1    D T 801       6.261   2.197 -10.234  1.00 43.93     0.041 A 
HETATM    5  O17   D T 801       4.701   3.703  -9.155  1.00 43.09    -0.188 OA
HETATM    6  C2    D T 801       6.893   0.913 -10.215  1.00 44.08     0.060 A 
HETATM    7  C3    D T 801       6.668  -0.085  -9.225  1.00 44.17     0.014 A 
HETATM    8 CL14   D T 801       8.003   0.538 -11.479  1.00 45.88    -0.082 Cl
HETATM    9  C4    D T 801       5.748   0.235  -8.192  1.00 45.15     0.028 A 
ENDBRANCH   1   2
BRANCH   1  10
HETATM   10  C8    D T 801       4.516   2.283  -5.912  1.00 47.49     0.111 A 
HETATM   11  C9    D T 801       4.433   1.351  -4.811  1.00 48.15     0.081 A 
HETATM   12  C10   D T 801       4.760   1.766  -3.486  1.00 48.95     0.025 A 
HETATM   13 CL16   D T 801       3.931  -0.320  -5.054  1.00 47.31    -0.080 Cl
HETATM   14  C11   D T 801       5.171   3.129  -3.260  1.00 49.51     0.059 A 
HETATM   15  C12   D T 801       5.258   4.072  -4.339  1.00 49.76     0.013 A 
HETATM   16 CL15   D T 801       5.569   3.653  -1.664  1.00 51.18    -0.082 Cl
HETATM   17  C13   D T 801       4.933   3.646  -5.639  1.00 48.54     0.026 A 
ENDBRANCH   1  10
TORSDOF 2
ENDMDL
MODEL 6
REMARK VINA RESULT:    -7.049      2.205      2.926
REMARK INTER + INTRA:          -8.292
REMARK INTER:                  -7.804
REMARK INTRA:                  -0.487
REMARK UNBOUND:                -0.418
REMARK  2 active torsions:
REMARK  status: ('A' for Active; 'I' for Inactive)
REMARK    1  A    between atoms: C5_4  and  O7_13 
REMARK    2  A    between atoms: C8_10  and  O7_13 
ROOT
HETATM    1  O7    D T 801       5.243   0.888  -5.163  1.00 44.91    -0.304 OA
ENDROOT
BRANCH   1   2
HETATM    2  C5    D T 801       4.657   2.022  -4.654  1.00 45.35     0.125 A 
HETATM    3  C6    D T 801       5.453   2.852  -3.812  1.00 44.30     0.154 A 
HETATM    4  C1    D T 801       4.853   4.040  -3.254  1.00 43.93     0.041 A 
HETATM    5  O17   D T 801       6.739   2.547  -3.527  1.00 43.09    -0.188 OA
HETATM    6  C2    D T 801       3.487   4.315  -3.580  1.00 44.08     0.060 A 
HETATM    7  C3    D T 801       2.675   3.500  -4.419  1.00 44.17     0.014 A 
HETATM    8 CL14   D T 801       2.764   5.730  -2.912  1.00 45.88    -0.082 Cl
HETATM    9  C4    D T 801       3.282   2.336  -4.960  1.00 45.15     0.028 A 
ENDBRANCH   1   2
BRANCH   1  10
HETATM   10  C8    D T 801       5.764   0.761  -6.448  1.00 47.49     0.111 A 
HETATM   11  C9    D T 801       4.967   0.080  -7.442  1.00 48.15     0.081 A 
HETATM   12  C10   D T 801       5.451  -0.078  -8.774  1.00 48.95     0.025 A 
HETATM   13 CL16   D T 801       3.377  -0.577  -7.058  1.00 47.31    -0.080 Cl
HETATM   14  C11   D T 801       6.749   0.448  -9.114  1.00 49.51     0.059 A 
HETATM   15  C12   D T 801       7.560   1.126  -8.142  1.00 49.76     0.013 A 
HETATM   16 CL15   D T 801       7.356   0.267 -10.720  1.00 51.18    -0.082 Cl
HETATM   17  C13   D T 801       7.066   1.273  -6.833  1.00 48.54     0.026 A 
ENDBRANCH   1  10
TORSDOF 2
ENDMDL
MODEL 7
REMARK VINA RESULT:    -7.042      2.251      2.565
REMARK INTER + INTRA:          -8.283
REMARK INTER:                  -7.811
REMARK INTRA:                  -0.472
REMARK UNBOUND:                -0.418
REMARK  2 active torsions:
REMARK  status: ('A' for Active; 'I' for Inactive)
REMARK    1  A    between atoms: C5_4  and  O7_13 
REMARK    2  A    between atoms: C8_10  and  O7_13 
ROOT
HETATM    1  O7    D T 801       4.088   1.903  -6.753  1.00 44.91    -0.304 OA
ENDROOT
BRANCH   1   2
HETATM    2  C5    D T 801       4.457   2.348  -5.506  1.00 45.35     0.125 A 
HETATM    3  C6    D T 801       4.415   1.410  -4.435  1.00 44.30     0.154 A 
HETATM    4  C1    D T 801       4.783   1.859  -3.114  1.00 43.93     0.041 A 
HETATM    5  O17   D T 801       4.036   0.127  -4.631  1.00 43.09    -0.188 OA
HETATM    6  C2    D T 801       5.169   3.228  -2.957  1.00 44.08     0.060 A 
HETATM    7  C3    D T 801       5.218   4.181  -4.013  1.00 44.17     0.014 A 
HETATM    8 CL14   D T 801       5.604   3.772  -1.381  1.00 45.88    -0.082 Cl
HETATM    9  C4    D T 801       4.854   3.722  -5.307  1.00 45.15     0.028 A 
ENDBRANCH   1   2
BRANCH   1  10
HETATM   10  C8    D T 801       4.969   1.540  -7.769  1.00 47.49     0.111 A 
HETATM   11  C9    D T 801       5.250   2.506  -8.806  1.00 48.15     0.081 A 
HETATM   12  C10   D T 801       6.145   2.186  -9.869  1.00 48.95     0.025 A 
HETATM   13 CL16   D T 801       4.509   4.105  -8.802  1.00 47.31    -0.080 Cl
HETATM   14  C11   D T 801       6.763   0.884  -9.897  1.00 49.51     0.059 A 
HETATM   15  C12   D T 801       6.496  -0.092  -8.878  1.00 49.76     0.013 A 
HETATM   16 CL15   D T 801       7.848   0.475 -11.176  1.00 51.18    -0.082 Cl
HETATM   17  C13   D T 801       5.612   0.240  -7.837  1.00 48.54     0.026 A 
ENDBRANCH   1  10
TORSDOF 2
ENDMDL
MODEL 8
REMARK VINA RESULT:    -6.968     10.124     11.721
REMARK INTER + INTRA:          -8.201
REMARK INTER:                  -7.773
REMARK INTRA:                  -0.428
REMARK UNBOUND:                -0.418
REMARK  2 active torsions:
REMARK  status: ('A' for Active; 'I' for Inactive)
REMARK    1  A    between atoms: C5_4  and  O7_13 
REMARK    2  A    between atoms: C8_10  and  O7_13 
ROOT
HETATM    1  O7    D T 801       6.523   7.639   2.049  1.00 44.91    -0.304 OA
ENDROOT
BRANCH   1   2
HETATM    2  C5    D T 801       6.712   6.382   2.572  1.00 45.35     0.125 A 
HETATM    3  C6    D T 801       5.686   5.858   3.409  1.00 44.30     0.154 A 
HETATM    4  C1    D T 801       5.869   4.546   3.982  1.00 43.93     0.041 A 
HETATM    5  O17   D T 801       4.561   6.560   3.678  1.00 43.09    -0.188 OA
HETATM    6  C2    D T 801       7.079   3.846   3.674  1.00 44.08     0.060 A 
HETATM    7  C3    D T 801       8.116   4.351   2.840  1.00 44.17     0.014 A 
HETATM    8 CL14   D T 801       7.307   2.282   4.360  1.00 45.88    -0.082 Cl
HETATM    9  C4    D T 801       7.918   5.643   2.284  1.00 45.15     0.028 A 
ENDBRANCH   1   2
BRANCH   1  10
HETATM   10  C8    D T 801       6.105   7.913   0.749  1.00 47.49     0.111 A 
HETATM   11  C9    D T 801       6.806   8.938   0.010  1.00 48.15     0.081 A 
HETATM   12  C10   D T 801       6.421   9.259  -1.325  1.00 48.95     0.025 A 
HETATM   13 CL16   D T 801       8.153   9.827   0.717  1.00 47.31    -0.080 Cl
HETATM   14  C11   D T 801       5.320   8.549  -1.927  1.00 49.51     0.059 A 
HETATM   15  C12   D T 801       4.609   7.528  -1.210  1.00 49.76     0.013 A 
HETATM   16 CL15   D T 801       4.836   8.922  -3.540  1.00 51.18    -0.082 Cl
HETATM   17  C13   D T 801       5.002   7.224   0.105  1.00 48.54     0.026 A 
ENDBRANCH   1  10
TORSDOF 2
ENDMDL
MODEL 9
REMARK VINA RESULT:    -6.844      9.372     12.337
REMARK INTER + INTRA:          -8.063
REMARK INTER:                  -7.692
REMARK INTRA:                  -0.371
REMARK UNBOUND:                -0.418
REMARK  2 active torsions:
REMARK  status: ('A' for Active; 'I' for Inactive)
REMARK    1  A    between atoms: C5_4  and  O7_13 
REMARK    2  A    between atoms: C8_10  and  O7_13 
ROOT
HETATM    1  O7    D T 801       7.877   6.685   1.525  1.00 44.91    -0.304 OA
ENDROOT
BRANCH   1   2
HETATM    2  C5    D T 801       7.119   7.065   0.443  1.00 45.35     0.125 A 
HETATM    3  C6    D T 801       6.787   8.445   0.326  1.00 44.30     0.154 A 
HETATM    4  C1    D T 801       5.980   8.865  -0.794  1.00 43.93     0.041 A 
HETATM    5  O17   D T 801       7.205   9.355   1.236  1.00 43.09    -0.188 OA
HETATM    6  C2    D T 801       5.557   7.863  -1.725  1.00 44.08     0.060 A 
HETATM    7  C3    D T 801       5.878   6.480  -1.627  1.00 44.17     0.014 A 
HETATM    8 CL14   D T 801       4.588   8.357  -3.062  1.00 45.88    -0.082 Cl
HETATM    9  C4    D T 801       6.674   6.085  -0.519  1.00 45.15     0.028 A 
ENDBRANCH   1   2
BRANCH   1  10
HETATM   10  C8    D T 801       7.510   5.724   2.464  1.00 47.49     0.111 A 
HETATM   11  C9    D T 801       8.531   4.827   2.956  1.00 48.15     0.081 A 
HETATM   12  C10   D T 801       8.211   3.825   3.919  1.00 48.95     0.025 A 
HETATM   13 CL16   D T 801      10.198   4.933   2.396  1.00 47.31    -0.080 Cl
HETATM   14  C11   D T 801       6.854   3.716   4.392  1.00 49.51     0.059 A 
HETATM   15  C12   D T 801       5.823   4.595   3.915  1.00 49.76     0.013 A 
HETATM   16 CL15   D T 801       6.443   2.509   5.555  1.00 51.18    -0.082 Cl
HETATM   17  C13   D T 801       6.157   5.578   2.966  1.00 48.54     0.026 A 
ENDBRANCH   1  10
TORSDOF 2
ENDMDL
