MODEL 1
REMARK VINA RESULT:    -7.556      0.000      0.000
REMARK INTER + INTRA:          -8.873
REMARK INTER:                  -8.439
REMARK INTRA:                  -0.433
REMARK UNBOUND:                -0.433
REMARK  2 active torsions:
REMARK  status: ('A' for Active; 'I' for Inactive)
REMARK    1  A    between atoms: C5_4  and  O7_13 
REMARK    2  A    between atoms: C8_10  and  O7_13 
ROOT
HETATM    1  O7    D T 801       4.632   0.784  -7.957  1.00 44.91    -0.304 OA
ENDROOT
BRANCH   1   2
HETATM    2  C5    D T 801       3.848   1.527  -7.108  1.00 45.35     0.125 A 
HETATM    3  C6    D T 801       2.971   0.820  -6.236  1.00 44.30     0.154 A 
HETATM    4  C1    D T 801       2.125   1.581  -5.347  1.00 43.93     0.041 A 
HETATM    5  O17   D T 801       2.912  -0.531  -6.231  1.00 43.09    -0.188 OA
HETATM    6  C2    D T 801       2.218   3.008  -5.395  1.00 44.08     0.060 A 
HETATM    7  C3    D T 801       3.087   3.734  -6.259  1.00 44.17     0.014 A 
HETATM    8 CL14   D T 801       1.207   3.923  -4.340  1.00 45.88    -0.082 Cl
HETATM    9  C4    D T 801       3.911   2.969  -7.126  1.00 45.15     0.028 A 
ENDBRANCH   1   2
BRANCH   1  10
HETATM   10  C8    D T 801       4.927   1.117  -9.276  1.00 47.49     0.111 A 
HETATM   11  C9    D T 801       3.908   0.905 -10.278  1.00 48.15     0.081 A 
HETATM   12  C10   D T 801       4.157   1.229 -11.644  1.00 48.95     0.025 A 
HETATM   13 CL16   D T 801       2.328   0.243  -9.860  1.00 47.31    -0.080 Cl
HETATM   14  C11   D T 801       5.441   1.770 -12.013  1.00 49.51     0.059 A 
HETATM   15  C12   D T 801       6.468   1.988 -11.035  1.00 49.76     0.013 A 
HETATM   16 CL15   D T 801       5.764   2.169 -13.661  1.00 51.18    -0.082 Cl
HETATM   17  C13   D T 801       6.206   1.663  -9.692  1.00 48.54     0.026 A 
ENDBRANCH   1  10
TORSDOF 2
ENDMDL
MODEL 2
REMARK VINA RESULT:    -7.466      1.251      6.108
REMARK INTER + INTRA:          -8.772
REMARK INTER:                  -8.293
REMARK INTRA:                  -0.480
REMARK UNBOUND:                -0.433
REMARK  2 active torsions:
REMARK  status: ('A' for Active; 'I' for Inactive)
REMARK    1  A    between atoms: C5_4  and  O7_13 
REMARK    2  A    between atoms: C8_10  and  O7_13 
ROOT
HETATM    1  O7    D T 801       5.054   1.305  -7.718  1.00 44.91    -0.304 OA
ENDROOT
BRANCH   1   2
HETATM    2  C5    D T 801       5.186   1.472  -9.075  1.00 45.35     0.125 A 
HETATM    3  C6    D T 801       6.415   2.008  -9.555  1.00 44.30     0.154 A 
HETATM    4  C1    D T 801       6.570   2.207 -10.977  1.00 43.93     0.041 A 
HETATM    5  O17   D T 801       7.423   2.335  -8.714  1.00 43.09    -0.188 OA
HETATM    6  C2    D T 801       5.472   1.853 -11.824  1.00 44.08     0.060 A 
HETATM    7  C3    D T 801       4.236   1.317 -11.365  1.00 44.17     0.014 A 
HETATM    8 CL14   D T 801       5.648   2.095 -13.522  1.00 45.88    -0.082 Cl
HETATM    9  C4    D T 801       4.102   1.127  -9.965  1.00 45.15     0.028 A 
ENDBRANCH   1   2
BRANCH   1  10
HETATM   10  C8    D T 801       4.107   1.939  -6.919  1.00 47.49     0.111 A 
HETATM   11  C9    D T 801       3.134   1.122  -6.233  1.00 48.15     0.081 A 
HETATM   12  C10   D T 801       2.142   1.720  -5.402  1.00 48.95     0.025 A 
HETATM   13 CL16   D T 801       3.129  -0.635  -6.392  1.00 47.31    -0.080 Cl
HETATM   14  C11   D T 801       2.122   3.153  -5.255  1.00 49.51     0.059 A 
HETATM   15  C12   D T 801       3.078   3.986  -5.928  1.00 49.76     0.013 A 
HETATM   16 CL15   D T 801       0.930   3.898  -4.254  1.00 51.18    -0.082 Cl
HETATM   17  C13   D T 801       4.049   3.380  -6.744  1.00 48.54     0.026 A 
ENDBRANCH   1  10
TORSDOF 2
ENDMDL
MODEL 3
REMARK VINA RESULT:    -7.357      1.746      2.204
REMARK INTER + INTRA:          -8.651
REMARK INTER:                  -8.157
REMARK INTRA:                  -0.494
REMARK UNBOUND:                -0.433
REMARK  2 active torsions:
REMARK  status: ('A' for Active; 'I' for Inactive)
REMARK    1  A    between atoms: C5_4  and  O7_13 
REMARK    2  A    between atoms: C8_10  and  O7_13 
ROOT
HETATM    1  O7    D T 801       5.345   1.746  -6.944  1.00 44.91    -0.304 OA
ENDROOT
BRANCH   1   2
HETATM    2  C5    D T 801       4.281   2.249  -6.235  1.00 45.35     0.125 A 
HETATM    3  C6    D T 801       3.399   1.314  -5.622  1.00 44.30     0.154 A 
HETATM    4  C1    D T 801       2.265   1.820  -4.885  1.00 43.93     0.041 A 
HETATM    5  O17   D T 801       3.599  -0.020  -5.720  1.00 43.09    -0.188 OA
HETATM    6  C2    D T 801       2.093   3.239  -4.816  1.00 44.08     0.060 A 
HETATM    7  C3    D T 801       2.962   4.190  -5.422  1.00 44.17     0.014 A 
HETATM    8 CL14   D T 801       0.737   3.849  -3.944  1.00 45.88    -0.082 Cl
HETATM    9  C4    D T 801       4.072   3.674  -6.141  1.00 45.15     0.028 A 
ENDBRANCH   1   2
BRANCH   1  10
HETATM   10  C8    D T 801       5.448   1.724  -8.332  1.00 47.49     0.111 A 
HETATM   11  C9    D T 801       6.495   2.503  -8.952  1.00 48.15     0.081 A 
HETATM   12  C10   D T 801       6.645   2.516 -10.369  1.00 48.95     0.025 A 
HETATM   13 CL16   D T 801       7.621   3.463  -7.992  1.00 47.31    -0.080 Cl
HETATM   14  C11   D T 801       5.737   1.741 -11.177  1.00 49.51     0.059 A 
HETATM   15  C12   D T 801       4.689   0.961 -10.584  1.00 49.76     0.013 A 
HETATM   16 CL15   D T 801       5.900   1.743 -12.895  1.00 51.18    -0.082 Cl
HETATM   17  C13   D T 801       4.554   0.960  -9.184  1.00 48.54     0.026 A 
ENDBRANCH   1  10
TORSDOF 2
ENDMDL
MODEL 4
REMARK VINA RESULT:    -7.319      3.950      4.735
REMARK INTER + INTRA:          -8.609
REMARK INTER:                  -8.449
REMARK INTRA:                  -0.160
REMARK UNBOUND:                -0.433
REMARK  2 active torsions:
REMARK  status: ('A' for Active; 'I' for Inactive)
REMARK    1  A    between atoms: C5_4  and  O7_13 
REMARK    2  A    between atoms: C8_10  and  O7_13 
ROOT
HETATM    1  O7    D T 801       6.423   2.339  -7.668  1.00 44.91    -0.304 OA
ENDROOT
BRANCH   1   2
HETATM    2  C5    D T 801       7.589   2.229  -6.952  1.00 45.35     0.125 A 
HETATM    3  C6    D T 801       7.531   2.499  -5.554  1.00 44.30     0.154 A 
HETATM    4  C1    D T 801       8.749   2.405  -4.785  1.00 43.93     0.041 A 
HETATM    5  O17   D T 801       6.374   2.843  -4.946  1.00 43.09    -0.188 OA
HETATM    6  C2    D T 801       9.950   2.044  -5.476  1.00 44.08     0.060 A 
HETATM    7  C3    D T 801      10.030   1.771  -6.871  1.00 44.17     0.014 A 
HETATM    8 CL14   D T 801      11.409   1.936  -4.564  1.00 45.88    -0.082 Cl
HETATM    9  C4    D T 801       8.822   1.868  -7.611  1.00 45.15     0.028 A 
ENDBRANCH   1   2
BRANCH   1  10
HETATM   10  C8    D T 801       6.314   2.225  -9.051  1.00 47.49     0.111 A 
HETATM   11  C9    D T 801       5.503   1.156  -9.587  1.00 48.15     0.081 A 
HETATM   12  C10   D T 801       5.358   0.994 -10.995  1.00 48.95     0.025 A 
HETATM   13 CL16   D T 801       4.666   0.017  -8.532  1.00 47.31    -0.080 Cl
HETATM   14  C11   D T 801       6.033   1.910 -11.880  1.00 49.51     0.059 A 
HETATM   15  C12   D T 801       6.845   2.978 -11.371  1.00 49.76     0.013 A 
HETATM   16 CL15   D T 801       5.872   1.731 -13.589  1.00 51.18    -0.082 Cl
HETATM   17  C13   D T 801       6.978   3.124  -9.979  1.00 48.54     0.026 A 
ENDBRANCH   1  10
TORSDOF 2
ENDMDL
MODEL 5
REMARK VINA RESULT:    -7.236      9.051     11.580
REMARK INTER + INTRA:          -8.515
REMARK INTER:                  -8.163
REMARK INTRA:                  -0.352
REMARK UNBOUND:                -0.433
REMARK  2 active torsions:
REMARK  status: ('A' for Active; 'I' for Inactive)
REMARK    1  A    between atoms: C5_4  and  O7_13 
REMARK    2  A    between atoms: C8_10  and  O7_13 
ROOT
HETATM    1  O7    D T 801       4.973   5.485   1.867  1.00 44.91    -0.304 OA
ENDROOT
BRANCH   1   2
HETATM    2  C5    D T 801       6.209   5.174   2.378  1.00 45.35     0.125 A 
HETATM    3  C6    D T 801       6.253   4.543   3.654  1.00 44.30     0.154 A 
HETATM    4  C1    D T 801       7.543   4.221   4.218  1.00 43.93     0.041 A 
HETATM    5  O17   D T 801       5.125   4.249   4.340  1.00 43.09    -0.188 OA
HETATM    6  C2    D T 801       8.707   4.559   3.457  1.00 44.08     0.060 A 
HETATM    7  C3    D T 801       8.685   5.190   2.181  1.00 44.17     0.014 A 
HETATM    8 CL14   D T 801      10.250   4.183   4.128  1.00 45.88    -0.082 Cl
HETATM    9  C4    D T 801       7.408   5.498   1.642  1.00 45.15     0.028 A 
ENDBRANCH   1   2
BRANCH   1  10
HETATM   10  C8    D T 801       4.744   6.154   0.667  1.00 47.49     0.111 A 
HETATM   11  C9    D T 801       4.793   7.597   0.669  1.00 48.15     0.081 A 
HETATM   12  C10   D T 801       4.567   8.331  -0.532  1.00 48.95     0.025 A 
HETATM   13 CL16   D T 801       5.131   8.506   2.142  1.00 47.31    -0.080 Cl
HETATM   14  C11   D T 801       4.287   7.613  -1.750  1.00 49.51     0.059 A 
HETATM   15  C12   D T 801       4.232   6.179  -1.776  1.00 49.76     0.013 A 
HETATM   16 CL15   D T 801       4.009   8.482  -3.215  1.00 51.18    -0.082 Cl
HETATM   17  C13   D T 801       4.457   5.471  -0.582  1.00 48.54     0.026 A 
ENDBRANCH   1  10
TORSDOF 2
ENDMDL
MODEL 6
REMARK VINA RESULT:    -7.189      2.224      6.260
REMARK INTER + INTRA:          -8.462
REMARK INTER:                  -7.964
REMARK INTRA:                  -0.499
REMARK UNBOUND:                -0.433
REMARK  2 active torsions:
REMARK  status: ('A' for Active; 'I' for Inactive)
REMARK    1  A    between atoms: C5_4  and  O7_13 
REMARK    2  A    between atoms: C8_10  and  O7_13 
ROOT
HETATM    1  O7    D T 801       2.849   1.938  -7.702  1.00 44.91    -0.304 OA
ENDROOT
BRANCH   1   2
HETATM    2  C5    D T 801       3.671   1.790  -8.792  1.00 45.35     0.125 A 
HETATM    3  C6    D T 801       3.569   2.761  -9.829  1.00 44.30     0.154 A 
HETATM    4  C1    D T 801       4.412   2.616 -10.992  1.00 43.93     0.041 A 
HETATM    5  O17   D T 801       2.703   3.797  -9.748  1.00 43.09    -0.188 OA
HETATM    6  C2    D T 801       5.306   1.498 -11.033  1.00 44.08     0.060 A 
HETATM    7  C3    D T 801       5.423   0.517 -10.008  1.00 44.17     0.014 A 
HETATM    8 CL14   D T 801       6.311   1.316 -12.422  1.00 45.88    -0.082 Cl
HETATM    9  C4    D T 801       4.586   0.677  -8.873  1.00 45.15     0.028 A 
ENDBRANCH   1   2
BRANCH   1  10
HETATM   10  C8    D T 801       3.227   2.479  -6.476  1.00 47.49     0.111 A 
HETATM   11  C9    D T 801       3.436   1.577  -5.367  1.00 48.15     0.081 A 
HETATM   12  C10   D T 801       3.825   2.078  -4.090  1.00 48.95     0.025 A 
HETATM   13 CL16   D T 801       3.222  -0.165  -5.542  1.00 47.31    -0.080 Cl
HETATM   14  C11   D T 801       4.007   3.497  -3.920  1.00 49.51     0.059 A 
HETATM   15  C12   D T 801       3.803   4.412  -5.006  1.00 49.76     0.013 A 
HETATM   16 CL15   D T 801       4.476   4.125  -2.382  1.00 51.18    -0.082 Cl
HETATM   17  C13   D T 801       3.420   3.902  -6.259  1.00 48.54     0.026 A 
ENDBRANCH   1  10
TORSDOF 2
ENDMDL
MODEL 7
REMARK VINA RESULT:    -7.054      2.295      2.658
REMARK INTER + INTRA:          -8.313
REMARK INTER:                  -7.880
REMARK INTRA:                  -0.432
REMARK UNBOUND:                -0.433
REMARK  2 active torsions:
REMARK  status: ('A' for Active; 'I' for Inactive)
REMARK    1  A    between atoms: C5_4  and  O7_13 
REMARK    2  A    between atoms: C8_10  and  O7_13 
ROOT
HETATM    1  O7    D T 801       5.357   3.463  -7.670  1.00 44.91    -0.304 OA
ENDROOT
BRANCH   1   2
HETATM    2  C5    D T 801       4.769   2.714  -6.681  1.00 45.35     0.125 A 
HETATM    3  C6    D T 801       3.990   3.404  -5.708  1.00 44.30     0.154 A 
HETATM    4  C1    D T 801       3.376   2.637  -4.649  1.00 43.93     0.041 A 
HETATM    5  O17   D T 801       3.823   4.745  -5.754  1.00 43.09    -0.188 OA
HETATM    6  C2    D T 801       3.589   1.222  -4.640  1.00 44.08     0.060 A 
HETATM    7  C3    D T 801       4.363   0.513  -5.601  1.00 44.17     0.014 A 
HETATM    8 CL14   D T 801       2.864   0.302  -3.374  1.00 45.88    -0.082 Cl
HETATM    9  C4    D T 801       4.959   1.283  -6.635  1.00 45.15     0.028 A 
ENDBRANCH   1   2
BRANCH   1  10
HETATM   10  C8    D T 801       5.447   3.097  -9.010  1.00 47.49     0.111 A 
HETATM   11  C9    D T 801       4.310   3.348  -9.865  1.00 48.15     0.081 A 
HETATM   12  C10   D T 801       4.349   2.993 -11.245  1.00 48.95     0.025 A 
HETATM   13 CL16   D T 801       2.838   4.097  -9.245  1.00 47.31    -0.080 Cl
HETATM   14  C11   D T 801       5.539   2.378 -11.777  1.00 49.51     0.059 A 
HETATM   15  C12   D T 801       6.680   2.118 -10.947  1.00 49.76     0.013 A 
HETATM   16 CL15   D T 801       5.608   1.939 -13.445  1.00 51.18    -0.082 Cl
HETATM   17  C13   D T 801       6.625   2.474  -9.588  1.00 48.54     0.026 A 
ENDBRANCH   1  10
TORSDOF 2
ENDMDL
MODEL 8
REMARK VINA RESULT:    -7.023      2.042      2.193
REMARK INTER + INTRA:          -8.278
REMARK INTER:                  -7.828
REMARK INTRA:                  -0.450
REMARK UNBOUND:                -0.433
REMARK  2 active torsions:
REMARK  status: ('A' for Active; 'I' for Inactive)
REMARK    1  A    between atoms: C5_4  and  O7_13 
REMARK    2  A    between atoms: C8_10  and  O7_13 
ROOT
HETATM    1  O7    D T 801       2.859   1.913  -7.435  1.00 44.91    -0.304 OA
ENDROOT
BRANCH   1   2
HETATM    2  C5    D T 801       3.262   2.450  -6.237  1.00 45.35     0.125 A 
HETATM    3  C6    D T 801       3.600   1.544  -5.192  1.00 44.30     0.154 A 
HETATM    4  C1    D T 801       4.011   2.087  -3.918  1.00 43.93     0.041 A 
HETATM    5  O17   D T 801       3.538   0.204  -5.365  1.00 43.09    -0.188 OA
HETATM    6  C2    D T 801       4.053   3.511  -3.781  1.00 44.08     0.060 A 
HETATM    7  C3    D T 801       3.719   4.433  -4.813  1.00 44.17     0.014 A 
HETATM    8 CL14   D T 801       4.537   4.165  -2.261  1.00 45.88    -0.082 Cl
HETATM    9  C4    D T 801       3.317   3.881  -6.058  1.00 45.15     0.028 A 
ENDBRANCH   1   2
BRANCH   1  10
HETATM   10  C8    D T 801       3.666   1.755  -8.558  1.00 47.49     0.111 A 
HETATM   11  C9    D T 801       3.609   2.766  -9.588  1.00 48.15     0.081 A 
HETATM   12  C10   D T 801       4.416   2.653 -10.758  1.00 48.95     0.025 A 
HETATM   13 CL16   D T 801       2.551   4.169  -9.446  1.00 47.31    -0.080 Cl
HETATM   14  C11   D T 801       5.289   1.516 -10.901  1.00 49.51     0.059 A 
HETATM   15  C12   D T 801       5.362   0.499  -9.892  1.00 49.76     0.013 A 
HETATM   16 CL15   D T 801       6.274   1.359 -12.310  1.00 51.18    -0.082 Cl
HETATM   17  C13   D T 801       4.559   0.625  -8.744  1.00 48.54     0.026 A 
ENDBRANCH   1  10
TORSDOF 2
ENDMDL
MODEL 9
REMARK VINA RESULT:    -6.842      2.270      2.942
REMARK INTER + INTRA:          -8.075
REMARK INTER:                  -7.693
REMARK INTRA:                  -0.382
REMARK UNBOUND:                -0.433
REMARK  2 active torsions:
REMARK  status: ('A' for Active; 'I' for Inactive)
REMARK    1  A    between atoms: C5_4  and  O7_13 
REMARK    2  A    between atoms: C8_10  and  O7_13 
ROOT
HETATM    1  O7    D T 801       2.483   2.105  -6.361  1.00 44.91    -0.304 OA
ENDROOT
BRANCH   1   2
HETATM    2  C5    D T 801       2.712   3.114  -5.458  1.00 45.35     0.125 A 
HETATM    3  C6    D T 801       3.582   2.834  -4.366  1.00 44.30     0.154 A 
HETATM    4  C1    D T 801       3.824   3.876  -3.395  1.00 43.93     0.041 A 
HETATM    5  O17   D T 801       4.173   1.627  -4.220  1.00 43.09    -0.188 OA
HETATM    6  C2    D T 801       3.169   5.134  -3.589  1.00 44.08     0.060 A 
HETATM    7  C3    D T 801       2.296   5.434  -4.672  1.00 44.17     0.014 A 
HETATM    8 CL14   D T 801       3.449   6.380  -2.430  1.00 45.88    -0.082 Cl
HETATM    9  C4    D T 801       2.071   4.398  -5.617  1.00 45.15     0.028 A 
ENDBRANCH   1   2
BRANCH   1  10
HETATM   10  C8    D T 801       3.246   1.855  -7.498  1.00 47.49     0.111 A 
HETATM   11  C9    D T 801       3.703   0.505  -7.732  1.00 48.15     0.081 A 
HETATM   12  C10   D T 801       4.487   0.195  -8.882  1.00 48.95     0.025 A 
HETATM   13 CL16   D T 801       3.315  -0.805  -6.617  1.00 47.31    -0.080 Cl
HETATM   14  C11   D T 801       4.819   1.248  -9.808  1.00 49.51     0.059 A 
HETATM   15  C12   D T 801       4.377   2.596  -9.596  1.00 49.76     0.013 A 
HETATM   16 CL15   D T 801       5.768   0.894 -11.206  1.00 51.18    -0.082 Cl
HETATM   17  C13   D T 801       3.605   2.885  -8.457  1.00 48.54     0.026 A 
ENDBRANCH   1  10
TORSDOF 2
ENDMDL
