MODEL 1
REMARK VINA RESULT:      -8.0      0.000      0.000
REMARK  2 active torsions:
REMARK  status: ('A' for Active; 'I' for Inactive)
REMARK    1  A    between atoms: C5_4  and  O7_13 
REMARK    2  A    between atoms: C8_10  and  O7_13 
ROOT
HETATM    1  O7    D T 801       4.304  24.545 299.549  1.00 44.91    -0.304 OA
ENDROOT
BRANCH   1   2
HETATM    2  C5    D T 801       5.265  23.673 299.998  1.00 45.35     0.125 A 
HETATM    3  C6    D T 801       6.170  24.148 300.991  1.00 44.30     0.154 A 
HETATM    4  C1    D T 801       7.199  23.255 301.467  1.00 43.93     0.041 A 
HETATM    5  O17   D T 801       6.087  25.405 301.484  1.00 43.09    -0.188 OA
HETATM    6  C2    D T 801       7.250  21.937 300.909  1.00 44.08     0.060 A 
HETATM    7  C3    D T 801       6.356  21.443 299.917  1.00 44.17     0.014 A 
HETATM    8 CL14   D T 801       8.480  20.868 301.469  1.00 45.88    -0.082 Cl
HETATM    9  C4    D T 801       5.350  22.336 299.462  1.00 45.15     0.028 A 
ENDBRANCH   1   2
BRANCH   1  10
HETATM   10  C8    D T 801       3.876  24.657 298.228  1.00 47.49     0.111 A 
HETATM   11  C9    D T 801       4.819  25.136 297.244  1.00 48.15     0.081 A 
HETATM   12  C10   D T 801       4.434  25.269 295.878  1.00 48.95     0.025 A 
HETATM   13 CL16   D T 801       6.470  25.570 297.683  1.00 47.31    -0.080 Cl
HETATM   14  C11   D T 801       3.089  24.923 295.491  1.00 49.51     0.059 A 
HETATM   15  C12   D T 801       2.135  24.447 296.453  1.00 49.76     0.013 A 
HETATM   16 CL15   D T 801       2.601  25.078 293.844  1.00 51.18    -0.082 Cl
HETATM   17  C13   D T 801       2.532  24.321 297.796  1.00 48.54     0.026 A 
ENDBRANCH   1  10
TORSDOF 2
ENDMDL
MODEL 2
REMARK VINA RESULT:      -7.7      1.182      5.921
REMARK  2 active torsions:
REMARK  status: ('A' for Active; 'I' for Inactive)
REMARK    1  A    between atoms: C5_4  and  O7_13 
REMARK    2  A    between atoms: C8_10  and  O7_13 
ROOT
HETATM    1  O7    D T 801       4.689  24.840 299.473  1.00 44.91    -0.304 OA
ENDROOT
BRANCH   1   2
HETATM    2  C5    D T 801       4.192  24.855 298.192  1.00 45.35     0.125 A 
HETATM    3  C6    D T 801       5.102  25.151 297.138  1.00 44.30     0.154 A 
HETATM    4  C1    D T 801       4.599  25.188 295.785  1.00 43.93     0.041 A 
HETATM    5  O17   D T 801       6.410  25.403 297.378  1.00 43.09    -0.188 OA
HETATM    6  C2    D T 801       3.207  24.923 295.583  1.00 44.08     0.060 A 
HETATM    7  C3    D T 801       2.281  24.624 296.622  1.00 44.17     0.014 A 
HETATM    8 CL14   D T 801       2.599  24.970 293.971  1.00 45.88    -0.082 Cl
HETATM    9  C4    D T 801       2.795  24.592 297.946  1.00 45.15     0.028 A 
ENDBRANCH   1   2
BRANCH   1  10
HETATM   10  C8    D T 801       5.370  23.776 300.059  1.00 47.49     0.111 A 
HETATM   11  C9    D T 801       6.711  24.009 300.545  1.00 48.15     0.081 A 
HETATM   12  C10   D T 801       7.453  22.955 301.153  1.00 48.95     0.025 A 
HETATM   13 CL16   D T 801       7.479  25.590 300.408  1.00 47.31    -0.080 Cl
HETATM   14  C11   D T 801       6.849  21.652 301.275  1.00 49.51     0.059 A 
HETATM   15  C12   D T 801       5.519  21.398 300.799  1.00 49.76     0.013 A 
HETATM   16 CL15   D T 801       7.730  20.362 302.008  1.00 51.18    -0.082 Cl
HETATM   17  C13   D T 801       4.801  22.449 300.201  1.00 48.54     0.026 A 
ENDBRANCH   1  10
TORSDOF 2
ENDMDL
MODEL 3
REMARK VINA RESULT:      -7.7      1.896      6.141
REMARK  2 active torsions:
REMARK  status: ('A' for Active; 'I' for Inactive)
REMARK    1  A    between atoms: C5_4  and  O7_13 
REMARK    2  A    between atoms: C8_10  and  O7_13 
ROOT
HETATM    1  O7    D T 801       4.812  24.993 299.791  1.00 44.91    -0.304 OA
ENDROOT
BRANCH   1   2
HETATM    2  C5    D T 801       4.338  24.988 298.501  1.00 45.35     0.125 A 
HETATM    3  C6    D T 801       5.258  25.305 297.462  1.00 44.30     0.154 A 
HETATM    4  C1    D T 801       4.779  25.322 296.100  1.00 43.93     0.041 A 
HETATM    5  O17   D T 801       6.554  25.593 297.724  1.00 43.09    -0.188 OA
HETATM    6  C2    D T 801       3.398  25.017 295.875  1.00 44.08     0.060 A 
HETATM    7  C3    D T 801       2.462  24.698 296.899  1.00 44.17     0.014 A 
HETATM    8 CL14   D T 801       2.818  25.041 294.252  1.00 45.88    -0.082 Cl
HETATM    9  C4    D T 801       2.953  24.686 298.232  1.00 45.15     0.028 A 
ENDBRANCH   1   2
BRANCH   1  10
HETATM   10  C8    D T 801       5.355  23.894 300.451  1.00 47.49     0.111 A 
HETATM   11  C9    D T 801       4.494  23.127 301.322  1.00 48.15     0.081 A 
HETATM   12  C10   D T 801       4.998  21.992 302.022  1.00 48.95     0.025 A 
HETATM   13 CL16   D T 801       2.800  23.556 301.554  1.00 47.31    -0.080 Cl
HETATM   14  C11   D T 801       6.381  21.620 301.851  1.00 49.51     0.059 A 
HETATM   15  C12   D T 801       7.254  22.368 300.992  1.00 49.76     0.013 A 
HETATM   16 CL15   D T 801       7.012  20.251 302.690  1.00 51.18    -0.082 Cl
HETATM   17  C13   D T 801       6.741  23.485 300.309  1.00 48.54     0.026 A 
ENDBRANCH   1  10
TORSDOF 2
ENDMDL
MODEL 4
REMARK VINA RESULT:      -7.6      1.256      6.111
REMARK  2 active torsions:
REMARK  status: ('A' for Active; 'I' for Inactive)
REMARK    1  A    between atoms: C5_4  and  O7_13 
REMARK    2  A    between atoms: C8_10  and  O7_13 
ROOT
HETATM    1  O7    D T 801       4.237  24.126 299.452  1.00 44.91    -0.304 OA
ENDROOT
BRANCH   1   2
HETATM    2  C5    D T 801       3.864  24.333 298.146  1.00 45.35     0.125 A 
HETATM    3  C6    D T 801       2.616  23.793 297.725  1.00 44.30     0.154 A 
HETATM    4  C1    D T 801       2.211  23.984 296.353  1.00 43.93     0.041 A 
HETATM    5  O17   D T 801       1.817  23.107 298.575  1.00 43.09    -0.188 OA
HETATM    6  C2    D T 801       3.095  24.710 295.491  1.00 44.08     0.060 A 
HETATM    7  C3    D T 801       4.346  25.258 295.892  1.00 44.17     0.014 A 
HETATM    8 CL14   D T 801       2.620  24.938 293.850  1.00 45.88    -0.082 Cl
HETATM    9  C4    D T 801       4.727  25.060 297.246  1.00 45.15     0.028 A 
ENDBRANCH   1   2
BRANCH   1  10
HETATM   10  C8    D T 801       5.259  23.278 299.871  1.00 47.49     0.111 A 
HETATM   11  C9    D T 801       6.163  23.751 300.893  1.00 48.15     0.081 A 
HETATM   12  C10   D T 801       7.226  22.923 301.359  1.00 48.95     0.025 A 
HETATM   13 CL16   D T 801       5.993  25.356 301.603  1.00 47.31    -0.080 Cl
HETATM   14  C11   D T 801       7.388  21.607 300.794  1.00 49.51     0.059 A 
HETATM   15  C12   D T 801       6.503  21.116 299.777  1.00 49.76     0.013 A 
HETATM   16 CL15   D T 801       8.669  20.589 301.342  1.00 51.18    -0.082 Cl
HETATM   17  C13   D T 801       5.459  21.946 299.329  1.00 48.54     0.026 A 
ENDBRANCH   1  10
TORSDOF 2
ENDMDL
MODEL 5
REMARK VINA RESULT:      -7.5      1.365      1.816
REMARK  2 active torsions:
REMARK  status: ('A' for Active; 'I' for Inactive)
REMARK    1  A    between atoms: C5_4  and  O7_13 
REMARK    2  A    between atoms: C8_10  and  O7_13 
ROOT
HETATM    1  O7    D T 801       4.562  24.312 299.488  1.00 44.91    -0.304 OA
ENDROOT
BRANCH   1   2
HETATM    2  C5    D T 801       5.505  23.411 299.919  1.00 45.35     0.125 A 
HETATM    3  C6    D T 801       6.297  23.777 301.045  1.00 44.30     0.154 A 
HETATM    4  C1    D T 801       7.305  22.852 301.506  1.00 43.93     0.041 A 
HETATM    5  O17   D T 801       6.127  24.960 301.678  1.00 43.09    -0.188 OA
HETATM    6  C2    D T 801       7.451  21.616 300.799  1.00 44.08     0.060 A 
HETATM    7  C3    D T 801       6.671  21.232 299.672  1.00 44.17     0.014 A 
HETATM    8 CL14   D T 801       8.658  20.511 301.341  1.00 45.88    -0.082 Cl
HETATM    9  C4    D T 801       5.684  22.154 299.233  1.00 45.15     0.028 A 
ENDBRANCH   1   2
BRANCH   1  10
HETATM   10  C8    D T 801       4.137  24.461 298.170  1.00 47.49     0.111 A 
HETATM   11  C9    D T 801       2.872  23.874 297.791  1.00 48.15     0.081 A 
HETATM   12  C10   D T 801       2.389  23.997 296.455  1.00 48.95     0.025 A 
HETATM   13 CL16   D T 801       1.882  22.989 298.951  1.00 47.31    -0.080 Cl
HETATM   14  C11   D T 801       3.181  24.713 295.487  1.00 49.51     0.059 A 
HETATM   15  C12   D T 801       4.440  25.303 295.841  1.00 49.76     0.013 A 
HETATM   16 CL15   D T 801       2.615  24.872 293.864  1.00 51.18    -0.082 Cl
HETATM   17  C13   D T 801       4.902  25.173 297.163  1.00 48.54     0.026 A 
ENDBRANCH   1  10
TORSDOF 2
ENDMDL
MODEL 6
REMARK VINA RESULT:      -7.5     11.290     13.345
REMARK  2 active torsions:
REMARK  status: ('A' for Active; 'I' for Inactive)
REMARK    1  A    between atoms: C5_4  and  O7_13 
REMARK    2  A    between atoms: C8_10  and  O7_13 
ROOT
HETATM    1  O7    D T 801       6.181  15.324 307.398  1.00 44.91    -0.304 OA
ENDROOT
BRANCH   1   2
HETATM    2  C5    D T 801       6.172  14.614 306.223  1.00 45.35     0.125 A 
HETATM    3  C6    D T 801       6.542  15.305 305.034  1.00 44.30     0.154 A 
HETATM    4  C1    D T 801       6.524  14.582 303.784  1.00 43.93     0.041 A 
HETATM    5  O17   D T 801       6.899  16.609 305.053  1.00 43.09    -0.188 OA
HETATM    6  C2    D T 801       6.132  13.205 303.815  1.00 44.08     0.060 A 
HETATM    7  C3    D T 801       5.758  12.496 304.992  1.00 44.17     0.014 A 
HETATM    8 CL14   D T 801       6.103  12.338 302.325  1.00 45.88    -0.082 Cl
HETATM    9  C4    D T 801       5.783  13.224 306.211  1.00 45.15     0.028 A 
ENDBRANCH   1   2
BRANCH   1  10
HETATM   10  C8    D T 801       5.096  15.465 308.260  1.00 47.49     0.111 A 
HETATM   11  C9    D T 801       5.363  15.629 309.671  1.00 48.15     0.081 A 
HETATM   12  C10   D T 801       4.290  15.778 310.597  1.00 48.95     0.025 A 
HETATM   13 CL16   D T 801       7.009  15.651 310.302  1.00 47.31    -0.080 Cl
HETATM   14  C11   D T 801       2.934  15.761 310.108  1.00 49.51     0.059 A 
HETATM   15  C12   D T 801       2.646  15.599 308.711  1.00 49.76     0.013 A 
HETATM   16 CL15   D T 801       1.620  15.938 311.213  1.00 51.18    -0.082 Cl
HETATM   17  C13   D T 801       3.716  15.453 307.811  1.00 48.54     0.026 A 
ENDBRANCH   1  10
TORSDOF 2
ENDMDL
MODEL 7
REMARK VINA RESULT:      -7.2      1.906      2.114
REMARK  2 active torsions:
REMARK  status: ('A' for Active; 'I' for Inactive)
REMARK    1  A    between atoms: C5_4  and  O7_13 
REMARK    2  A    between atoms: C8_10  and  O7_13 
ROOT
HETATM    1  O7    D T 801       4.161  24.594 299.491  1.00 44.91    -0.304 OA
ENDROOT
BRANCH   1   2
HETATM    2  C5    D T 801       4.111  23.443 300.239  1.00 45.35     0.125 A 
HETATM    3  C6    D T 801       5.341  22.776 300.502  1.00 44.30     0.154 A 
HETATM    4  C1    D T 801       5.311  21.555 301.272  1.00 43.93     0.041 A 
HETATM    5  O17   D T 801       6.520  23.255 300.044  1.00 43.09    -0.188 OA
HETATM    6  C2    D T 801       4.037  21.085 301.727  1.00 44.08     0.060 A 
HETATM    7  C3    D T 801       2.797  21.736 301.476  1.00 44.17     0.014 A 
HETATM    8 CL14   D T 801       3.994  19.625 302.642  1.00 45.88    -0.082 Cl
HETATM    9  C4    D T 801       2.847  22.936 300.717  1.00 45.15     0.028 A 
ENDBRANCH   1   2
BRANCH   1  10
HETATM   10  C8    D T 801       3.772  24.705 298.159  1.00 47.49     0.111 A 
HETATM   11  C9    D T 801       4.769  25.089 297.186  1.00 48.15     0.081 A 
HETATM   12  C10   D T 801       4.424  25.216 295.809  1.00 48.95     0.025 A 
HETATM   13 CL16   D T 801       6.437  25.413 297.655  1.00 47.31    -0.080 Cl
HETATM   14  C11   D T 801       3.066  24.958 295.399  1.00 49.51     0.059 A 
HETATM   15  C12   D T 801       2.060  24.577 296.348  1.00 49.76     0.013 A 
HETATM   16 CL15   D T 801       2.628  25.108 293.737  1.00 51.18    -0.082 Cl
HETATM   17  C13   D T 801       2.416  24.456 297.703  1.00 48.54     0.026 A 
ENDBRANCH   1  10
TORSDOF 2
ENDMDL
MODEL 8
REMARK VINA RESULT:      -7.2      2.277      6.125
REMARK  2 active torsions:
REMARK  status: ('A' for Active; 'I' for Inactive)
REMARK    1  A    between atoms: C5_4  and  O7_13 
REMARK    2  A    between atoms: C8_10  and  O7_13 
ROOT
HETATM    1  O7    D T 801       5.103  23.704 298.924  1.00 44.91    -0.304 OA
ENDROOT
BRANCH   1   2
HETATM    2  C5    D T 801       4.490  23.842 297.703  1.00 45.35     0.125 A 
HETATM    3  C6    D T 801       5.030  23.107 296.609  1.00 44.30     0.154 A 
HETATM    4  C1    D T 801       4.412  23.249 295.313  1.00 43.93     0.041 A 
HETATM    5  O17   D T 801       6.102  22.296 296.760  1.00 43.09    -0.188 OA
HETATM    6  C2    D T 801       3.285  24.126 295.203  1.00 44.08     0.060 A 
HETATM    7  C3    D T 801       2.729  24.868 296.283  1.00 44.17     0.014 A 
HETATM    8 CL14   D T 801       2.545  24.304 293.656  1.00 45.88    -0.082 Cl
HETATM    9  C4    D T 801       3.351  24.715 297.551  1.00 45.15     0.028 A 
ENDBRANCH   1   2
BRANCH   1  10
HETATM   10  C8    D T 801       4.835  22.697 299.849  1.00 47.49     0.111 A 
HETATM   11  C9    D T 801       5.809  22.448 300.887  1.00 48.15     0.081 A 
HETATM   12  C10   D T 801       5.585  21.430 301.860  1.00 48.95     0.025 A 
HETATM   13 CL16   D T 801       7.300  23.382 300.996  1.00 47.31    -0.080 Cl
HETATM   14  C11   D T 801       4.374  20.650 301.792  1.00 49.51     0.059 A 
HETATM   15  C12   D T 801       3.394  20.880 300.769  1.00 49.76     0.013 A 
HETATM   16 CL15   D T 801       4.083  19.413 302.959  1.00 51.18    -0.082 Cl
HETATM   17  C13   D T 801       3.631  21.888 299.818  1.00 48.54     0.026 A 
ENDBRANCH   1  10
TORSDOF 2
ENDMDL
MODEL 9
REMARK VINA RESULT:      -7.2      1.734      2.088
REMARK  2 active torsions:
REMARK  status: ('A' for Active; 'I' for Inactive)
REMARK    1  A    between atoms: C5_4  and  O7_13 
REMARK    2  A    between atoms: C8_10  and  O7_13 
ROOT
HETATM    1  O7    D T 801       4.585  23.386 299.118  1.00 44.91    -0.304 OA
ENDROOT
BRANCH   1   2
HETATM    2  C5    D T 801       5.255  22.217 299.389  1.00 45.35     0.125 A 
HETATM    3  C6    D T 801       4.633  21.293 300.276  1.00 44.30     0.154 A 
HETATM    4  C1    D T 801       5.326  20.066 300.588  1.00 43.93     0.041 A 
HETATM    5  O17   D T 801       3.424  21.544 300.829  1.00 43.09    -0.188 OA
HETATM    6  C2    D T 801       6.606  19.850 299.984  1.00 44.08     0.060 A 
HETATM    7  C3    D T 801       7.245  20.760 299.096  1.00 44.17     0.014 A 
HETATM    8 CL14   D T 801       7.441  18.389 300.357  1.00 45.88    -0.082 Cl
HETATM    9  C4    D T 801       6.548  21.962 298.800  1.00 45.15     0.028 A 
ENDBRANCH   1   2
BRANCH   1  10
HETATM   10  C8    D T 801       4.090  23.757 297.871  1.00 47.49     0.111 A 
HETATM   11  C9    D T 801       4.802  24.771 297.128  1.00 48.15     0.081 A 
HETATM   12  C10   D T 801       4.338  25.188 295.846  1.00 48.95     0.025 A 
HETATM   13 CL16   D T 801       6.259  25.529 297.767  1.00 47.31    -0.080 Cl
HETATM   14  C11   D T 801       3.147  24.585 295.301  1.00 49.51     0.059 A 
HETATM   15  C12   D T 801       2.423  23.577 296.022  1.00 49.76     0.013 A 
HETATM   16 CL15   D T 801       2.568  25.076 293.751  1.00 51.18    -0.082 Cl
HETATM   17  C13   D T 801       2.895  23.177 297.285  1.00 48.54     0.026 A 
ENDBRANCH   1  10
TORSDOF 2
ENDMDL
