MODEL 1
REMARK VINA RESULT:    -8.006      0.000      0.000
REMARK INTER + INTRA:          -9.293
REMARK INTER:                  -8.942
REMARK INTRA:                  -0.352
REMARK UNBOUND:                -0.352
REMARK  2 active torsions:
REMARK  status: ('A' for Active; 'I' for Inactive)
REMARK    1  A    between atoms: C5_4  and  O7_13 
REMARK    2  A    between atoms: C8_10  and  O7_13 
ROOT
HETATM    1  O7    D T 801       4.318  24.502 299.555  1.00 44.91    -0.304 OA
ENDROOT
BRANCH   1   2
HETATM    2  C5    D T 801       5.269  23.618 300.002  1.00 45.35     0.125 A 
HETATM    3  C6    D T 801       6.180  24.079 300.995  1.00 44.30     0.154 A 
HETATM    4  C1    D T 801       7.198  23.173 301.469  1.00 43.93     0.041 A 
HETATM    5  O17   D T 801       6.113  25.336 301.490  1.00 43.09    -0.188 OA
HETATM    6  C2    D T 801       7.232  21.856 300.908  1.00 44.08     0.060 A 
HETATM    7  C3    D T 801       6.332  21.375 299.916  1.00 44.17     0.014 A 
HETATM    8 CL14   D T 801       8.450  20.770 301.466  1.00 45.88    -0.082 Cl
HETATM    9  C4    D T 801       5.337  22.281 299.463  1.00 45.15     0.028 A 
ENDBRANCH   1   2
BRANCH   1  10
HETATM   10  C8    D T 801       3.876  24.608 298.238  1.00 47.49     0.111 A 
HETATM   11  C9    D T 801       4.799  25.109 297.246  1.00 48.15     0.081 A 
HETATM   12  C10   D T 801       4.399  25.237 295.884  1.00 48.95     0.025 A 
HETATM   13 CL16   D T 801       6.445  25.577 297.672  1.00 47.31    -0.080 Cl
HETATM   14  C11   D T 801       3.058  24.862 295.510  1.00 49.51     0.059 A 
HETATM   15  C12   D T 801       2.124  24.364 296.478  1.00 49.76     0.013 A 
HETATM   16 CL15   D T 801       2.552  25.011 293.866  1.00 51.18    -0.082 Cl
HETATM   17  C13   D T 801       2.535  24.244 297.817  1.00 48.54     0.026 A 
ENDBRANCH   1  10
TORSDOF 2
ENDMDL
MODEL 2
REMARK VINA RESULT:    -7.756      1.226      5.980
REMARK INTER + INTRA:          -9.014
REMARK INTER:                  -8.790
REMARK INTRA:                  -0.224
REMARK UNBOUND:                -0.352
REMARK  2 active torsions:
REMARK  status: ('A' for Active; 'I' for Inactive)
REMARK    1  A    between atoms: C5_4  and  O7_13 
REMARK    2  A    between atoms: C8_10  and  O7_13 
ROOT
HETATM    1  O7    D T 801       4.272  24.367 299.355  1.00 44.91    -0.304 OA
ENDROOT
BRANCH   1   2
HETATM    2  C5    D T 801       3.848  24.514 298.057  1.00 45.35     0.125 A 
HETATM    3  C6    D T 801       4.757  25.099 297.130  1.00 44.30     0.154 A 
HETATM    4  C1    D T 801       4.327  25.279 295.764  1.00 43.93     0.041 A 
HETATM    5  O17   D T 801       5.997  25.491 297.504  1.00 43.09    -0.188 OA
HETATM    6  C2    D T 801       3.003  24.855 295.420  1.00 44.08     0.060 A 
HETATM    7  C3    D T 801       2.079  24.269 296.330  1.00 44.17     0.014 A 
HETATM    8 CL14   D T 801       2.481  25.072 293.792  1.00 45.88    -0.082 Cl
HETATM    9  C4    D T 801       2.520  24.100 297.670  1.00 45.15     0.028 A 
ENDBRANCH   1   2
BRANCH   1  10
HETATM   10  C8    D T 801       5.262  23.486 299.782  1.00 47.49     0.111 A 
HETATM   11  C9    D T 801       6.124  23.899 300.865  1.00 48.15     0.081 A 
HETATM   12  C10   D T 801       7.153  23.036 301.341  1.00 48.95     0.025 A 
HETATM   13 CL16   D T 801       5.943  25.474 301.637  1.00 47.31    -0.080 Cl
HETATM   14  C11   D T 801       7.324  21.743 300.725  1.00 49.51     0.059 A 
HETATM   15  C12   D T 801       6.481  21.312 299.647  1.00 49.76     0.013 A 
HETATM   16 CL15   D T 801       8.565  20.682 301.286  1.00 51.18    -0.082 Cl
HETATM   17  C13   D T 801       5.470  22.176 299.190  1.00 48.54     0.026 A 
ENDBRANCH   1  10
TORSDOF 2
ENDMDL
MODEL 3
REMARK VINA RESULT:    -7.624      9.861     12.930
REMARK INTER + INTRA:          -8.867
REMARK INTER:                  -8.452
REMARK INTRA:                  -0.415
REMARK UNBOUND:                -0.352
REMARK  2 active torsions:
REMARK  status: ('A' for Active; 'I' for Inactive)
REMARK    1  A    between atoms: C5_4  and  O7_13 
REMARK    2  A    between atoms: C8_10  and  O7_13 
ROOT
HETATM    1  O7    D T 801       6.203  15.007 307.521  1.00 44.91    -0.304 OA
ENDROOT
BRANCH   1   2
HETATM    2  C5    D T 801       6.420  15.359 306.210  1.00 45.35     0.125 A 
HETATM    3  C6    D T 801       6.604  14.307 305.269  1.00 44.30     0.154 A 
HETATM    4  C1    D T 801       6.850  14.653 303.889  1.00 43.93     0.041 A 
HETATM    5  O17   D T 801       6.562  13.006 305.641  1.00 43.09    -0.188 OA
HETATM    6  C2    D T 801       6.893  16.043 303.548  1.00 44.08     0.060 A 
HETATM    7  C3    D T 801       6.711  17.110 304.472  1.00 44.17     0.014 A 
HETATM    8 CL14   D T 801       7.191  16.463 301.903  1.00 45.88    -0.082 Cl
HETATM    9  C4    D T 801       6.471  16.749 305.825  1.00 45.15     0.028 A 
ENDBRANCH   1   2
BRANCH   1  10
HETATM   10  C8    D T 801       5.038  15.263 308.239  1.00 47.49     0.111 A 
HETATM   11  C9    D T 801       5.163  15.640 309.629  1.00 48.15     0.081 A 
HETATM   12  C10   D T 801       4.003  15.914 310.411  1.00 48.95     0.025 A 
HETATM   13 CL16   D T 801       6.738  15.776 310.409  1.00 47.31    -0.080 Cl
HETATM   14  C11   D T 801       2.703  15.808 309.797  1.00 49.51     0.059 A 
HETATM   15  C12   D T 801       2.555  15.435 308.419  1.00 49.76     0.013 A 
HETATM   16 CL15   D T 801       1.285  16.134 310.726  1.00 51.18    -0.082 Cl
HETATM   17  C13   D T 801       3.710  15.168 307.662  1.00 48.54     0.026 A 
ENDBRANCH   1  10
TORSDOF 2
ENDMDL
MODEL 4
REMARK VINA RESULT:    -7.319     11.097     12.894
REMARK INTER + INTRA:          -8.527
REMARK INTER:                  -8.132
REMARK INTRA:                  -0.395
REMARK UNBOUND:                -0.352
REMARK  2 active torsions:
REMARK  status: ('A' for Active; 'I' for Inactive)
REMARK    1  A    between atoms: C5_4  and  O7_13 
REMARK    2  A    between atoms: C8_10  and  O7_13 
ROOT
HETATM    1  O7    D T 801       6.209  15.029 307.680  1.00 44.91    -0.304 OA
ENDROOT
BRANCH   1   2
HETATM    2  C5    D T 801       5.121  15.350 308.455  1.00 45.35     0.125 A 
HETATM    3  C6    D T 801       5.360  15.675 309.820  1.00 44.30     0.154 A 
HETATM    4  C1    D T 801       4.230  16.000 310.658  1.00 43.93     0.041 A 
HETATM    5  O17   D T 801       6.609  15.679 310.341  1.00 43.09    -0.188 OA
HETATM    6  C2    D T 801       2.928  15.974 310.062  1.00 44.08     0.060 A 
HETATM    7  C3    D T 801       2.668  15.652 308.700  1.00 44.17     0.014 A 
HETATM    8 CL14   D T 801       1.574  16.355 311.059  1.00 45.88    -0.082 Cl
HETATM    9  C4    D T 801       3.792  15.336 307.892  1.00 45.15     0.028 A 
ENDBRANCH   1   2
BRANCH   1  10
HETATM   10  C8    D T 801       6.151  14.460 306.410  1.00 47.49     0.111 A 
HETATM   11  C9    D T 801       6.247  15.336 305.265  1.00 48.15     0.081 A 
HETATM   12  C10   D T 801       6.194  14.806 303.942  1.00 48.95     0.025 A 
HETATM   13 CL16   D T 801       6.432  17.079 305.450  1.00 47.31    -0.080 Cl
HETATM   14  C11   D T 801       6.041  13.383 303.763  1.00 49.51     0.059 A 
HETATM   15  C12   D T 801       5.943  12.495 304.886  1.00 49.76     0.013 A 
HETATM   16 CL15   D T 801       5.974  12.721 302.171  1.00 51.18    -0.082 Cl
HETATM   17  C13   D T 801       5.997  13.035 306.183  1.00 48.54     0.026 A 
ENDBRANCH   1  10
TORSDOF 2
ENDMDL
MODEL 5
REMARK VINA RESULT:    -7.256      4.307      4.997
REMARK INTER + INTRA:          -8.456
REMARK INTER:                  -8.114
REMARK INTRA:                  -0.341
REMARK UNBOUND:                -0.352
REMARK  2 active torsions:
REMARK  status: ('A' for Active; 'I' for Inactive)
REMARK    1  A    between atoms: C5_4  and  O7_13 
REMARK    2  A    between atoms: C8_10  and  O7_13 
ROOT
HETATM    1  O7    D T 801       2.880  22.259 300.056  1.00 44.91    -0.304 OA
ENDROOT
BRANCH   1   2
HETATM    2  C5    D T 801       1.751  21.734 300.637  1.00 45.35     0.125 A 
HETATM    3  C6    D T 801       1.923  20.645 301.539  1.00 44.30     0.154 A 
HETATM    4  C1    D T 801       0.749  20.067 302.149  1.00 43.93     0.041 A 
HETATM    5  O17   D T 801       3.147  20.147 301.825  1.00 43.09    -0.188 OA
HETATM    6  C2    D T 801      -0.524  20.625 301.808  1.00 44.08     0.060 A 
HETATM    7  C3    D T 801      -0.718  21.712 300.909  1.00 44.17     0.014 A 
HETATM    8 CL14   D T 801      -1.930  19.934 302.529  1.00 45.88    -0.082 Cl
HETATM    9  C4    D T 801       0.449  22.268 300.320  1.00 45.15     0.028 A 
ENDBRANCH   1   2
BRANCH   1  10
HETATM   10  C8    D T 801       2.931  22.863 298.802  1.00 47.49     0.111 A 
HETATM   11  C9    D T 801       3.348  24.245 298.727  1.00 48.15     0.081 A 
HETATM   12  C10   D T 801       3.419  24.912 297.469  1.00 48.95     0.025 A 
HETATM   13 CL16   D T 801       3.783  25.156 300.172  1.00 47.31    -0.080 Cl
HETATM   14  C11   D T 801       3.067  24.190 296.272  1.00 49.51     0.059 A 
HETATM   15  C12   D T 801       2.649  22.818 296.323  1.00 49.76     0.013 A 
HETATM   16 CL15   D T 801       3.144  24.978 294.739  1.00 51.18    -0.082 Cl
HETATM   17  C13   D T 801       2.585  22.175 297.572  1.00 48.54     0.026 A 
ENDBRANCH   1  10
TORSDOF 2
ENDMDL
MODEL 6
REMARK VINA RESULT:    -7.175      2.587      6.388
REMARK INTER + INTRA:          -8.366
REMARK INTER:                  -7.884
REMARK INTRA:                  -0.482
REMARK UNBOUND:                -0.352
REMARK  2 active torsions:
REMARK  status: ('A' for Active; 'I' for Inactive)
REMARK    1  A    between atoms: C5_4  and  O7_13 
REMARK    2  A    between atoms: C8_10  and  O7_13 
ROOT
HETATM    1  O7    D T 801       3.584  21.972 298.563  1.00 44.91    -0.304 OA
ENDROOT
BRANCH   1   2
HETATM    2  C5    D T 801       3.358  22.749 297.452  1.00 45.35     0.125 A 
HETATM    3  C6    D T 801       4.232  22.576 296.341  1.00 44.30     0.154 A 
HETATM    4  C1    D T 801       4.024  23.393 295.169  1.00 43.93     0.041 A 
HETATM    5  O17   D T 801       5.244  21.679 296.367  1.00 43.09    -0.188 OA
HETATM    6  C2    D T 801       2.945  24.334 295.194  1.00 44.08     0.060 A 
HETATM    7  C3    D T 801       2.060  24.522 296.294  1.00 44.17     0.014 A 
HETATM    8 CL14   D T 801       2.695  25.316 293.800  1.00 45.88    -0.082 Cl
HETATM    9  C4    D T 801       2.280  23.709 297.437  1.00 45.15     0.028 A 
ENDBRANCH   1   2
BRANCH   1  10
HETATM   10  C8    D T 801       4.288  22.374 299.695  1.00 47.49     0.111 A 
HETATM   11  C9    D T 801       3.536  22.730 300.876  1.00 48.15     0.081 A 
HETATM   12  C10   D T 801       4.207  23.148 302.062  1.00 48.95     0.025 A 
HETATM   13 CL16   D T 801       1.774  22.662 300.902  1.00 47.31    -0.080 Cl
HETATM   14  C11   D T 801       5.647  23.214 302.067  1.00 49.51     0.059 A 
HETATM   15  C12   D T 801       6.414  22.867 300.905  1.00 49.76     0.013 A 
HETATM   16 CL15   D T 801       6.479  23.719 303.492  1.00 51.18    -0.082 Cl
HETATM   17  C13   D T 801       5.737  22.456 299.743  1.00 48.54     0.026 A 
ENDBRANCH   1  10
TORSDOF 2
ENDMDL
MODEL 7
REMARK VINA RESULT:    -7.073      1.892      2.095
REMARK INTER + INTRA:          -8.251
REMARK INTER:                  -7.825
REMARK INTRA:                  -0.426
REMARK UNBOUND:                -0.352
REMARK  2 active torsions:
REMARK  status: ('A' for Active; 'I' for Inactive)
REMARK    1  A    between atoms: C5_4  and  O7_13 
REMARK    2  A    between atoms: C8_10  and  O7_13 
ROOT
HETATM    1  O7    D T 801       6.441  22.988 298.304  1.00 44.91    -0.304 OA
ENDROOT
BRANCH   1   2
HETATM    2  C5    D T 801       6.108  22.294 299.441  1.00 45.35     0.125 A 
HETATM    3  C6    D T 801       6.616  22.779 300.680  1.00 44.30     0.154 A 
HETATM    4  C1    D T 801       6.293  22.056 301.887  1.00 43.93     0.041 A 
HETATM    5  O17   D T 801       7.391  23.886 300.744  1.00 43.09    -0.188 OA
HETATM    6  C2    D T 801       5.476  20.886 301.765  1.00 44.08     0.060 A 
HETATM    7  C3    D T 801       4.958  20.384 300.538  1.00 44.17     0.014 A 
HETATM    8 CL14   D T 801       5.091  20.015 303.202  1.00 45.88    -0.082 Cl
HETATM    9  C4    D T 801       5.287  21.110 299.362  1.00 45.15     0.028 A 
ENDBRANCH   1   2
BRANCH   1  10
HETATM   10  C8    D T 801       5.542  23.406 297.326  1.00 47.49     0.111 A 
HETATM   11  C9    D T 801       4.885  24.681 297.502  1.00 48.15     0.081 A 
HETATM   12  C10   D T 801       3.956  25.156 296.531  1.00 48.95     0.025 A 
HETATM   13 CL16   D T 801       5.200  25.693 298.910  1.00 47.31    -0.080 Cl
HETATM   14  C11   D T 801       3.679  24.347 295.370  1.00 49.51     0.059 A 
HETATM   15  C12   D T 801       4.319  23.077 295.175  1.00 49.76     0.013 A 
HETATM   16 CL15   D T 801       2.557  24.903 294.183  1.00 51.18    -0.082 Cl
HETATM   17  C13   D T 801       5.233  22.623 296.143  1.00 48.54     0.026 A 
ENDBRANCH   1  10
TORSDOF 2
ENDMDL
MODEL 8
REMARK VINA RESULT:    -7.015     10.114     12.251
REMARK INTER + INTRA:          -8.187
REMARK INTER:                  -7.732
REMARK INTRA:                  -0.455
REMARK UNBOUND:                -0.352
REMARK  2 active torsions:
REMARK  status: ('A' for Active; 'I' for Inactive)
REMARK    1  A    between atoms: C5_4  and  O7_13 
REMARK    2  A    between atoms: C8_10  and  O7_13 
ROOT
HETATM    1  O7    D T 801       5.853  14.349 306.883  1.00 44.91    -0.304 OA
ENDROOT
BRANCH   1   2
HETATM    2  C5    D T 801       4.954  15.012 307.681  1.00 45.35     0.125 A 
HETATM    3  C6    D T 801       5.438  15.554 308.906  1.00 44.30     0.154 A 
HETATM    4  C1    D T 801       4.507  16.242 309.769  1.00 43.93     0.041 A 
HETATM    5  O17   D T 801       6.734  15.432 309.273  1.00 43.09    -0.188 OA
HETATM    6  C2    D T 801       3.145  16.338 309.340  1.00 44.08     0.060 A 
HETATM    7  C3    D T 801       2.641  15.804 308.120  1.00 44.17     0.014 A 
HETATM    8 CL14   D T 801       2.027  17.153 310.368  1.00 45.88    -0.082 Cl
HETATM    9  C4    D T 801       3.571  15.132 307.284  1.00 45.15     0.028 A 
ENDBRANCH   1   2
BRANCH   1  10
HETATM   10  C8    D T 801       6.272  14.769 305.623  1.00 47.49     0.111 A 
HETATM   11  C9    D T 801       6.266  13.806 304.545  1.00 48.15     0.081 A 
HETATM   12  C10   D T 801       6.684  14.183 303.236  1.00 48.95     0.025 A 
HETATM   13 CL16   D T 801       5.748  12.140 304.800  1.00 47.31    -0.080 Cl
HETATM   14  C11   D T 801       7.115  15.539 303.001  1.00 49.51     0.059 A 
HETATM   15  C12   D T 801       7.130  16.511 304.056  1.00 49.76     0.013 A 
HETATM   16 CL15   D T 801       7.626  16.016 301.423  1.00 51.18    -0.082 Cl
HETATM   17  C13   D T 801       6.714  16.123 305.342  1.00 48.54     0.026 A 
ENDBRANCH   1  10
TORSDOF 2
ENDMDL
MODEL 9
REMARK VINA RESULT:    -6.970      1.905      6.247
REMARK INTER + INTRA:          -8.136
REMARK INTER:                  -7.709
REMARK INTRA:                  -0.427
REMARK UNBOUND:                -0.352
REMARK  2 active torsions:
REMARK  status: ('A' for Active; 'I' for Inactive)
REMARK    1  A    between atoms: C5_4  and  O7_13 
REMARK    2  A    between atoms: C8_10  and  O7_13 
ROOT
HETATM    1  O7    D T 801       5.908  23.788 300.497  1.00 44.91    -0.304 OA
ENDROOT
BRANCH   1   2
HETATM    2  C5    D T 801       4.958  24.012 299.531  1.00 45.35     0.125 A 
HETATM    3  C6    D T 801       5.305  24.879 298.456  1.00 44.30     0.154 A 
HETATM    4  C1    D T 801       4.317  25.142 297.437  1.00 43.93     0.041 A 
HETATM    5  O17   D T 801       6.525  25.459 298.377  1.00 43.09    -0.188 OA
HETATM    6  C2    D T 801       3.038  24.511 297.569  1.00 44.08     0.060 A 
HETATM    7  C3    D T 801       2.671  23.642 298.635  1.00 44.17     0.014 A 
HETATM    8 CL14   D T 801       1.851  24.825 296.359  1.00 45.88    -0.082 Cl
HETATM    9  C4    D T 801       3.657  23.395 299.627  1.00 45.15     0.028 A 
ENDBRANCH   1   2
BRANCH   1  10
HETATM   10  C8    D T 801       6.554  22.576 300.723  1.00 47.49     0.111 A 
HETATM   11  C9    D T 801       6.839  22.198 302.088  1.00 48.15     0.081 A 
HETATM   12  C10   D T 801       7.498  20.967 302.376  1.00 48.95     0.025 A 
HETATM   13 CL16   D T 801       6.390  23.232 303.444  1.00 47.31    -0.080 Cl
HETATM   14  C11   D T 801       7.878  20.104 301.286  1.00 49.51     0.059 A 
HETATM   15  C12   D T 801       7.606  20.459 299.923  1.00 49.76     0.013 A 
HETATM   16 CL15   D T 801       8.678  18.610 301.613  1.00 51.18    -0.082 Cl
HETATM   17  C13   D T 801       6.955  21.677 299.656  1.00 48.54     0.026 A 
ENDBRANCH   1  10
TORSDOF 2
ENDMDL
