MODEL 1
REMARK VINA RESULT:      -8.0      0.000      0.000
REMARK  2 active torsions:
REMARK  status: ('A' for Active; 'I' for Inactive)
REMARK    1  A    between atoms: C5_4  and  O7_13 
REMARK    2  A    between atoms: C8_10  and  O7_13 
ROOT
HETATM    1  O7    D T 801       4.535  24.206 299.705  1.00 34.56    -0.304 OA
ENDROOT
BRANCH   1   2
HETATM    2  C5    D T 801       5.502  23.337 300.154  1.00 33.66     0.125 A 
HETATM    3  C6    D T 801       6.364  23.798 301.181  1.00 32.08     0.154 A 
HETATM    4  C1    D T 801       7.394  22.919 301.659  1.00 31.11     0.041 A 
HETATM    5  O17   D T 801       6.238  25.037 301.706  1.00 34.11    -0.188 OA
HETATM    6  C2    D T 801       7.494  21.626 301.074  1.00 31.49     0.060 A 
HETATM    7  C3    D T 801       6.638  21.140 300.044  1.00 31.32     0.014 A 
HETATM    8 CL14   D T 801       8.754  20.573 301.644  1.00 29.53    -0.082 Cl
HETATM    9  C4    D T 801       5.624  22.023 299.583  1.00 31.98     0.028 A 
ENDBRANCH   1   2
BRANCH   1  10
HETATM   10  C8    D T 801       4.101  24.362 298.391  1.00 36.70     0.111 A 
HETATM   11  C9    D T 801       5.001  24.978 297.458  1.00 37.64     0.081 A 
HETATM   12  C10   D T 801       4.637  25.176 296.101  1.00 39.25     0.025 A 
HETATM   13 CL16   D T 801       6.590  25.510 297.949  1.00 38.51    -0.080 Cl
HETATM   14  C11   D T 801       3.335  24.742 295.662  1.00 40.14     0.059 A 
HETATM   15  C12   D T 801       2.411  24.120 296.567  1.00 40.20     0.013 A 
HETATM   16 CL15   D T 801       2.879  24.964 294.034  1.00 39.51    -0.082 Cl
HETATM   17  C13   D T 801       2.803  23.937 297.918  1.00 38.62     0.026 A 
ENDBRANCH   1  10
TORSDOF 2
ENDMDL
MODEL 2
REMARK VINA RESULT:      -7.8      1.144      5.987
REMARK  2 active torsions:
REMARK  status: ('A' for Active; 'I' for Inactive)
REMARK    1  A    between atoms: C5_4  and  O7_13 
REMARK    2  A    between atoms: C8_10  and  O7_13 
ROOT
HETATM    1  O7    D T 801       4.673  24.153 299.580  1.00 34.56    -0.304 OA
ENDROOT
BRANCH   1   2
HETATM    2  C5    D T 801       4.247  24.340 298.285  1.00 33.66     0.125 A 
HETATM    3  C6    D T 801       5.185  24.868 297.362  1.00 32.08     0.154 A 
HETATM    4  C1    D T 801       4.765  25.089 296.007  1.00 31.11     0.041 A 
HETATM    5  O17   D T 801       6.449  25.169 297.733  1.00 34.11    -0.188 OA
HETATM    6  C2    D T 801       3.423  24.763 295.661  1.00 31.49     0.060 A 
HETATM    7  C3    D T 801       2.464  24.229 296.570  1.00 31.32     0.014 A 
HETATM    8 CL14   D T 801       2.915  25.050 294.024  1.00 29.53    -0.082 Cl
HETATM    9  C4    D T 801       2.898  24.017 297.907  1.00 31.98     0.028 A 
ENDBRANCH   1   2
BRANCH   1  10
HETATM   10  C8    D T 801       5.605  23.218 300.021  1.00 36.70     0.111 A 
HETATM   11  C9    D T 801       6.590  23.651 300.972  1.00 37.64     0.081 A 
HETATM   12  C10   D T 801       7.576  22.761 301.471  1.00 39.25     0.025 A 
HETATM   13 CL16   D T 801       6.617  25.294 301.562  1.00 38.51    -0.080 Cl
HETATM   14  C11   D T 801       7.577  21.397 301.009  1.00 40.14     0.059 A 
HETATM   15  C12   D T 801       6.607  20.929 300.061  1.00 40.20     0.013 A 
HETATM   16 CL15   D T 801       8.749  20.309 301.601  1.00 39.51    -0.082 Cl
HETATM   17  C13   D T 801       5.633  21.842 299.579  1.00 38.62     0.026 A 
ENDBRANCH   1  10
TORSDOF 2
ENDMDL
MODEL 3
REMARK VINA RESULT:      -7.7      1.372      1.825
REMARK  2 active torsions:
REMARK  status: ('A' for Active; 'I' for Inactive)
REMARK    1  A    between atoms: C5_4  and  O7_13 
REMARK    2  A    between atoms: C8_10  and  O7_13 
ROOT
HETATM    1  O7    D T 801       5.220  24.122 299.821  1.00 34.56    -0.304 OA
ENDROOT
BRANCH   1   2
HETATM    2  C5    D T 801       6.072  23.123 300.232  1.00 33.66     0.125 A 
HETATM    3  C6    D T 801       6.648  23.249 301.521  1.00 32.08     0.154 A 
HETATM    4  C1    D T 801       7.553  22.229 301.971  1.00 31.11     0.041 A 
HETATM    5  O17   D T 801       6.368  24.302 302.320  1.00 34.11    -0.188 OA
HETATM    6  C2    D T 801       7.824  21.141 301.095  1.00 31.49     0.060 A 
HETATM    7  C3    D T 801       7.255  20.991 299.797  1.00 31.32     0.014 A 
HETATM    8 CL14   D T 801       8.934  19.919 301.638  1.00 29.53    -0.082 Cl
HETATM    9  C4    D T 801       6.361  22.010 299.369  1.00 31.98     0.028 A 
ENDBRANCH   1   2
BRANCH   1  10
HETATM   10  C8    D T 801       4.750  24.335 298.528  1.00 36.70     0.111 A 
HETATM   11  C9    D T 801       3.425  23.881 298.214  1.00 37.64     0.081 A 
HETATM   12  C10   D T 801       2.871  24.056 296.919  1.00 39.25     0.025 A 
HETATM   13 CL16   D T 801       2.430  23.093 299.413  1.00 38.51    -0.080 Cl
HETATM   14  C11   D T 801       3.664  24.709 295.909  1.00 40.14     0.059 A 
HETATM   15  C12   D T 801       4.991  25.177 296.188  1.00 40.20     0.013 A 
HETATM   16 CL15   D T 801       3.015  24.937 294.348  1.00 39.51    -0.082 Cl
HETATM   17  C13   D T 801       5.518  24.986 297.491  1.00 38.62     0.026 A 
ENDBRANCH   1  10
TORSDOF 2
ENDMDL
MODEL 4
REMARK VINA RESULT:      -7.6      1.168      6.112
REMARK  2 active torsions:
REMARK  status: ('A' for Active; 'I' for Inactive)
REMARK    1  A    between atoms: C5_4  and  O7_13 
REMARK    2  A    between atoms: C8_10  and  O7_13 
ROOT
HETATM    1  O7    D T 801       4.452  23.811 299.702  1.00 34.56    -0.304 OA
ENDROOT
BRANCH   1   2
HETATM    2  C5    D T 801       4.118  24.100 298.400  1.00 33.66     0.125 A 
HETATM    3  C6    D T 801       2.880  23.603 297.920  1.00 32.08     0.154 A 
HETATM    4  C1    D T 801       2.511  23.875 296.560  1.00 31.11     0.041 A 
HETATM    5  O17   D T 801       2.055  22.880 298.710  1.00 34.11    -0.188 OA
HETATM    6  C2    D T 801       3.412  24.634 295.762  1.00 31.49     0.060 A 
HETATM    7  C3    D T 801       4.659  25.148 296.222  1.00 31.32     0.014 A 
HETATM    8 CL14   D T 801       2.968  24.946 294.110  1.00 29.53    -0.082 Cl
HETATM    9  C4    D T 801       5.008  24.868 297.572  1.00 31.98     0.028 A 
ENDBRANCH   1   2
BRANCH   1  10
HETATM   10  C8    D T 801       5.473  22.967 300.132  1.00 36.70     0.111 A 
HETATM   11  C9    D T 801       6.472  23.514 301.005  1.00 37.64     0.081 A 
HETATM   12  C10   D T 801       7.546  22.722 301.487  1.00 39.25     0.025 A 
HETATM   13 CL16   D T 801       6.409  25.181 301.520  1.00 38.51    -0.080 Cl
HETATM   14  C11   D T 801       7.623  21.340 301.085  1.00 40.14     0.059 A 
HETATM   15  C12   D T 801       6.641  20.760 300.216  1.00 40.20     0.013 A 
HETATM   16 CL15   D T 801       8.902  20.368 301.658  1.00 39.51    -0.082 Cl
HETATM   17  C13   D T 801       5.579  21.577 299.749  1.00 38.62     0.026 A 
ENDBRANCH   1  10
TORSDOF 2
ENDMDL
MODEL 5
REMARK VINA RESULT:      -7.5      4.181      4.848
REMARK  2 active torsions:
REMARK  status: ('A' for Active; 'I' for Inactive)
REMARK    1  A    between atoms: C5_4  and  O7_13 
REMARK    2  A    between atoms: C8_10  and  O7_13 
ROOT
HETATM    1  O7    D T 801       3.127  22.187 300.034  1.00 34.56    -0.304 OA
ENDROOT
BRANCH   1   2
HETATM    2  C5    D T 801       2.010  21.715 300.684  1.00 33.66     0.125 A 
HETATM    3  C6    D T 801       2.218  20.859 301.795  1.00 32.08     0.154 A 
HETATM    4  C1    D T 801       1.072  20.338 302.485  1.00 31.11     0.041 A 
HETATM    5  O17   D T 801       3.462  20.523 302.206  1.00 34.11    -0.188 OA
HETATM    6  C2    D T 801      -0.218  20.712 302.015  1.00 31.49     0.060 A 
HETATM    7  C3    D T 801      -0.452  21.573 300.905  1.00 31.32     0.014 A 
HETATM    8 CL14   D T 801      -1.602  20.064 302.843  1.00 29.53    -0.082 Cl
HETATM    9  C4    D T 801       0.695  22.079 300.234  1.00 31.98     0.028 A 
ENDBRANCH   1   2
BRANCH   1  10
HETATM   10  C8    D T 801       3.165  22.794 298.781  1.00 36.70     0.111 A 
HETATM   11  C9    D T 801       3.525  24.182 298.720  1.00 37.64     0.081 A 
HETATM   12  C10   D T 801       3.585  24.876 297.484  1.00 39.25     0.025 A 
HETATM   13 CL16   D T 801       3.909  25.082 300.166  1.00 38.51    -0.080 Cl
HETATM   14  C11   D T 801       3.280  24.160 296.272  1.00 40.14     0.059 A 
HETATM   15  C12   D T 801       2.920  22.772 296.295  1.00 40.20     0.013 A 
HETATM   16 CL15   D T 801       3.354  24.973 294.774  1.00 39.51    -0.082 Cl
HETATM   17  C13   D T 801       2.866  22.105 297.546  1.00 38.62     0.026 A 
ENDBRANCH   1  10
TORSDOF 2
ENDMDL
MODEL 6
REMARK VINA RESULT:      -7.5      2.542      6.372
REMARK  2 active torsions:
REMARK  status: ('A' for Active; 'I' for Inactive)
REMARK    1  A    between atoms: C5_4  and  O7_13 
REMARK    2  A    between atoms: C8_10  and  O7_13 
ROOT
HETATM    1  O7    D T 801       4.945  21.508 298.962  1.00 34.56    -0.304 OA
ENDROOT
BRANCH   1   2
HETATM    2  C5    D T 801       4.470  22.282 297.929  1.00 33.66     0.125 A 
HETATM    3  C6    D T 801       5.364  22.566 296.866  1.00 32.08     0.154 A 
HETATM    4  C1    D T 801       4.902  23.385 295.780  1.00 31.11     0.041 A 
HETATM    5  O17   D T 801       6.630  22.092 296.860  1.00 34.11    -0.188 OA
HETATM    6  C2    D T 801       3.564  23.867 295.830  1.00 31.49     0.060 A 
HETATM    7  C3    D T 801       2.647  23.593 296.884  1.00 31.32     0.014 A 
HETATM    8 CL14   D T 801       3.016  24.872 294.522  1.00 29.53    -0.082 Cl
HETATM    9  C4    D T 801       3.122  22.781 297.951  1.00 31.98     0.028 A 
ENDBRANCH   1   2
BRANCH   1  10
HETATM   10  C8    D T 801       5.421  21.961 300.190  1.00 36.70     0.111 A 
HETATM   11  C9    D T 801       4.566  21.820 301.334  1.00 37.64     0.081 A 
HETATM   12  C10   D T 801       4.974  22.258 302.620  1.00 39.25     0.025 A 
HETATM   13 CL16   D T 801       2.981  21.098 301.195  1.00 38.51    -0.080 Cl
HETATM   14  C11   D T 801       6.277  22.852 302.769  1.00 40.14     0.059 A 
HETATM   15  C12   D T 801       7.160  23.006 301.648  1.00 40.20     0.013 A 
HETATM   16 CL15   D T 801       6.791  23.378 304.308  1.00 39.51    -0.082 Cl
HETATM   17  C13   D T 801       6.723  22.560 300.374  1.00 38.62     0.026 A 
ENDBRANCH   1  10
TORSDOF 2
ENDMDL
MODEL 7
REMARK VINA RESULT:      -7.4      2.248      2.556
REMARK  2 active torsions:
REMARK  status: ('A' for Active; 'I' for Inactive)
REMARK    1  A    between atoms: C5_4  and  O7_13 
REMARK    2  A    between atoms: C8_10  and  O7_13 
ROOT
HETATM    1  O7    D T 801       4.694  21.525 299.077  1.00 34.56    -0.304 OA
ENDROOT
BRANCH   1   2
HETATM    2  C5    D T 801       5.199  21.955 300.282  1.00 33.66     0.125 A 
HETATM    3  C6    D T 801       4.333  21.912 301.403  1.00 32.08     0.154 A 
HETATM    4  C1    D T 801       4.827  22.369 302.671  1.00 31.11     0.041 A 
HETATM    5  O17   D T 801       3.063  21.460 301.298  1.00 34.11    -0.188 OA
HETATM    6  C2    D T 801       6.168  22.841 302.735  1.00 31.49     0.060 A 
HETATM    7  C3    D T 801       7.058  22.891 301.623  1.00 31.32     0.014 A 
HETATM    8 CL14   D T 801       6.756  23.410 304.268  1.00 29.53    -0.082 Cl
HETATM    9  C4    D T 801       6.551  22.434 300.376  1.00 31.98     0.028 A 
ENDBRANCH   1   2
BRANCH   1  10
HETATM   10  C8    D T 801       4.259  22.326 298.024  1.00 36.70     0.111 A 
HETATM   11  C9    D T 801       5.169  22.557 296.938  1.00 37.64     0.081 A 
HETATM   12  C10   D T 801       4.806  23.363 295.828  1.00 39.25     0.025 A 
HETATM   13 CL16   D T 801       6.768  21.853 296.932  1.00 38.51    -0.080 Cl
HETATM   14  C11   D T 801       3.493  23.952 295.800  1.00 40.14     0.059 A 
HETATM   15  C12   D T 801       2.556  23.741 296.866  1.00 40.20     0.013 A 
HETATM   16 CL15   D T 801       3.032  24.918 294.472  1.00 39.51    -0.082 Cl
HETATM   17  C13   D T 801       2.949  22.932 297.964  1.00 38.62     0.026 A 
ENDBRANCH   1  10
TORSDOF 2
ENDMDL
MODEL 8
REMARK VINA RESULT:      -7.4      4.154      6.384
REMARK  2 active torsions:
REMARK  status: ('A' for Active; 'I' for Inactive)
REMARK    1  A    between atoms: C5_4  and  O7_13 
REMARK    2  A    between atoms: C8_10  and  O7_13 
ROOT
HETATM    1  O7    D T 801       3.108  22.354 300.141  1.00 34.56    -0.304 OA
ENDROOT
BRANCH   1   2
HETATM    2  C5    D T 801       3.158  22.894 298.877  1.00 33.66     0.125 A 
HETATM    3  C6    D T 801       3.361  24.293 298.776  1.00 32.08     0.154 A 
HETATM    4  C1    D T 801       3.403  24.888 297.470  1.00 31.11     0.041 A 
HETATM    5  O17   D T 801       3.507  25.067 299.874  1.00 34.11    -0.188 OA
HETATM    6  C2    D T 801       3.239  24.036 296.342  1.00 31.49     0.060 A 
HETATM    7  C3    D T 801       3.038  22.628 296.418  1.00 31.32     0.014 A 
HETATM    8 CL14   D T 801       3.273  24.765 294.764  1.00 29.53    -0.082 Cl
HETATM    9  C4    D T 801       2.999  22.056 297.719  1.00 31.98     0.028 A 
ENDBRANCH   1   2
BRANCH   1  10
HETATM   10  C8    D T 801       2.000  21.775 300.755  1.00 36.70     0.111 A 
HETATM   11  C9    D T 801       2.235  20.853 301.830  1.00 37.64     0.081 A 
HETATM   12  C10   D T 801       1.161  20.217 302.506  1.00 39.25     0.025 A 
HETATM   13 CL16   D T 801       3.855  20.472 302.358  1.00 38.51    -0.080 Cl
HETATM   14  C11   D T 801      -0.188  20.515 302.099  1.00 40.14     0.059 A 
HETATM   15  C12   D T 801      -0.460  21.433 301.031  1.00 40.20     0.013 A 
HETATM   16 CL15   D T 801      -1.493  19.768 302.904  1.00 39.51    -0.082 Cl
HETATM   17  C13   D T 801       0.634  22.052 300.372  1.00 38.62     0.026 A 
ENDBRANCH   1  10
TORSDOF 2
ENDMDL
MODEL 9
REMARK VINA RESULT:      -7.2      1.696      2.092
REMARK  2 active torsions:
REMARK  status: ('A' for Active; 'I' for Inactive)
REMARK    1  A    between atoms: C5_4  and  O7_13 
REMARK    2  A    between atoms: C8_10  and  O7_13 
ROOT
HETATM    1  O7    D T 801       5.630  23.301 301.001  1.00 34.56    -0.304 OA
ENDROOT
BRANCH   1   2
HETATM    2  C5    D T 801       6.398  22.170 301.153  1.00 33.66     0.125 A 
HETATM    3  C6    D T 801       6.563  21.667 302.468  1.00 32.08     0.154 A 
HETATM    4  C1    D T 801       7.373  20.497 302.660  1.00 31.11     0.041 A 
HETATM    5  O17   D T 801       5.984  22.268 303.532  1.00 34.11    -0.188 OA
HETATM    6  C2    D T 801       7.967  19.901 301.513  1.00 31.49     0.060 A 
HETATM    7  C3    D T 801       7.813  20.385 300.182  1.00 31.32     0.014 A 
HETATM    8 CL14   D T 801       8.961  18.495 301.753  1.00 29.53    -0.082 Cl
HETATM    9  C4    D T 801       7.008  21.544 300.011  1.00 31.98     0.028 A 
ENDBRANCH   1   2
BRANCH   1  10
HETATM   10  C8    D T 801       4.782  23.594 299.936  1.00 36.70     0.111 A 
HETATM   11  C9    D T 801       5.182  24.633 299.029  1.00 37.64     0.081 A 
HETATM   12  C10   D T 801       4.375  24.995 297.919  1.00 39.25     0.025 A 
HETATM   13 CL16   D T 801       6.683  25.498 299.248  1.00 38.51    -0.080 Cl
HETATM   14  C11   D T 801       3.134  24.296 297.707  1.00 40.14     0.059 A 
HETATM   15  C12   D T 801       2.705  23.251 298.591  1.00 40.20     0.013 A 
HETATM   16 CL15   D T 801       2.153  24.710 296.375  1.00 39.51    -0.082 Cl
HETATM   17  C13   D T 801       3.532  22.912 299.694  1.00 38.62     0.026 A 
ENDBRANCH   1  10
TORSDOF 2
ENDMDL
