MODEL 1
REMARK VINA RESULT:    -7.789      0.000      0.000
REMARK INTER + INTRA:          -9.123
REMARK INTER:                  -8.700
REMARK INTRA:                  -0.423
REMARK UNBOUND:                -0.423
REMARK  2 active torsions:
REMARK  status: ('A' for Active; 'I' for Inactive)
REMARK    1  A    between atoms: C5_4  and  O7_13 
REMARK    2  A    between atoms: C8_10  and  O7_13 
ROOT
HETATM    1  O7    D T 801       5.772   0.344  -7.652  1.00 34.56    -0.304 OA
ENDROOT
BRANCH   1   2
HETATM    2  C5    D T 801       5.037   1.184  -6.848  1.00 33.66     0.125 A 
HETATM    3  C6    D T 801       4.051   0.592  -6.020  1.00 32.08     0.154 A 
HETATM    4  C1    D T 801       3.257   1.445  -5.180  1.00 31.11     0.041 A 
HETATM    5  O17   D T 801       3.842  -0.743  -6.012  1.00 34.11    -0.188 OA
HETATM    6  C2    D T 801       3.507   2.846  -5.224  1.00 31.49     0.060 A 
HETATM    7  C3    D T 801       4.495   3.462  -6.045  1.00 31.32     0.014 A 
HETATM    8 CL14   D T 801       2.533   3.875  -4.219  1.00 29.53    -0.082 Cl
HETATM    9  C4    D T 801       5.271   2.603  -6.869  1.00 31.98     0.028 A 
ENDBRANCH   1   2
BRANCH   1  10
HETATM   10  C8    D T 801       6.235   0.617  -8.937  1.00 36.70     0.111 A 
HETATM   11  C9    D T 801       5.299   0.524 -10.021  1.00 37.64     0.081 A 
HETATM   12  C10   D T 801       5.690   0.784 -11.360  1.00 39.25     0.025 A 
HETATM   13 CL16   D T 801       3.631   0.088  -9.741  1.00 38.51    -0.080 Cl
HETATM   14  C11   D T 801       7.058   1.153 -11.624  1.00 40.14     0.059 A 
HETATM   15  C12   D T 801       8.020   1.258 -10.564  1.00 40.20     0.013 A 
HETATM   16 CL15   D T 801       7.548   1.476 -13.225  1.00 39.51    -0.082 Cl
HETATM   17  C13   D T 801       7.600   0.990  -9.236  1.00 38.62     0.026 A 
ENDBRANCH   1  10
TORSDOF 2
ENDMDL
MODEL 2
REMARK VINA RESULT:    -7.617      1.113      5.969
REMARK INTER + INTRA:          -8.930
REMARK INTER:                  -8.557
REMARK INTRA:                  -0.373
REMARK UNBOUND:                -0.423
REMARK  2 active torsions:
REMARK  status: ('A' for Active; 'I' for Inactive)
REMARK    1  A    between atoms: C5_4  and  O7_13 
REMARK    2  A    between atoms: C8_10  and  O7_13 
ROOT
HETATM    1  O7    D T 801       5.816   0.429  -7.711  1.00 34.56    -0.304 OA
ENDROOT
BRANCH   1   2
HETATM    2  C5    D T 801       6.233   0.680  -8.998  1.00 33.66     0.125 A 
HETATM    3  C6    D T 801       5.280   0.518 -10.033  1.00 32.08     0.154 A 
HETATM    4  C1    D T 801       5.690   0.757 -11.389  1.00 31.11     0.041 A 
HETATM    5  O17   D T 801       4.009   0.140  -9.772  1.00 34.11    -0.188 OA
HETATM    6  C2    D T 801       7.039   1.148 -11.619  1.00 31.49     0.060 A 
HETATM    7  C3    D T 801       8.014   1.321 -10.594  1.00 31.32     0.014 A 
HETATM    8 CL14   D T 801       7.535   1.420 -13.262  1.00 29.53    -0.082 Cl
HETATM    9  C4    D T 801       7.590   1.079  -9.259  1.00 31.98     0.028 A 
ENDBRANCH   1   2
BRANCH   1  10
HETATM   10  C8    D T 801       5.099   1.292  -6.885  1.00 36.70     0.111 A 
HETATM   11  C9    D T 801       3.969   0.759  -6.179  1.00 37.64     0.081 A 
HETATM   12  C10   D T 801       3.184   1.571  -5.320  1.00 39.25     0.025 A 
HETATM   13 CL16   D T 801       3.508  -0.918  -6.342  1.00 38.51    -0.080 Cl
HETATM   14  C11   D T 801       3.542   2.958  -5.159  1.00 40.14     0.059 A 
HETATM   15  C12   D T 801       4.667   3.523  -5.847  1.00 40.20     0.013 A 
HETATM   16 CL15   D T 801       2.616   3.951  -4.126  1.00 39.51    -0.082 Cl
HETATM   17  C13   D T 801       5.432   2.687  -6.701  1.00 38.62     0.026 A 
ENDBRANCH   1  10
TORSDOF 2
ENDMDL
MODEL 3
REMARK VINA RESULT:    -7.526      1.379      1.832
REMARK INTER + INTRA:          -8.829
REMARK INTER:                  -8.406
REMARK INTRA:                  -0.423
REMARK UNBOUND:                -0.423
REMARK  2 active torsions:
REMARK  status: ('A' for Active; 'I' for Inactive)
REMARK    1  A    between atoms: C5_4  and  O7_13 
REMARK    2  A    between atoms: C8_10  and  O7_13 
ROOT
HETATM    1  O7    D T 801       5.373   0.535  -7.363  1.00 34.56    -0.304 OA
ENDROOT
BRANCH   1   2
HETATM    2  C5    D T 801       4.724   1.452  -6.569  1.00 33.66     0.125 A 
HETATM    3  C6    D T 801       3.874   0.947  -5.554  1.00 32.08     0.154 A 
HETATM    4  C1    D T 801       3.171   1.880  -4.719  1.00 31.11     0.041 A 
HETATM    5  O17   D T 801       3.711  -0.381  -5.365  1.00 34.11    -0.188 OA
HETATM    6  C2    D T 801       3.370   3.270  -4.956  1.00 31.49     0.060 A 
HETATM    7  C3    D T 801       4.221   3.801  -5.968  1.00 31.32     0.014 A 
HETATM    8 CL14   D T 801       2.503   4.395  -3.955  1.00 29.53    -0.082 Cl
HETATM    9  C4    D T 801       4.908   2.862  -6.784  1.00 31.98     0.028 A 
ENDBRANCH   1   2
BRANCH   1  10
HETATM   10  C8    D T 801       5.828   0.736  -8.665  1.00 36.70     0.111 A 
HETATM   11  C9    D T 801       7.215   1.058  -8.848  1.00 37.64     0.081 A 
HETATM   12  C10   D T 801       7.758   1.279 -10.140  1.00 39.25     0.025 A 
HETATM   13 CL16   D T 801       8.301   1.188  -7.486  1.00 38.51    -0.080 Cl
HETATM   14  C11   D T 801       6.889   1.173 -11.285  1.00 40.14     0.059 A 
HETATM   15  C12   D T 801       5.499   0.850 -11.139  1.00 40.20     0.013 A 
HETATM   16 CL15   D T 801       7.522   1.429 -12.848  1.00 39.51    -0.082 Cl
HETATM   17  C13   D T 801       4.984   0.636  -9.834  1.00 38.62     0.026 A 
ENDBRANCH   1  10
TORSDOF 2
ENDMDL
MODEL 4
REMARK VINA RESULT:    -7.503      1.490      6.171
REMARK INTER + INTRA:          -8.803
REMARK INTER:                  -8.398
REMARK INTRA:                  -0.405
REMARK UNBOUND:                -0.423
REMARK  2 active torsions:
REMARK  status: ('A' for Active; 'I' for Inactive)
REMARK    1  A    between atoms: C5_4  and  O7_13 
REMARK    2  A    between atoms: C8_10  and  O7_13 
ROOT
HETATM    1  O7    D T 801       5.317   0.700  -7.132  1.00 34.56    -0.304 OA
ENDROOT
BRANCH   1   2
HETATM    2  C5    D T 801       5.758   0.797  -8.431  1.00 33.66     0.125 A 
HETATM    3  C6    D T 801       7.144   1.014  -8.632  1.00 32.08     0.154 A 
HETATM    4  C1    D T 801       7.632   1.135  -9.978  1.00 31.11     0.041 A 
HETATM    5  O17   D T 801       8.002   1.115  -7.594  1.00 34.11    -0.188 OA
HETATM    6  C2    D T 801       6.692   1.028 -11.041  1.00 31.49     0.060 A 
HETATM    7  C3    D T 801       5.296   0.806 -10.863  1.00 31.32     0.014 A 
HETATM    8 CL14   D T 801       7.285   1.193 -12.666  1.00 29.53    -0.082 Cl
HETATM    9  C4    D T 801       4.832   0.688  -9.526  1.00 31.98     0.028 A 
ENDBRANCH   1   2
BRANCH   1  10
HETATM   10  C8    D T 801       4.672   1.691  -6.396  1.00 36.70     0.111 A 
HETATM   11  C9    D T 801       3.899   1.284  -5.257  1.00 37.64     0.081 A 
HETATM   12  C10   D T 801       3.209   2.231  -4.456  1.00 39.25     0.025 A 
HETATM   13 CL16   D T 801       3.774  -0.397  -4.801  1.00 38.51    -0.080 Cl
HETATM   14  C11   D T 801       3.297   3.627  -4.801  1.00 40.14     0.059 A 
HETATM   15  C12   D T 801       4.063   4.070  -5.931  1.00 40.20     0.013 A 
HETATM   16 CL15   D T 801       2.481   4.783  -3.848  1.00 39.51    -0.082 Cl
HETATM   17  C13   D T 801       4.740   3.099  -6.715  1.00 38.62     0.026 A 
ENDBRANCH   1  10
TORSDOF 2
ENDMDL
MODEL 5
REMARK VINA RESULT:    -7.334      2.120      6.223
REMARK INTER + INTRA:          -8.614
REMARK INTER:                  -8.274
REMARK INTRA:                  -0.340
REMARK UNBOUND:                -0.423
REMARK  2 active torsions:
REMARK  status: ('A' for Active; 'I' for Inactive)
REMARK    1  A    between atoms: C5_4  and  O7_13 
REMARK    2  A    between atoms: C8_10  and  O7_13 
ROOT
HETATM    1  O7    D T 801       6.270   2.790  -7.324  1.00 34.56    -0.304 OA
ENDROOT
BRANCH   1   2
HETATM    2  C5    D T 801       6.539   2.417  -8.621  1.00 33.66     0.125 A 
HETATM    3  C6    D T 801       5.664   2.894  -9.628  1.00 32.08     0.154 A 
HETATM    4  C1    D T 801       5.910   2.510 -10.990  1.00 31.11     0.041 A 
HETATM    5  O17   D T 801       4.612   3.690  -9.333  1.00 34.11    -0.188 OA
HETATM    6  C2    D T 801       7.026   1.667 -11.255  1.00 31.49     0.060 A 
HETATM    7  C3    D T 801       7.920   1.178 -10.260  1.00 31.32     0.014 A 
HETATM    8 CL14   D T 801       7.308   1.190 -12.902  1.00 29.53    -0.082 Cl
HETATM    9  C4    D T 801       7.662   1.569  -8.918  1.00 31.98     0.028 A 
ENDBRANCH   1   2
BRANCH   1  10
HETATM   10  C8    D T 801       5.628   2.023  -6.354  1.00 36.70     0.111 A 
HETATM   11  C9    D T 801       4.507   2.606  -5.674  1.00 37.64     0.081 A 
HETATM   12  C10   D T 801       3.798   1.894  -4.672  1.00 39.25     0.025 A 
HETATM   13 CL16   D T 801       3.958   4.221  -6.051  1.00 38.51    -0.080 Cl
HETATM   14  C11   D T 801       4.221   0.557  -4.342  1.00 40.14     0.059 A 
HETATM   15  C12   D T 801       5.336  -0.058  -5.003  1.00 40.20     0.013 A 
HETATM   16 CL15   D T 801       3.380  -0.320  -3.144  1.00 39.51    -0.082 Cl
HETATM   17  C13   D T 801       6.026   0.680  -6.000  1.00 38.62     0.026 A 
ENDBRANCH   1  10
TORSDOF 2
ENDMDL
MODEL 6
REMARK VINA RESULT:    -7.326      9.327     12.311
REMARK INTER + INTRA:          -8.606
REMARK INTER:                  -8.146
REMARK INTRA:                  -0.460
REMARK UNBOUND:                -0.423
REMARK  2 active torsions:
REMARK  status: ('A' for Active; 'I' for Inactive)
REMARK    1  A    between atoms: C5_4  and  O7_13 
REMARK    2  A    between atoms: C8_10  and  O7_13 
ROOT
HETATM    1  O7    D T 801       6.293   5.853   2.902  1.00 34.56    -0.304 OA
ENDROOT
BRANCH   1   2
HETATM    2  C5    D T 801       5.875   5.965   1.596  1.00 33.66     0.125 A 
HETATM    3  C6    D T 801       5.936   7.249   1.002  1.00 32.08     0.154 A 
HETATM    4  C1    D T 801       5.492   7.401  -0.355  1.00 31.11     0.041 A 
HETATM    5  O17   D T 801       6.393   8.323   1.684  1.00 34.11    -0.188 OA
HETATM    6  C2    D T 801       5.012   6.245  -1.034  1.00 31.49     0.060 A 
HETATM    7  C3    D T 801       4.945   4.944  -0.459  1.00 31.32     0.014 A 
HETATM    8 CL14   D T 801       4.459   6.437  -2.670  1.00 29.53    -0.082 Cl
HETATM    9  C4    D T 801       5.389   4.813   0.885  1.00 31.98     0.028 A 
ENDBRANCH   1   2
BRANCH   1  10
HETATM   10  C8    D T 801       7.191   4.917   3.411  1.00 36.70     0.111 A 
HETATM   11  C9    D T 801       6.707   3.989   4.392  1.00 37.64     0.081 A 
HETATM   12  C10   D T 801       7.557   3.006   4.962  1.00 39.25     0.025 A 
HETATM   13 CL16   D T 801       5.045   4.023   4.928  1.00 38.51    -0.080 Cl
HETATM   14  C11   D T 801       8.932   2.947   4.535  1.00 40.14     0.059 A 
HETATM   15  C12   D T 801       9.449   3.858   3.555  1.00 40.20     0.013 A 
HETATM   16 CL15   D T 801       9.970   1.769   5.203  1.00 39.51    -0.082 Cl
HETATM   17  C13   D T 801       8.576   4.831   3.004  1.00 38.62     0.026 A 
ENDBRANCH   1  10
TORSDOF 2
ENDMDL
MODEL 7
REMARK VINA RESULT:    -7.037      2.183      2.446
REMARK INTER + INTRA:          -8.283
REMARK INTER:                  -7.835
REMARK INTRA:                  -0.448
REMARK UNBOUND:                -0.423
REMARK  2 active torsions:
REMARK  status: ('A' for Active; 'I' for Inactive)
REMARK    1  A    between atoms: C5_4  and  O7_13 
REMARK    2  A    between atoms: C8_10  and  O7_13 
ROOT
HETATM    1  O7    D T 801       4.161   1.834  -6.851  1.00 34.56    -0.304 OA
ENDROOT
BRANCH   1   2
HETATM    2  C5    D T 801       4.501   2.313  -5.607  1.00 33.66     0.125 A 
HETATM    3  C6    D T 801       4.542   1.381  -4.541  1.00 32.08     0.154 A 
HETATM    4  C1    D T 801       4.878   1.854  -3.227  1.00 31.11     0.041 A 
HETATM    5  O17   D T 801       4.268   0.072  -4.735  1.00 34.11    -0.188 OA
HETATM    6  C2    D T 801       5.155   3.241  -3.067  1.00 31.49     0.060 A 
HETATM    7  C3    D T 801       5.123   4.196  -4.124  1.00 31.32     0.014 A 
HETATM    8 CL14   D T 801       5.544   3.812  -1.473  1.00 29.53    -0.082 Cl
HETATM    9  C4    D T 801       4.788   3.709  -5.417  1.00 31.98     0.028 A 
ENDBRANCH   1   2
BRANCH   1  10
HETATM   10  C8    D T 801       5.038   1.476  -7.873  1.00 36.70     0.111 A 
HETATM   11  C9    D T 801       5.286   2.435  -8.910  1.00 37.64     0.081 A 
HETATM   12  C10   D T 801       6.164   2.148  -9.988  1.00 39.25     0.025 A 
HETATM   13 CL16   D T 801       4.522   4.006  -8.893  1.00 38.51    -0.080 Cl
HETATM   14  C11   D T 801       6.816   0.864 -10.028  1.00 40.14     0.059 A 
HETATM   15  C12   D T 801       6.593  -0.118  -9.006  1.00 40.20     0.013 A 
HETATM   16 CL15   D T 801       7.880   0.501 -11.310  1.00 39.51    -0.082 Cl
HETATM   17  C13   D T 801       5.708   0.197  -7.942  1.00 38.62     0.026 A 
ENDBRANCH   1  10
TORSDOF 2
ENDMDL
MODEL 8
REMARK VINA RESULT:    -6.991      2.211      2.793
REMARK INTER + INTRA:          -8.232
REMARK INTER:                  -7.757
REMARK INTRA:                  -0.475
REMARK UNBOUND:                -0.423
REMARK  2 active torsions:
REMARK  status: ('A' for Active; 'I' for Inactive)
REMARK    1  A    between atoms: C5_4  and  O7_13 
REMARK    2  A    between atoms: C8_10  and  O7_13 
ROOT
HETATM    1  O7    D T 801       5.705   1.147  -5.412  1.00 34.56    -0.304 OA
ENDROOT
BRANCH   1   2
HETATM    2  C5    D T 801       4.999   2.189  -4.857  1.00 33.66     0.125 A 
HETATM    3  C6    D T 801       5.637   2.934  -3.834  1.00 32.08     0.154 A 
HETATM    4  C1    D T 801       4.920   4.019  -3.225  1.00 31.11     0.041 A 
HETATM    5  O17   D T 801       6.890   2.641  -3.422  1.00 34.11    -0.188 OA
HETATM    6  C2    D T 801       3.601   4.290  -3.685  1.00 31.49     0.060 A 
HETATM    7  C3    D T 801       2.941   3.557  -4.714  1.00 31.32     0.014 A 
HETATM    8 CL14   D T 801       2.731   5.592  -2.933  1.00 29.53    -0.082 Cl
HETATM    9  C4    D T 801       3.666   2.488  -5.305  1.00 31.98     0.028 A 
ENDBRANCH   1   2
BRANCH   1  10
HETATM   10  C8    D T 801       6.217   1.084  -6.706  1.00 36.70     0.111 A 
HETATM   11  C9    D T 801       5.786   0.002  -7.545  1.00 37.64     0.081 A 
HETATM   12  C10   D T 801       6.261  -0.136  -8.875  1.00 39.25     0.025 A 
HETATM   13 CL16   D T 801       4.652  -1.195  -6.968  1.00 38.51    -0.080 Cl
HETATM   14  C11   D T 801       7.193   0.838  -9.383  1.00 40.14     0.059 A 
HETATM   15  C12   D T 801       7.643   1.934  -8.573  1.00 40.20     0.013 A 
HETATM   16 CL15   D T 801       7.772   0.695 -10.981  1.00 39.51    -0.082 Cl
HETATM   17  C13   D T 801       7.151   2.045  -7.246  1.00 38.62     0.026 A 
ENDBRANCH   1  10
TORSDOF 2
ENDMDL
MODEL 9
REMARK VINA RESULT:    -6.970      1.799      1.988
REMARK INTER + INTRA:          -8.208
REMARK INTER:                  -7.777
REMARK INTRA:                  -0.431
REMARK UNBOUND:                -0.423
REMARK  2 active torsions:
REMARK  status: ('A' for Active; 'I' for Inactive)
REMARK    1  A    between atoms: C5_4  and  O7_13 
REMARK    2  A    between atoms: C8_10  and  O7_13 
ROOT
HETATM    1  O7    D T 801       4.112   1.733  -7.680  1.00 34.56    -0.304 OA
ENDROOT
BRANCH   1   2
HETATM    2  C5    D T 801       4.484   2.141  -6.420  1.00 33.66     0.125 A 
HETATM    3  C6    D T 801       4.075   1.335  -5.329  1.00 32.08     0.154 A 
HETATM    4  C1    D T 801       4.436   1.744  -4.000  1.00 31.11     0.041 A 
HETATM    5  O17   D T 801       3.355   0.207  -5.513  1.00 34.11    -0.188 OA
HETATM    6  C2    D T 801       5.190   2.942  -3.851  1.00 31.49     0.060 A 
HETATM    7  C3    D T 801       5.615   3.766  -4.933  1.00 31.32     0.014 A 
HETATM    8 CL14   D T 801       5.609   3.442  -2.241  1.00 29.53    -0.082 Cl
HETATM    9  C4    D T 801       5.250   3.345  -6.241  1.00 31.98     0.028 A 
ENDBRANCH   1   2
BRANCH   1  10
HETATM   10  C8    D T 801       4.933   1.640  -8.802  1.00 36.70     0.111 A 
HETATM   11  C9    D T 801       5.764   0.477  -8.931  1.00 37.64     0.081 A 
HETATM   12  C10   D T 801       6.630   0.307 -10.041  1.00 39.25     0.025 A 
HETATM   13 CL16   D T 801       5.743  -0.788  -7.726  1.00 38.51    -0.080 Cl
HETATM   14  C11   D T 801       6.666   1.329 -11.056  1.00 40.14     0.059 A 
HETATM   15  C12   D T 801       5.847   2.504 -10.961  1.00 40.20     0.013 A 
HETATM   16 CL15   D T 801       7.695   1.142 -12.403  1.00 39.51    -0.082 Cl
HETATM   17  C13   D T 801       4.992   2.647  -9.838  1.00 38.62     0.026 A 
ENDBRANCH   1  10
TORSDOF 2
ENDMDL
