MODEL 1
REMARK VINA RESULT:      -8.2      0.000      0.000
REMARK  2 active torsions:
REMARK  status: ('A' for Active; 'I' for Inactive)
REMARK    1  A    between atoms: C5_4  and  O7_13 
REMARK    2  A    between atoms: C8_10  and  O7_13 
ROOT
HETATM    1  O7    D T 801       4.602  24.183 299.604  1.00 34.56    -0.304 OA
ENDROOT
BRANCH   1   2
HETATM    2  C5    D T 801       5.521  23.270 300.067  1.00 33.66     0.125 A 
HETATM    3  C6    D T 801       6.392  23.693 301.102  1.00 32.08     0.154 A 
HETATM    4  C1    D T 801       7.372  22.767 301.596  1.00 31.11     0.041 A 
HETATM    5  O17   D T 801       6.321  24.938 301.621  1.00 34.11    -0.188 OA
HETATM    6  C2    D T 801       7.416  21.468 301.017  1.00 31.49     0.060 A 
HETATM    7  C3    D T 801       6.549  21.019 299.979  1.00 31.32     0.014 A 
HETATM    8 CL14   D T 801       8.616  20.357 301.606  1.00 29.53    -0.082 Cl
HETATM    9  C4    D T 801       5.585  21.949 299.503  1.00 31.98     0.028 A 
ENDBRANCH   1   2
BRANCH   1  10
HETATM   10  C8    D T 801       4.204  24.365 298.281  1.00 36.70     0.111 A 
HETATM   11  C9    D T 801       5.090  25.080 297.407  1.00 37.64     0.081 A 
HETATM   12  C10   D T 801       4.759  25.310 296.047  1.00 39.25     0.025 A 
HETATM   13 CL16   D T 801       6.621  25.698 297.978  1.00 38.51    -0.080 Cl
HETATM   14  C11   D T 801       3.507  24.807 295.544  1.00 40.14     0.059 A 
HETATM   15  C12   D T 801       2.598  24.086 296.388  1.00 40.20     0.013 A 
HETATM   16 CL15   D T 801       3.092  25.066 293.909  1.00 39.51    -0.082 Cl
HETATM   17  C13   D T 801       2.956  23.873 297.745  1.00 38.62     0.026 A 
ENDBRANCH   1  10
TORSDOF 2
ENDMDL
MODEL 2
REMARK VINA RESULT:      -8.0      1.087      5.963
REMARK  2 active torsions:
REMARK  status: ('A' for Active; 'I' for Inactive)
REMARK    1  A    between atoms: C5_4  and  O7_13 
REMARK    2  A    between atoms: C8_10  and  O7_13 
ROOT
HETATM    1  O7    D T 801       4.592  24.299 299.478  1.00 34.56    -0.304 OA
ENDROOT
BRANCH   1   2
HETATM    2  C5    D T 801       4.220  24.457 298.164  1.00 33.66     0.125 A 
HETATM    3  C6    D T 801       5.142  25.100 297.300  1.00 32.08     0.154 A 
HETATM    4  C1    D T 801       4.775  25.293 295.925  1.00 31.11     0.041 A 
HETATM    5  O17   D T 801       6.342  25.535 297.744  1.00 34.11    -0.188 OA
HETATM    6  C2    D T 801       3.499  24.825 295.502  1.00 31.49     0.060 A 
HETATM    7  C3    D T 801       2.558  24.173 296.350  1.00 31.32     0.014 A 
HETATM    8 CL14   D T 801       3.053  25.077 293.841  1.00 29.53    -0.082 Cl
HETATM    9  C4    D T 801       2.939  23.991 297.707  1.00 31.98     0.028 A 
ENDBRANCH   1   2
BRANCH   1  10
HETATM   10  C8    D T 801       5.481  23.353 299.983  1.00 36.70     0.111 A 
HETATM   11  C9    D T 801       6.502  23.807 300.884  1.00 37.64     0.081 A 
HETATM   12  C10   D T 801       7.448  22.908 301.442  1.00 39.25     0.025 A 
HETATM   13 CL16   D T 801       6.625  25.488 301.340  1.00 38.51    -0.080 Cl
HETATM   14  C11   D T 801       7.369  21.513 301.091  1.00 40.14     0.059 A 
HETATM   15  C12   D T 801       6.360  21.024 300.196  1.00 40.20     0.013 A 
HETATM   16 CL15   D T 801       8.492  20.414 301.756  1.00 39.51    -0.082 Cl
HETATM   17  C13   D T 801       5.429  21.947 299.653  1.00 38.62     0.026 A 
ENDBRANCH   1  10
TORSDOF 2
ENDMDL
MODEL 3
REMARK VINA RESULT:      -7.9      1.431      1.872
REMARK  2 active torsions:
REMARK  status: ('A' for Active; 'I' for Inactive)
REMARK    1  A    between atoms: C5_4  and  O7_13 
REMARK    2  A    between atoms: C8_10  and  O7_13 
ROOT
HETATM    1  O7    D T 801       4.961  23.860 299.940  1.00 34.56    -0.304 OA
ENDROOT
BRANCH   1   2
HETATM    2  C5    D T 801       5.861  22.903 300.346  1.00 33.66     0.125 A 
HETATM    3  C6    D T 801       6.577  23.149 301.545  1.00 32.08     0.154 A 
HETATM    4  C1    D T 801       7.535  22.175 301.986  1.00 31.11     0.041 A 
HETATM    5  O17   D T 801       6.380  24.275 302.266  1.00 34.11    -0.188 OA
HETATM    6  C2    D T 801       7.714  21.007 301.192  1.00 31.49     0.060 A 
HETATM    7  C3    D T 801       7.004  20.735 299.987  1.00 31.32     0.014 A 
HETATM    8 CL14   D T 801       8.887  19.840 301.721  1.00 29.53    -0.082 Cl
HETATM    9  C4    D T 801       6.060  21.711 299.566  1.00 31.98     0.028 A 
ENDBRANCH   1   2
BRANCH   1  10
HETATM   10  C8    D T 801       4.598  24.158 298.629  1.00 36.70     0.111 A 
HETATM   11  C9    D T 801       3.348  23.642 298.147  1.00 37.64     0.081 A 
HETATM   12  C10   D T 801       2.904  23.897 296.823  1.00 39.25     0.025 A 
HETATM   13 CL16   D T 801       2.311  22.678 299.170  1.00 38.51    -0.080 Cl
HETATM   14  C11   D T 801       3.733  24.694 295.956  1.00 40.14     0.059 A 
HETATM   15  C12   D T 801       4.987  25.228 296.406  1.00 40.20     0.013 A 
HETATM   16 CL15   D T 801       3.216  25.019 294.364  1.00 39.51    -0.082 Cl
HETATM   17  C13   D T 801       5.405  24.955 297.734  1.00 38.62     0.026 A 
ENDBRANCH   1  10
TORSDOF 2
ENDMDL
MODEL 4
REMARK VINA RESULT:      -7.9      9.421     12.467
REMARK  2 active torsions:
REMARK  status: ('A' for Active; 'I' for Inactive)
REMARK    1  A    between atoms: C5_4  and  O7_13 
REMARK    2  A    between atoms: C8_10  and  O7_13 
ROOT
HETATM    1  O7    D T 801       6.176  15.327 307.353  1.00 34.56    -0.304 OA
ENDROOT
BRANCH   1   2
HETATM    2  C5    D T 801       6.502  15.576 306.040  1.00 33.66     0.125 A 
HETATM    3  C6    D T 801       6.938  14.475 305.259  1.00 32.08     0.154 A 
HETATM    4  C1    D T 801       7.300  14.706 303.889  1.00 31.11     0.041 A 
HETATM    5  O17   D T 801       7.023  13.230 305.778  1.00 34.11    -0.188 OA
HETATM    6  C2    D T 801       7.201  16.034 303.386  1.00 31.49     0.060 A 
HETATM    7  C3    D T 801       6.763  17.154 304.150  1.00 31.32     0.014 A 
HETATM    8 CL14   D T 801       7.658  16.310 301.732  1.00 29.53    -0.082 Cl
HETATM    9  C4    D T 801       6.408  16.906 305.504  1.00 31.98     0.028 A 
ENDBRANCH   1   2
BRANCH   1  10
HETATM   10  C8    D T 801       4.907  15.398 307.922  1.00 36.70     0.111 A 
HETATM   11  C9    D T 801       4.814  15.755 309.310  1.00 37.64     0.081 A 
HETATM   12  C10   D T 801       3.560  15.847 309.967  1.00 39.25     0.025 A 
HETATM   13 CL16   D T 801       6.243  16.097 310.254  1.00 38.51    -0.080 Cl
HETATM   14  C11   D T 801       2.362  15.577 309.214  1.00 40.14     0.059 A 
HETATM   15  C12   D T 801       2.417  15.220 307.825  1.00 40.20     0.013 A 
HETATM   16 CL15   D T 801       0.843  15.689 309.982  1.00 39.51    -0.082 Cl
HETATM   17  C13   D T 801       3.686  15.134 307.196  1.00 38.62     0.026 A 
ENDBRANCH   1  10
TORSDOF 2
ENDMDL
MODEL 5
REMARK VINA RESULT:      -7.7      9.637     12.085
REMARK  2 active torsions:
REMARK  status: ('A' for Active; 'I' for Inactive)
REMARK    1  A    between atoms: C5_4  and  O7_13 
REMARK    2  A    between atoms: C8_10  and  O7_13 
ROOT
HETATM    1  O7    D T 801       6.471  14.997 307.157  1.00 34.56    -0.304 OA
ENDROOT
BRANCH   1   2
HETATM    2  C5    D T 801       5.360  15.267 307.920  1.00 33.66     0.125 A 
HETATM    3  C6    D T 801       5.576  15.730 309.242  1.00 32.08     0.154 A 
HETATM    4  C1    D T 801       4.435  16.006 310.069  1.00 31.11     0.041 A 
HETATM    5  O17   D T 801       6.822  15.908 309.734  1.00 34.11    -0.188 OA
HETATM    6  C2    D T 801       3.141  15.799 309.513  1.00 31.49     0.060 A 
HETATM    7  C3    D T 801       2.899  15.338 308.187  1.00 31.32     0.014 A 
HETATM    8 CL14   D T 801       1.763  16.117 310.523  1.00 29.53    -0.082 Cl
HETATM    9  C4    D T 801       4.041  15.071 307.383  1.00 31.98     0.028 A 
ENDBRANCH   1   2
BRANCH   1  10
HETATM   10  C8    D T 801       6.599  15.175 305.781  1.00 36.70     0.111 A 
HETATM   11  C9    D T 801       6.604  14.003 304.952  1.00 37.64     0.081 A 
HETATM   12  C10   D T 801       6.732  14.097 303.542  1.00 39.25     0.025 A 
HETATM   13 CL16   D T 801       6.449  12.406 305.641  1.00 38.51    -0.080 Cl
HETATM   14  C11   D T 801       6.856  15.400 302.942  1.00 40.14     0.059 A 
HETATM   15  C12   D T 801       6.852  16.593 303.740  1.00 40.20     0.013 A 
HETATM   16 CL15   D T 801       7.004  15.536 301.248  1.00 39.51    -0.082 Cl
HETATM   17  C13   D T 801       6.724  16.468 305.147  1.00 38.62     0.026 A 
ENDBRANCH   1  10
TORSDOF 2
ENDMDL
MODEL 6
REMARK VINA RESULT:      -7.5      2.516      3.083
REMARK  2 active torsions:
REMARK  status: ('A' for Active; 'I' for Inactive)
REMARK    1  A    between atoms: C5_4  and  O7_13 
REMARK    2  A    between atoms: C8_10  and  O7_13 
ROOT
HETATM    1  O7    D T 801       5.849  21.807 298.936  1.00 34.56    -0.304 OA
ENDROOT
BRANCH   1   2
HETATM    2  C5    D T 801       6.056  22.181 300.243  1.00 33.66     0.125 A 
HETATM    3  C6    D T 801       6.337  21.152 301.177  1.00 32.08     0.154 A 
HETATM    4  C1    D T 801       6.543  21.509 302.552  1.00 31.11     0.041 A 
HETATM    5  O17   D T 801       6.407  19.855 300.800  1.00 34.11    -0.188 OA
HETATM    6  C2    D T 801       6.454  22.885 302.905  1.00 31.49     0.060 A 
HETATM    7  C3    D T 801       6.177  23.936 301.985  1.00 31.32     0.014 A 
HETATM    8 CL14   D T 801       6.686  23.310 304.574  1.00 29.53    -0.082 Cl
HETATM    9  C4    D T 801       5.976  23.564 300.628  1.00 31.98     0.028 A 
ENDBRANCH   1   2
BRANCH   1  10
HETATM   10  C8    D T 801       5.229  22.562 297.943  1.00 36.70     0.111 A 
HETATM   11  C9    D T 801       3.798  22.499 297.849  1.00 37.64     0.081 A 
HETATM   12  C10   D T 801       3.089  23.235 296.865  1.00 39.25     0.025 A 
HETATM   13 CL16   D T 801       2.861  21.513 298.945  1.00 38.51    -0.080 Cl
HETATM   14  C11   D T 801       3.831  24.063 295.949  1.00 40.14     0.059 A 
HETATM   15  C12   D T 801       5.262  24.152 296.016  1.00 40.20     0.013 A 
HETATM   16 CL15   D T 801       2.999  24.962 294.763  1.00 39.51    -0.082 Cl
HETATM   17  C13   D T 801       5.944  23.403 297.010  1.00 38.62     0.026 A 
ENDBRANCH   1  10
TORSDOF 2
ENDMDL
MODEL 7
REMARK VINA RESULT:      -7.4      1.301      1.426
REMARK  2 active torsions:
REMARK  status: ('A' for Active; 'I' for Inactive)
REMARK    1  A    between atoms: C5_4  and  O7_13 
REMARK    2  A    between atoms: C8_10  and  O7_13 
ROOT
HETATM    1  O7    D T 801       4.325  22.798 300.464  1.00 34.56    -0.304 OA
ENDROOT
BRANCH   1   2
HETATM    2  C5    D T 801       5.394  21.995 300.790  1.00 33.66     0.125 A 
HETATM    3  C6    D T 801       6.164  22.366 301.921  1.00 32.08     0.154 A 
HETATM    4  C1    D T 801       7.295  21.556 302.277  1.00 31.11     0.041 A 
HETATM    5  O17   D T 801       5.859  23.459 302.656  1.00 34.11    -0.188 OA
HETATM    6  C2    D T 801       7.582  20.418 301.473  1.00 31.49     0.060 A 
HETATM    7  C3    D T 801       6.822  20.024 300.335  1.00 31.32     0.014 A 
HETATM    8 CL14   D T 801       8.963  19.452 301.898  1.00 29.53    -0.082 Cl
HETATM    9  C4    D T 801       5.706  20.837 299.997  1.00 31.98     0.028 A 
ENDBRANCH   1   2
BRANCH   1  10
HETATM   10  C8    D T 801       3.981  23.248 299.191  1.00 36.70     0.111 A 
HETATM   11  C9    D T 801       4.610  24.447 298.713  1.00 37.64     0.081 A 
HETATM   12  C10   D T 801       4.314  24.974 297.429  1.00 39.25     0.025 A 
HETATM   13 CL16   D T 801       5.772  25.311 299.688  1.00 38.51    -0.080 Cl
HETATM   14  C11   D T 801       3.364  24.281 296.597  1.00 40.14     0.059 A 
HETATM   15  C12   D T 801       2.719  23.079 297.042  1.00 40.20     0.013 A 
HETATM   16 CL15   D T 801       2.999  24.894 295.048  1.00 39.51    -0.082 Cl
HETATM   17  C13   D T 801       3.034  22.577 298.331  1.00 38.62     0.026 A 
ENDBRANCH   1  10
TORSDOF 2
ENDMDL
MODEL 8
REMARK VINA RESULT:      -7.2      2.177      2.517
REMARK  2 active torsions:
REMARK  status: ('A' for Active; 'I' for Inactive)
REMARK    1  A    between atoms: C5_4  and  O7_13 
REMARK    2  A    between atoms: C8_10  and  O7_13 
ROOT
HETATM    1  O7    D T 801       6.667  22.875 299.998  1.00 34.56    -0.304 OA
ENDROOT
BRANCH   1   2
HETATM    2  C5    D T 801       6.520  21.835 300.888  1.00 33.66     0.125 A 
HETATM    3  C6    D T 801       6.175  22.166 302.223  1.00 32.08     0.154 A 
HETATM    4  C1    D T 801       6.031  21.103 303.177  1.00 31.11     0.041 A 
HETATM    5  O17   D T 801       5.990  23.448 302.608  1.00 34.11    -0.188 OA
HETATM    6  C2    D T 801       6.241  19.769 302.730  1.00 31.49     0.060 A 
HETATM    7  C3    D T 801       6.584  19.412 301.394  1.00 31.32     0.014 A 
HETATM    8 CL14   D T 801       6.082  18.488 303.894  1.00 29.53    -0.082 Cl
HETATM    9  C4    D T 801       6.723  20.477 300.462  1.00 31.98     0.028 A 
ENDBRANCH   1   2
BRANCH   1  10
HETATM   10  C8    D T 801       5.703  23.357 299.117  1.00 36.70     0.111 A 
HETATM   11  C9    D T 801       5.688  22.824 297.784  1.00 37.64     0.081 A 
HETATM   12  C10   D T 801       4.740  23.263 296.823  1.00 39.25     0.025 A 
HETATM   13 CL16   D T 801       6.835  21.606 297.283  1.00 38.51    -0.080 Cl
HETATM   14  C11   D T 801       3.776  24.261 297.207  1.00 40.14     0.059 A 
HETATM   15  C12   D T 801       3.760  24.814 298.531  1.00 40.20     0.013 A 
HETATM   16 CL15   D T 801       2.622  24.798 296.071  1.00 39.51    -0.082 Cl
HETATM   17  C13   D T 801       4.721  24.357 299.469  1.00 38.62     0.026 A 
ENDBRANCH   1  10
TORSDOF 2
ENDMDL
MODEL 9
REMARK VINA RESULT:      -7.2      2.433      3.013
REMARK  2 active torsions:
REMARK  status: ('A' for Active; 'I' for Inactive)
REMARK    1  A    between atoms: C5_4  and  O7_13 
REMARK    2  A    between atoms: C8_10  and  O7_13 
ROOT
HETATM    1  O7    D T 801       6.739  22.696 300.038  1.00 34.56    -0.304 OA
ENDROOT
BRANCH   1   2
HETATM    2  C5    D T 801       6.602  21.669 300.943  1.00 33.66     0.125 A 
HETATM    3  C6    D T 801       7.191  20.424 300.607  1.00 32.08     0.154 A 
HETATM    4  C1    D T 801       7.052  19.328 301.525  1.00 31.11     0.041 A 
HETATM    5  O17   D T 801       7.866  20.251 299.449  1.00 34.11    -0.188 OA
HETATM    6  C2    D T 801       6.328  19.553 302.729  1.00 31.49     0.060 A 
HETATM    7  C3    D T 801       5.731  20.795 303.090  1.00 31.32     0.014 A 
HETATM    8 CL14   D T 801       6.148  18.219 303.828  1.00 29.53    -0.082 Cl
HETATM    9  C4    D T 801       5.879  21.868 302.170  1.00 31.98     0.028 A 
ENDBRANCH   1   2
BRANCH   1  10
HETATM   10  C8    D T 801       5.782  23.132 299.125  1.00 36.70     0.111 A 
HETATM   11  C9    D T 801       5.088  24.355 299.415  1.00 37.64     0.081 A 
HETATM   12  C10   D T 801       4.097  24.868 298.539  1.00 39.25     0.025 A 
HETATM   13 CL16   D T 801       5.434  25.271 300.862  1.00 38.51    -0.080 Cl
HETATM   14  C11   D T 801       3.793  24.140 297.334  1.00 40.14     0.059 A 
HETATM   15  C12   D T 801       4.469  22.916 297.011  1.00 40.20     0.013 A 
HETATM   16 CL15   D T 801       2.611  24.743 296.262  1.00 39.51    -0.082 Cl
HETATM   17  C13   D T 801       5.454  22.427 297.908  1.00 38.62     0.026 A 
ENDBRANCH   1  10
TORSDOF 2
ENDMDL
