MODEL 1
REMARK VINA RESULT:    -7.693      0.000      0.000
REMARK INTER + INTRA:          -9.017
REMARK INTER:                  -8.593
REMARK INTRA:                  -0.425
REMARK UNBOUND:                -0.425
REMARK  2 active torsions:
REMARK  status: ('A' for Active; 'I' for Inactive)
REMARK    1  A    between atoms: C5_4  and  O7_13 
REMARK    2  A    between atoms: C8_10  and  O7_13 
ROOT
HETATM    1  O7    D T 801       6.241   0.961  -7.358  1.00 34.56    -0.304 OA
ENDROOT
BRANCH   1   2
HETATM    2  C5    D T 801       5.476   1.765  -6.546  1.00 33.66     0.125 A 
HETATM    3  C6    D T 801       4.434   1.144  -5.813  1.00 32.08     0.154 A 
HETATM    4  C1    D T 801       3.607   1.958  -4.969  1.00 31.11     0.041 A 
HETATM    5  O17   D T 801       4.203  -0.185  -5.900  1.00 34.11    -0.188 OA
HETATM    6  C2    D T 801       3.881   3.354  -4.911  1.00 31.49     0.060 A 
HETATM    7  C3    D T 801       4.925   4.000  -5.634  1.00 31.32     0.014 A 
HETATM    8 CL14   D T 801       2.867   4.339  -3.900  1.00 29.53    -0.082 Cl
HETATM    9  C4    D T 801       5.733   3.177  -6.466  1.00 31.98     0.028 A 
ENDBRANCH   1   2
BRANCH   1  10
HETATM   10  C8    D T 801       6.686   1.259  -8.644  1.00 36.70     0.111 A 
HETATM   11  C9    D T 801       5.737   1.174  -9.717  1.00 37.64     0.081 A 
HETATM   12  C10   D T 801       6.109   1.460 -11.057  1.00 39.25     0.025 A 
HETATM   13 CL16   D T 801       4.077   0.716  -9.425  1.00 38.51    -0.080 Cl
HETATM   14  C11   D T 801       7.469   1.847 -11.331  1.00 40.14     0.059 A 
HETATM   15  C12   D T 801       8.443   1.945 -10.282  1.00 40.20     0.013 A 
HETATM   16 CL15   D T 801       7.936   2.204 -12.933  1.00 39.51    -0.082 Cl
HETATM   17  C13   D T 801       8.042   1.651  -8.952  1.00 38.62     0.026 A 
ENDBRANCH   1  10
TORSDOF 2
ENDMDL
MODEL 2
REMARK VINA RESULT:    -7.643      1.269      6.143
REMARK INTER + INTRA:          -8.961
REMARK INTER:                  -8.468
REMARK INTRA:                  -0.493
REMARK UNBOUND:                -0.425
REMARK  2 active torsions:
REMARK  status: ('A' for Active; 'I' for Inactive)
REMARK    1  A    between atoms: C5_4  and  O7_13 
REMARK    2  A    between atoms: C8_10  and  O7_13 
ROOT
HETATM    1  O7    D T 801       6.764   1.382  -6.910  1.00 34.56    -0.304 OA
ENDROOT
BRANCH   1   2
HETATM    2  C5    D T 801       7.017   1.508  -8.256  1.00 33.66     0.125 A 
HETATM    3  C6    D T 801       8.277   2.037  -8.633  1.00 32.08     0.154 A 
HETATM    4  C1    D T 801       8.565   2.196 -10.030  1.00 31.11     0.041 A 
HETATM    5  O17   D T 801       9.197   2.397  -7.710  1.00 34.11    -0.188 OA
HETATM    6  C2    D T 801       7.567   1.809 -10.967  1.00 31.49     0.060 A 
HETATM    7  C3    D T 801       6.295   1.271 -10.613  1.00 31.32     0.014 A 
HETATM    8 CL14   D T 801       7.914   2.020 -12.657  1.00 29.53    -0.082 Cl
HETATM    9  C4    D T 801       6.027   1.122  -9.224  1.00 31.98     0.028 A 
ENDBRANCH   1   2
BRANCH   1  10
HETATM   10  C8    D T 801       5.820   2.092  -6.171  1.00 36.70     0.111 A 
HETATM   11  C9    D T 801       4.664   1.381  -5.702  1.00 37.64     0.081 A 
HETATM   12  C10   D T 801       3.655   2.031  -4.944  1.00 39.25     0.025 A 
HETATM   13 CL16   D T 801       4.446  -0.318  -6.040  1.00 38.51    -0.080 Cl
HETATM   14  C11   D T 801       3.808   3.431  -4.642  1.00 40.14     0.059 A 
HETATM   15  C12   D T 801       4.952   4.171  -5.093  1.00 40.20     0.013 A 
HETATM   16 CL15   D T 801       2.611   4.230  -3.725  1.00 39.51    -0.082 Cl
HETATM   17  C13   D T 801       5.943   3.495  -5.851  1.00 38.62     0.026 A 
ENDBRANCH   1  10
TORSDOF 2
ENDMDL
MODEL 3
REMARK VINA RESULT:    -7.475      2.380      2.914
REMARK INTER + INTRA:          -8.774
REMARK INTER:                  -8.310
REMARK INTRA:                  -0.464
REMARK UNBOUND:                -0.425
REMARK  2 active torsions:
REMARK  status: ('A' for Active; 'I' for Inactive)
REMARK    1  A    between atoms: C5_4  and  O7_13 
REMARK    2  A    between atoms: C8_10  and  O7_13 
ROOT
HETATM    1  O7    D T 801       6.431   3.369  -6.862  1.00 34.56    -0.304 OA
ENDROOT
BRANCH   1   2
HETATM    2  C5    D T 801       5.700   2.616  -5.974  1.00 33.66     0.125 A 
HETATM    3  C6    D T 801       4.607   3.250  -5.331  1.00 32.08     0.154 A 
HETATM    4  C1    D T 801       3.833   2.495  -4.386  1.00 31.11     0.041 A 
HETATM    5  O17   D T 801       4.289   4.539  -5.583  1.00 34.11    -0.188 OA
HETATM    6  C2    D T 801       4.205   1.142  -4.147  1.00 31.49     0.060 A 
HETATM    7  C3    D T 801       5.296   0.482  -4.784  1.00 31.32     0.014 A 
HETATM    8 CL14   D T 801       3.277   0.237  -2.990  1.00 29.53    -0.082 Cl
HETATM    9  C4    D T 801       6.051   1.246  -5.716  1.00 31.98     0.028 A 
ENDBRANCH   1   2
BRANCH   1  10
HETATM   10  C8    D T 801       6.693   3.060  -8.196  1.00 36.70     0.111 A 
HETATM   11  C9    D T 801       8.006   2.585  -8.527  1.00 37.64     0.081 A 
HETATM   12  C10   D T 801       8.356   2.250  -9.861  1.00 39.25     0.025 A 
HETATM   13 CL16   D T 801       9.236   2.392  -7.302  1.00 38.51    -0.080 Cl
HETATM   14  C11   D T 801       7.362   2.391 -10.894  1.00 40.14     0.059 A 
HETATM   15  C12   D T 801       6.039   2.861 -10.598  1.00 40.20     0.013 A 
HETATM   16 CL15   D T 801       7.758   1.987 -12.504  1.00 39.51    -0.082 Cl
HETATM   17  C13   D T 801       5.719   3.190  -9.255  1.00 38.62     0.026 A 
ENDBRANCH   1  10
TORSDOF 2
ENDMDL
MODEL 4
REMARK VINA RESULT:    -7.418      2.048      6.219
REMARK INTER + INTRA:          -8.710
REMARK INTER:                  -8.235
REMARK INTRA:                  -0.475
REMARK UNBOUND:                -0.425
REMARK  2 active torsions:
REMARK  status: ('A' for Active; 'I' for Inactive)
REMARK    1  A    between atoms: C5_4  and  O7_13 
REMARK    2  A    between atoms: C8_10  and  O7_13 
ROOT
HETATM    1  O7    D T 801       6.665   3.128  -6.958  1.00 34.56    -0.304 OA
ENDROOT
BRANCH   1   2
HETATM    2  C5    D T 801       6.907   2.855  -8.284  1.00 33.66     0.125 A 
HETATM    3  C6    D T 801       8.222   2.459  -8.636  1.00 32.08     0.154 A 
HETATM    4  C1    D T 801       8.511   2.183 -10.015  1.00 31.11     0.041 A 
HETATM    5  O17   D T 801       9.198   2.346  -7.709  1.00 34.11    -0.188 OA
HETATM    6  C2    D T 801       7.455   2.319 -10.959  1.00 31.49     0.060 A 
HETATM    7  C3    D T 801       6.125   2.712 -10.629  1.00 31.32     0.014 A 
HETATM    8 CL14   D T 801       7.813   2.000 -12.630  1.00 29.53    -0.082 Cl
HETATM    9  C4    D T 801       5.858   2.982  -9.259  1.00 31.98     0.028 A 
ENDBRANCH   1   2
BRANCH   1  10
HETATM   10  C8    D T 801       5.955   2.332  -6.062  1.00 36.70     0.111 A 
HETATM   11  C9    D T 801       4.817   2.912  -5.408  1.00 37.64     0.081 A 
HETATM   12  C10   D T 801       4.040   2.170  -4.480  1.00 39.25     0.025 A 
HETATM   13 CL16   D T 801       4.331   4.559  -5.727  1.00 38.51    -0.080 Cl
HETATM   14  C11   D T 801       4.411   0.807  -4.200  1.00 40.14     0.059 A 
HETATM   15  C12   D T 801       5.541   0.195  -4.837  1.00 40.20     0.013 A 
HETATM   16 CL15   D T 801       3.487  -0.106  -3.094  1.00 39.51    -0.082 Cl
HETATM   17  C13   D T 801       6.299   0.962  -5.759  1.00 38.62     0.026 A 
ENDBRANCH   1  10
TORSDOF 2
ENDMDL
MODEL 5
REMARK VINA RESULT:    -7.197      2.450      6.328
REMARK INTER + INTRA:          -8.463
REMARK INTER:                  -8.046
REMARK INTRA:                  -0.416
REMARK UNBOUND:                -0.425
REMARK  2 active torsions:
REMARK  status: ('A' for Active; 'I' for Inactive)
REMARK    1  A    between atoms: C5_4  and  O7_13 
REMARK    2  A    between atoms: C8_10  and  O7_13 
ROOT
HETATM    1  O7    D T 801       6.605   3.449  -6.964  1.00 34.56    -0.304 OA
ENDROOT
BRANCH   1   2
HETATM    2  C5    D T 801       6.896   3.083  -8.257  1.00 33.66     0.125 A 
HETATM    3  C6    D T 801       6.029   3.554  -9.276  1.00 32.08     0.154 A 
HETATM    4  C1    D T 801       6.297   3.177 -10.634  1.00 31.11     0.041 A 
HETATM    5  O17   D T 801       4.965   4.337  -8.992  1.00 34.11    -0.188 OA
HETATM    6  C2    D T 801       7.425   2.348 -10.888  1.00 31.49     0.060 A 
HETATM    7  C3    D T 801       8.313   1.865  -9.882  1.00 31.32     0.014 A 
HETATM    8 CL14   D T 801       7.735   1.879 -12.533  1.00 29.53    -0.082 Cl
HETATM    9  C4    D T 801       8.031   2.249  -8.542  1.00 31.98     0.028 A 
ENDBRANCH   1   2
BRANCH   1  10
HETATM   10  C8    D T 801       5.831   2.735  -6.052  1.00 36.70     0.111 A 
HETATM   11  C9    D T 801       6.514   1.964  -5.052  1.00 37.64     0.081 A 
HETATM   12  C10   D T 801       5.800   1.207  -4.087  1.00 39.25     0.025 A 
HETATM   13 CL16   D T 801       8.258   1.923  -4.975  1.00 38.51    -0.080 Cl
HETATM   14  C11   D T 801       4.360   1.225  -4.119  1.00 40.14     0.059 A 
HETATM   15  C12   D T 801       3.645   1.986  -5.102  1.00 40.20     0.013 A 
HETATM   16 CL15   D T 801       3.481   0.329  -2.963  1.00 39.51    -0.082 Cl
HETATM   17  C13   D T 801       4.386   2.732  -6.056  1.00 38.62     0.026 A 
ENDBRANCH   1  10
TORSDOF 2
ENDMDL
MODEL 6
REMARK VINA RESULT:    -7.042      2.103      2.348
REMARK INTER + INTRA:          -8.290
REMARK INTER:                  -7.950
REMARK INTRA:                  -0.340
REMARK UNBOUND:                -0.425
REMARK  2 active torsions:
REMARK  status: ('A' for Active; 'I' for Inactive)
REMARK    1  A    between atoms: C5_4  and  O7_13 
REMARK    2  A    between atoms: C8_10  and  O7_13 
ROOT
HETATM    1  O7    D T 801       4.325   2.184  -6.727  1.00 34.56    -0.304 OA
ENDROOT
BRANCH   1   2
HETATM    2  C5    D T 801       4.642   2.573  -5.447  1.00 33.66     0.125 A 
HETATM    3  C6    D T 801       4.743   1.554  -4.465  1.00 32.08     0.154 A 
HETATM    4  C1    D T 801       5.058   1.929  -3.116  1.00 31.11     0.041 A 
HETATM    5  O17   D T 801       4.543   0.254  -4.773  1.00 34.11    -0.188 OA
HETATM    6  C2    D T 801       5.255   3.310  -2.835  1.00 31.49     0.060 A 
HETATM    7  C3    D T 801       5.164   4.351  -3.804  1.00 31.32     0.014 A 
HETATM    8 CL14   D T 801       5.619   3.760  -1.196  1.00 29.53    -0.082 Cl
HETATM    9  C4    D T 801       4.851   3.960  -5.135  1.00 31.98     0.028 A 
ENDBRANCH   1   2
BRANCH   1  10
HETATM   10  C8    D T 801       5.219   1.923  -7.763  1.00 36.70     0.111 A 
HETATM   11  C9    D T 801       5.565   3.007  -8.638  1.00 37.64     0.081 A 
HETATM   12  C10   D T 801       6.468   2.825  -9.718  1.00 39.25     0.025 A 
HETATM   13 CL16   D T 801       4.894   4.603  -8.412  1.00 38.51    -0.080 Cl
HETATM   14  C11   D T 801       7.044   1.521  -9.927  1.00 40.14     0.059 A 
HETATM   15  C12   D T 801       6.722   0.417  -9.071  1.00 40.20     0.013 A 
HETATM   16 CL15   D T 801       8.137   1.282 -11.215  1.00 39.51    -0.082 Cl
HETATM   17  C13   D T 801       5.815   0.629  -8.000  1.00 38.62     0.026 A 
ENDBRANCH   1  10
TORSDOF 2
ENDMDL
MODEL 7
REMARK VINA RESULT:    -6.988      2.093      2.860
REMARK INTER + INTRA:          -8.230
REMARK INTER:                  -7.744
REMARK INTRA:                  -0.486
REMARK UNBOUND:                -0.425
REMARK  2 active torsions:
REMARK  status: ('A' for Active; 'I' for Inactive)
REMARK    1  A    between atoms: C5_4  and  O7_13 
REMARK    2  A    between atoms: C8_10  and  O7_13 
ROOT
HETATM    1  O7    D T 801       5.078   1.207  -4.991  1.00 34.56    -0.304 OA
ENDROOT
BRANCH   1   2
HETATM    2  C5    D T 801       4.624   2.337  -4.352  1.00 33.66     0.125 A 
HETATM    3  C6    D T 801       5.480   2.925  -3.387  1.00 32.08     0.154 A 
HETATM    4  C1    D T 801       5.030   4.097  -2.692  1.00 31.11     0.041 A 
HETATM    5  O17   D T 801       6.695   2.403  -3.108  1.00 34.11    -0.188 OA
HETATM    6  C2    D T 801       3.741   4.610  -3.012  1.00 31.49     0.060 A 
HETATM    7  C3    D T 801       2.865   4.040  -3.981  1.00 31.32     0.014 A 
HETATM    8 CL14   D T 801       3.192   6.020  -2.155  1.00 29.53    -0.082 Cl
HETATM    9  C4    D T 801       3.329   2.879  -4.659  1.00 31.98     0.028 A 
ENDBRANCH   1   2
BRANCH   1  10
HETATM   10  C8    D T 801       5.671   1.144  -6.250  1.00 36.70     0.111 A 
HETATM   11  C9    D T 801       4.870   0.674  -7.344  1.00 37.64     0.081 A 
HETATM   12  C10   D T 801       5.398   0.579  -8.659  1.00 39.25     0.025 A 
HETATM   13 CL16   D T 801       3.206   0.200  -7.111  1.00 38.51    -0.080 Cl
HETATM   14  C11   D T 801       6.766   0.968  -8.885  1.00 40.14     0.059 A 
HETATM   15  C12   D T 801       7.594   1.445  -7.815  1.00 40.20     0.013 A 
HETATM   16 CL15   D T 801       7.419   0.869 -10.459  1.00 39.51    -0.082 Cl
HETATM   17  C13   D T 801       7.039   1.528  -6.512  1.00 38.62     0.026 A 
ENDBRANCH   1  10
TORSDOF 2
ENDMDL
MODEL 8
REMARK VINA RESULT:    -6.878      1.471      6.089
REMARK INTER + INTRA:          -8.107
REMARK INTER:                  -8.377
REMARK INTRA:                   0.270
REMARK UNBOUND:                -0.425
REMARK  2 active torsions:
REMARK  status: ('A' for Active; 'I' for Inactive)
REMARK    1  A    between atoms: C5_4  and  O7_13 
REMARK    2  A    between atoms: C8_10  and  O7_13 
ROOT
HETATM    1  O7    D T 801       6.352   0.859  -7.276  1.00 34.56    -0.304 OA
ENDROOT
BRANCH   1   2
HETATM    2  C5    D T 801       6.721   1.178  -8.562  1.00 33.66     0.125 A 
HETATM    3  C6    D T 801       5.719   1.102  -9.562  1.00 32.08     0.154 A 
HETATM    4  C1    D T 801       6.075   1.414 -10.917  1.00 31.11     0.041 A 
HETATM    5  O17   D T 801       4.451   0.739  -9.267  1.00 34.11    -0.188 OA
HETATM    6  C2    D T 801       7.423   1.787 -11.185  1.00 31.49     0.060 A 
HETATM    7  C3    D T 801       8.446   1.875 -10.197  1.00 31.32     0.014 A 
HETATM    8 CL14   D T 801       7.854   2.147 -12.830  1.00 29.53    -0.082 Cl
HETATM    9  C4    D T 801       8.074   1.562  -8.860  1.00 31.98     0.028 A 
ENDBRANCH   1   2
BRANCH   1  10
HETATM   10  C8    D T 801       5.480   1.575  -6.459  1.00 36.70     0.111 A 
HETATM   11  C9    D T 801       5.897   2.874  -6.012  1.00 37.64     0.081 A 
HETATM   12  C10   D T 801       5.068   3.668  -5.175  1.00 39.25     0.025 A 
HETATM   13 CL16   D T 801       7.442   3.541  -6.478  1.00 38.51    -0.080 Cl
HETATM   14  C11   D T 801       3.785   3.149  -4.778  1.00 40.14     0.059 A 
HETATM   15  C12   D T 801       3.336   1.856  -5.209  1.00 40.20     0.013 A 
HETATM   16 CL15   D T 801       2.770   4.090  -3.780  1.00 39.51    -0.082 Cl
HETATM   17  C13   D T 801       4.187   1.085  -6.043  1.00 38.62     0.026 A 
ENDBRANCH   1  10
TORSDOF 2
ENDMDL
MODEL 9
REMARK VINA RESULT:    -6.837      9.060     11.363
REMARK INTER + INTRA:          -8.061
REMARK INTER:                  -7.712
REMARK INTRA:                  -0.349
REMARK UNBOUND:                -0.425
REMARK  2 active torsions:
REMARK  status: ('A' for Active; 'I' for Inactive)
REMARK    1  A    between atoms: C5_4  and  O7_13 
REMARK    2  A    between atoms: C8_10  and  O7_13 
ROOT
HETATM    1  O7    D T 801       8.004   6.182   2.600  1.00 34.56    -0.304 OA
ENDROOT
BRANCH   1   2
HETATM    2  C5    D T 801       7.905   4.954   3.211  1.00 33.66     0.125 A 
HETATM    3  C6    D T 801       9.087   4.175   3.299  1.00 32.08     0.154 A 
HETATM    4  C1    D T 801       9.014   2.882   3.917  1.00 31.11     0.041 A 
HETATM    5  O17   D T 801      10.265   4.622   2.810  1.00 34.11    -0.188 OA
HETATM    6  C2    D T 801       7.752   2.450   4.414  1.00 31.49     0.060 A 
HETATM    7  C3    D T 801       6.552   3.215   4.342  1.00 31.32     0.014 A 
HETATM    8 CL14   D T 801       7.665   0.876   5.147  1.00 29.53    -0.082 Cl
HETATM    9  C4    D T 801       6.644   4.493   3.725  1.00 31.98     0.028 A 
ENDBRANCH   1   2
BRANCH   1  10
HETATM   10  C8    D T 801       7.493   6.533   1.352  1.00 36.70     0.111 A 
HETATM   11  C9    D T 801       7.426   7.929   1.025  1.00 37.64     0.081 A 
HETATM   12  C10   D T 801       6.918   8.372  -0.225  1.00 39.25     0.025 A 
HETATM   13 CL16   D T 801       7.970   9.150   2.149  1.00 38.51    -0.080 Cl
HETATM   14  C11   D T 801       6.467   7.389  -1.176  1.00 40.14     0.059 A 
HETATM   15  C12   D T 801       6.522   5.986  -0.883  1.00 40.20     0.013 A 
HETATM   16 CL15   D T 801       5.860   7.898  -2.688  1.00 39.51    -0.082 Cl
HETATM   17  C13   D T 801       7.033   5.574   0.375  1.00 38.62     0.026 A 
ENDBRANCH   1  10
TORSDOF 2
ENDMDL
