MODEL 1
REMARK VINA RESULT:    -7.986      0.000      0.000
REMARK INTER + INTRA:          -9.294
REMARK INTER:                  -8.920
REMARK INTRA:                  -0.375
REMARK UNBOUND:                -0.375
REMARK  2 active torsions:
REMARK  status: ('A' for Active; 'I' for Inactive)
REMARK    1  A    between atoms: C5_4  and  O7_13 
REMARK    2  A    between atoms: C8_10  and  O7_13 
ROOT
HETATM    1  O7    D T 801       4.515  24.186 299.721  1.00 34.56    -0.304 OA
ENDROOT
BRANCH   1   2
HETATM    2  C5    D T 801       5.490  23.325 300.169  1.00 33.66     0.125 A 
HETATM    3  C6    D T 801       6.351  23.794 301.192  1.00 32.08     0.154 A 
HETATM    4  C1    D T 801       7.388  22.923 301.670  1.00 31.11     0.041 A 
HETATM    5  O17   D T 801       6.219  25.034 301.714  1.00 34.11    -0.188 OA
HETATM    6  C2    D T 801       7.495  21.629 301.088  1.00 31.49     0.060 A 
HETATM    7  C3    D T 801       6.639  21.134 300.062  1.00 31.32     0.014 A 
HETATM    8 CL14   D T 801       8.763  20.586 301.657  1.00 29.53    -0.082 Cl
HETATM    9  C4    D T 801       5.619  22.010 299.601  1.00 31.98     0.028 A 
ENDBRANCH   1   2
BRANCH   1  10
HETATM   10  C8    D T 801       4.089  24.347 298.405  1.00 36.70     0.111 A 
HETATM   11  C9    D T 801       4.988  24.981 297.482  1.00 37.64     0.081 A 
HETATM   12  C10   D T 801       4.630  25.185 296.124  1.00 39.25     0.025 A 
HETATM   13 CL16   D T 801       6.567  25.527 297.988  1.00 38.51    -0.080 Cl
HETATM   14  C11   D T 801       3.336  24.740 295.674  1.00 40.14     0.059 A 
HETATM   15  C12   D T 801       2.414  24.101 296.567  1.00 40.20     0.013 A 
HETATM   16 CL15   D T 801       2.889  24.969 294.044  1.00 39.51    -0.082 Cl
HETATM   17  C13   D T 801       2.799  23.912 297.920  1.00 38.62     0.026 A 
ENDBRANCH   1  10
TORSDOF 2
ENDMDL
MODEL 2
REMARK VINA RESULT:    -7.732      1.175      5.988
REMARK INTER + INTRA:          -9.010
REMARK INTER:                  -8.738
REMARK INTRA:                  -0.272
REMARK UNBOUND:                -0.375
REMARK  2 active torsions:
REMARK  status: ('A' for Active; 'I' for Inactive)
REMARK    1  A    between atoms: C5_4  and  O7_13 
REMARK    2  A    between atoms: C8_10  and  O7_13 
ROOT
HETATM    1  O7    D T 801       4.483  23.953 299.551  1.00 34.56    -0.304 OA
ENDROOT
BRANCH   1   2
HETATM    2  C5    D T 801       4.095  24.153 298.247  1.00 33.66     0.125 A 
HETATM    3  C6    D T 801       5.008  24.820 297.392  1.00 32.08     0.154 A 
HETATM    4  C1    D T 801       4.625  25.058 296.029  1.00 31.11     0.041 A 
HETATM    5  O17   D T 801       6.215  25.237 297.835  1.00 34.11    -0.188 OA
HETATM    6  C2    D T 801       3.343  24.608 295.607  1.00 31.49     0.060 A 
HETATM    7  C3    D T 801       2.410  23.933 296.446  1.00 31.32     0.014 A 
HETATM    8 CL14   D T 801       2.877  24.914 293.961  1.00 29.53    -0.082 Cl
HETATM    9  C4    D T 801       2.806  23.706 297.792  1.00 31.98     0.028 A 
ENDBRANCH   1   2
BRANCH   1  10
HETATM   10  C8    D T 801       5.478  23.087 299.999  1.00 36.70     0.111 A 
HETATM   11  C9    D T 801       6.374  23.565 301.014  1.00 37.64     0.081 A 
HETATM   12  C10   D T 801       7.416  22.747 301.523  1.00 39.25     0.025 A 
HETATM   13 CL16   D T 801       6.222  25.175 301.671  1.00 38.51    -0.080 Cl
HETATM   14  C11   D T 801       7.565  21.411 301.006  1.00 40.14     0.059 A 
HETATM   15  C12   D T 801       6.685  20.900 299.994  1.00 40.20     0.013 A 
HETATM   16 CL15   D T 801       8.806  20.409 301.610  1.00 39.51    -0.082 Cl
HETATM   17  C13   D T 801       5.654  21.741 299.503  1.00 38.62     0.026 A 
ENDBRANCH   1  10
TORSDOF 2
ENDMDL
MODEL 3
REMARK VINA RESULT:    -7.597      1.439      1.895
REMARK INTER + INTRA:          -8.859
REMARK INTER:                  -8.469
REMARK INTRA:                  -0.391
REMARK UNBOUND:                -0.375
REMARK  2 active torsions:
REMARK  status: ('A' for Active; 'I' for Inactive)
REMARK    1  A    between atoms: C5_4  and  O7_13 
REMARK    2  A    between atoms: C8_10  and  O7_13 
ROOT
HETATM    1  O7    D T 801       5.570  24.139 299.921  1.00 34.56    -0.304 OA
ENDROOT
BRANCH   1   2
HETATM    2  C5    D T 801       6.324  23.057 300.311  1.00 33.66     0.125 A 
HETATM    3  C6    D T 801       6.796  23.041 301.647  1.00 32.08     0.154 A 
HETATM    4  C1    D T 801       7.598  21.932 302.080  1.00 31.11     0.041 A 
HETATM    5  O17   D T 801       6.514  24.044 302.508  1.00 34.11    -0.188 OA
HETATM    6  C2    D T 801       7.875  20.901 301.139  1.00 31.49     0.060 A 
HETATM    7  C3    D T 801       7.409  20.892 299.793  1.00 31.32     0.014 A 
HETATM    8 CL14   D T 801       8.861  19.569 301.662  1.00 29.53    -0.082 Cl
HETATM    9  C4    D T 801       6.616  21.999 299.382  1.00 31.98     0.028 A 
ENDBRANCH   1   2
BRANCH   1  10
HETATM   10  C8    D T 801       4.993  24.343 298.670  1.00 36.70     0.111 A 
HETATM   11  C9    D T 801       3.622  23.954 298.493  1.00 37.64     0.081 A 
HETATM   12  C10   D T 801       2.959  24.125 297.251  1.00 39.25     0.025 A 
HETATM   13 CL16   D T 801       2.705  23.252 299.804  1.00 38.51    -0.080 Cl
HETATM   14  C11   D T 801       3.687  24.706 296.152  1.00 40.14     0.059 A 
HETATM   15  C12   D T 801       5.056  25.110 296.293  1.00 40.20     0.013 A 
HETATM   16 CL15   D T 801       2.907  24.928 294.651  1.00 39.51    -0.082 Cl
HETATM   17  C13   D T 801       5.693  24.924 297.547  1.00 38.62     0.026 A 
ENDBRANCH   1  10
TORSDOF 2
ENDMDL
MODEL 4
REMARK VINA RESULT:    -7.494      4.025      6.329
REMARK INTER + INTRA:          -8.745
REMARK INTER:                  -8.414
REMARK INTRA:                  -0.332
REMARK UNBOUND:                -0.375
REMARK  2 active torsions:
REMARK  status: ('A' for Active; 'I' for Inactive)
REMARK    1  A    between atoms: C5_4  and  O7_13 
REMARK    2  A    between atoms: C8_10  and  O7_13 
ROOT
HETATM    1  O7    D T 801       3.173  22.400 299.866  1.00 34.56    -0.304 OA
ENDROOT
BRANCH   1   2
HETATM    2  C5    D T 801       3.193  22.965 298.612  1.00 33.66     0.125 A 
HETATM    3  C6    D T 801       3.454  24.356 298.531  1.00 32.08     0.154 A 
HETATM    4  C1    D T 801       3.466  24.978 297.236  1.00 31.11     0.041 A 
HETATM    5  O17   D T 801       3.681  25.099 299.637  1.00 34.11    -0.188 OA
HETATM    6  C2    D T 801       3.217  24.160 296.099  1.00 31.49     0.060 A 
HETATM    7  C3    D T 801       2.957  22.760 296.155  1.00 31.32     0.014 A 
HETATM    8 CL14   D T 801       3.216  24.921 294.537  1.00 29.53    -0.082 Cl
HETATM    9  C4    D T 801       2.948  22.162 297.445  1.00 31.98     0.028 A 
ENDBRANCH   1   2
BRANCH   1  10
HETATM   10  C8    D T 801       2.062  21.880 300.526  1.00 36.70     0.111 A 
HETATM   11  C9    D T 801       2.293  21.022 301.653  1.00 37.64     0.081 A 
HETATM   12  C10   D T 801       1.216  20.450 302.379  1.00 39.25     0.025 A 
HETATM   13 CL16   D T 801       3.913  20.645 302.186  1.00 38.51    -0.080 Cl
HETATM   14  C11   D T 801      -0.132  20.747 301.969  1.00 40.14     0.059 A 
HETATM   15  C12   D T 801      -0.400  21.603 300.849  1.00 40.20     0.013 A 
HETATM   16 CL15   D T 801      -1.441  20.076 302.832  1.00 39.51    -0.082 Cl
HETATM   17  C13   D T 801       0.697  22.159 300.141  1.00 38.62     0.026 A 
ENDBRANCH   1  10
TORSDOF 2
ENDMDL
MODEL 5
REMARK VINA RESULT:    -7.380      2.280      2.592
REMARK INTER + INTRA:          -8.618
REMARK INTER:                  -8.202
REMARK INTRA:                  -0.416
REMARK UNBOUND:                -0.375
REMARK  2 active torsions:
REMARK  status: ('A' for Active; 'I' for Inactive)
REMARK    1  A    between atoms: C5_4  and  O7_13 
REMARK    2  A    between atoms: C8_10  and  O7_13 
ROOT
HETATM    1  O7    D T 801       4.635  21.475 298.994  1.00 34.56    -0.304 OA
ENDROOT
BRANCH   1   2
HETATM    2  C5    D T 801       5.148  21.897 300.199  1.00 33.66     0.125 A 
HETATM    3  C6    D T 801       4.363  21.665 301.357  1.00 32.08     0.154 A 
HETATM    4  C1    D T 801       4.864  22.108 302.627  1.00 31.11     0.041 A 
HETATM    5  O17   D T 801       3.162  21.048 301.284  1.00 34.11    -0.188 OA
HETATM    6  C2    D T 801       6.130  22.757 302.656  1.00 31.49     0.060 A 
HETATM    7  C3    D T 801       6.938  22.998 301.508  1.00 31.32     0.014 A 
HETATM    8 CL14   D T 801       6.724  23.307 304.194  1.00 29.53    -0.082 Cl
HETATM    9  C4    D T 801       6.426  22.553 300.259  1.00 31.98     0.028 A 
ENDBRANCH   1   2
BRANCH   1  10
HETATM   10  C8    D T 801       4.219  22.283 297.939  1.00 36.70     0.111 A 
HETATM   11  C9    D T 801       5.148  22.519 296.870  1.00 37.64     0.081 A 
HETATM   12  C10   D T 801       4.804  23.332 295.759  1.00 39.25     0.025 A 
HETATM   13 CL16   D T 801       6.745  21.813 296.886  1.00 38.51    -0.080 Cl
HETATM   14  C11   D T 801       3.491  23.924 295.713  1.00 40.14     0.059 A 
HETATM   15  C12   D T 801       2.537  23.707 296.762  1.00 40.20     0.013 A 
HETATM   16 CL15   D T 801       3.054  24.898 294.383  1.00 39.51    -0.082 Cl
HETATM   17  C13   D T 801       2.911  22.891 297.862  1.00 38.62     0.026 A 
ENDBRANCH   1  10
TORSDOF 2
ENDMDL
MODEL 6
REMARK VINA RESULT:    -7.318      2.166      6.289
REMARK INTER + INTRA:          -8.549
REMARK INTER:                  -8.135
REMARK INTRA:                  -0.414
REMARK UNBOUND:                -0.375
REMARK  2 active torsions:
REMARK  status: ('A' for Active; 'I' for Inactive)
REMARK    1  A    between atoms: C5_4  and  O7_13 
REMARK    2  A    between atoms: C8_10  and  O7_13 
ROOT
HETATM    1  O7    D T 801       5.432  21.592 298.803  1.00 34.56    -0.304 OA
ENDROOT
BRANCH   1   2
HETATM    2  C5    D T 801       4.896  22.361 297.796  1.00 33.66     0.125 A 
HETATM    3  C6    D T 801       3.502  22.251 297.567  1.00 32.08     0.154 A 
HETATM    4  C1    D T 801       2.915  23.030 296.513  1.00 31.11     0.041 A 
HETATM    5  O17   D T 801       2.726  21.431 298.310  1.00 34.11    -0.188 OA
HETATM    6  C2    D T 801       3.770  23.876 295.752  1.00 31.49     0.060 A 
HETATM    7  C3    D T 801       5.173  24.006 295.966  1.00 31.32     0.014 A 
HETATM    8 CL14   D T 801       3.059  24.803 294.466  1.00 29.53    -0.082 Cl
HETATM    9  C4    D T 801       5.736  23.227 297.014  1.00 31.98     0.028 A 
ENDBRANCH   1   2
BRANCH   1  10
HETATM   10  C8    D T 801       5.738  22.009 300.096  1.00 36.70     0.111 A 
HETATM   11  C9    D T 801       6.932  21.493 300.702  1.00 37.64     0.081 A 
HETATM   12  C10   D T 801       7.315  21.866 302.016  1.00 39.25     0.025 A 
HETATM   13 CL16   D T 801       7.974  20.382 299.847  1.00 38.51    -0.080 Cl
HETATM   14  C11   D T 801       6.481  22.786 302.746  1.00 40.14     0.059 A 
HETATM   15  C12   D T 801       5.281  23.324 302.171  1.00 40.20     0.013 A 
HETATM   16 CL15   D T 801       6.925  23.253 304.325  1.00 39.51    -0.082 Cl
HETATM   17  C13   D T 801       4.924  22.931 300.855  1.00 38.62     0.026 A 
ENDBRANCH   1  10
TORSDOF 2
ENDMDL
MODEL 7
REMARK VINA RESULT:    -7.313      1.552      6.261
REMARK INTER + INTRA:          -8.543
REMARK INTER:                  -8.220
REMARK INTRA:                  -0.323
REMARK UNBOUND:                -0.375
REMARK  2 active torsions:
REMARK  status: ('A' for Active; 'I' for Inactive)
REMARK    1  A    between atoms: C5_4  and  O7_13 
REMARK    2  A    between atoms: C8_10  and  O7_13 
ROOT
HETATM    1  O7    D T 801       4.398  23.502 299.857  1.00 34.56    -0.304 OA
ENDROOT
BRANCH   1   2
HETATM    2  C5    D T 801       4.119  23.886 298.566  1.00 33.66     0.125 A 
HETATM    3  C6    D T 801       2.826  23.590 298.065  1.00 32.08     0.154 A 
HETATM    4  C1    D T 801       2.509  23.964 296.716  1.00 31.11     0.041 A 
HETATM    5  O17   D T 801       1.900  22.963 298.825  1.00 34.11    -0.188 OA
HETATM    6  C2    D T 801       3.516  24.617 295.950  1.00 31.49     0.060 A 
HETATM    7  C3    D T 801       4.820  24.928 296.432  1.00 31.32     0.014 A 
HETATM    8 CL14   D T 801       3.133  25.051 294.311  1.00 29.53    -0.082 Cl
HETATM    9  C4    D T 801       5.115  24.550 297.770  1.00 31.98     0.028 A 
ENDBRANCH   1   2
BRANCH   1  10
HETATM   10  C8    D T 801       5.492  22.754 300.284  1.00 36.70     0.111 A 
HETATM   11  C9    D T 801       5.498  21.348 299.992  1.00 37.64     0.081 A 
HETATM   12  C10   D T 801       6.573  20.514 300.393  1.00 39.25     0.025 A 
HETATM   13 CL16   D T 801       4.180  20.599 299.125  1.00 38.51    -0.080 Cl
HETATM   14  C11   D T 801       7.678  21.102 301.105  1.00 40.14     0.059 A 
HETATM   15  C12   D T 801       7.708  22.504 301.411  1.00 40.20     0.013 A 
HETATM   16 CL15   D T 801       8.985  20.119 301.590  1.00 39.51    -0.082 Cl
HETATM   17  C13   D T 801       6.617  23.312 300.999  1.00 38.62     0.026 A 
ENDBRANCH   1  10
TORSDOF 2
ENDMDL
MODEL 8
REMARK VINA RESULT:    -7.187      2.097      6.065
REMARK INTER + INTRA:          -8.401
REMARK INTER:                  -7.943
REMARK INTRA:                  -0.459
REMARK UNBOUND:                -0.375
REMARK  2 active torsions:
REMARK  status: ('A' for Active; 'I' for Inactive)
REMARK    1  A    between atoms: C5_4  and  O7_13 
REMARK    2  A    between atoms: C8_10  and  O7_13 
ROOT
HETATM    1  O7    D T 801       6.469  22.808 299.048  1.00 34.56    -0.304 OA
ENDROOT
BRANCH   1   2
HETATM    2  C5    D T 801       5.706  23.244 297.990  1.00 33.66     0.125 A 
HETATM    3  C6    D T 801       5.132  24.537 298.092  1.00 32.08     0.154 A 
HETATM    4  C1    D T 801       4.318  25.014 297.010  1.00 31.11     0.041 A 
HETATM    5  O17   D T 801       5.330  25.314 299.180  1.00 34.11    -0.188 OA
HETATM    6  C2    D T 801       4.132  24.160 295.887  1.00 31.49     0.060 A 
HETATM    7  C3    D T 801       4.701  22.860 295.760  1.00 31.32     0.014 A 
HETATM    8 CL14   D T 801       3.130  24.736 294.588  1.00 29.53    -0.082 Cl
HETATM    9  C4    D T 801       5.504  22.404 296.841  1.00 31.98     0.028 A 
ENDBRANCH   1   2
BRANCH   1  10
HETATM   10  C8    D T 801       6.063  21.951 300.068  1.00 36.70     0.111 A 
HETATM   11  C9    D T 801       6.778  20.716 300.230  1.00 37.64     0.081 A 
HETATM   12  C10   D T 801       6.427  19.787 301.243  1.00 39.25     0.025 A 
HETATM   13 CL16   D T 801       8.117  20.302 299.188  1.00 38.51    -0.080 Cl
HETATM   14  C11   D T 801       5.332  20.102 302.123  1.00 40.14     0.059 A 
HETATM   15  C12   D T 801       4.597  21.327 301.992  1.00 40.20     0.013 A 
HETATM   16 CL15   D T 801       4.898  19.002 303.353  1.00 39.51    -0.082 Cl
HETATM   17  C13   D T 801       4.970  22.237 300.969  1.00 38.62     0.026 A 
ENDBRANCH   1  10
TORSDOF 2
ENDMDL
MODEL 9
REMARK VINA RESULT:    -7.059      2.135      2.707
REMARK INTER + INTRA:          -8.259
REMARK INTER:                  -7.801
REMARK INTRA:                  -0.458
REMARK UNBOUND:                -0.375
REMARK  2 active torsions:
REMARK  status: ('A' for Active; 'I' for Inactive)
REMARK    1  A    between atoms: C5_4  and  O7_13 
REMARK    2  A    between atoms: C8_10  and  O7_13 
ROOT
HETATM    1  O7    D T 801       5.672  22.540 300.708  1.00 34.56    -0.304 OA
ENDROOT
BRANCH   1   2
HETATM    2  C5    D T 801       6.255  21.295 300.737  1.00 33.66     0.125 A 
HETATM    3  C6    D T 801       5.666  20.321 301.582  1.00 32.08     0.154 A 
HETATM    4  C1    D T 801       6.262  19.016 301.645  1.00 31.11     0.041 A 
HETATM    5  O17   D T 801       4.572  20.598 302.325  1.00 34.11    -0.188 OA
HETATM    6  C2    D T 801       7.416  18.769 300.851  1.00 31.49     0.060 A 
HETATM    7  C3    D T 801       8.024  19.729 299.991  1.00 31.32     0.014 A 
HETATM    8 CL14   D T 801       8.144  17.193 300.945  1.00 29.53    -0.082 Cl
HETATM    9  C4    D T 801       7.420  21.016 299.942  1.00 31.98     0.028 A 
ENDBRANCH   1   2
BRANCH   1  10
HETATM   10  C8    D T 801       4.825  23.039 299.721  1.00 36.70     0.111 A 
HETATM   11  C9    D T 801       5.192  24.273 299.086  1.00 37.64     0.081 A 
HETATM   12  C10   D T 801       4.384  24.851 298.072  1.00 39.25     0.025 A 
HETATM   13 CL16   D T 801       6.654  25.120 299.528  1.00 38.51    -0.080 Cl
HETATM   14  C11   D T 801       3.175  24.174 297.679  1.00 40.14     0.059 A 
HETATM   15  C12   D T 801       2.779  22.938 298.291  1.00 40.20     0.013 A 
HETATM   16 CL15   D T 801       2.193  24.847 296.458  1.00 39.51    -0.082 Cl
HETATM   17  C13   D T 801       3.607  22.385 299.303  1.00 38.62     0.026 A 
ENDBRANCH   1  10
TORSDOF 2
ENDMDL
