MODEL 1
REMARK VINA RESULT:    -8.240      0.000      0.000
REMARK INTER + INTRA:          -9.619
REMARK INTER:                  -9.204
REMARK INTRA:                  -0.416
REMARK UNBOUND:                -0.416
REMARK  2 active torsions:
REMARK  status: ('A' for Active; 'I' for Inactive)
REMARK    1  A    between atoms: C5_4  and  O7_13 
REMARK    2  A    between atoms: C8_10  and  O7_13 
ROOT
HETATM    1  O7    D T 801       4.608  24.213 299.602  1.00 34.56    -0.304 OA
ENDROOT
BRANCH   1   2
HETATM    2  C5    D T 801       5.526  23.300 300.068  1.00 33.66     0.125 A 
HETATM    3  C6    D T 801       6.378  23.716 301.122  1.00 32.08     0.154 A 
HETATM    4  C1    D T 801       7.356  22.790 301.620  1.00 31.11     0.041 A 
HETATM    5  O17   D T 801       6.291  24.955 301.654  1.00 34.11    -0.188 OA
HETATM    6  C2    D T 801       7.417  21.499 301.026  1.00 31.49     0.060 A 
HETATM    7  C3    D T 801       6.569  21.057 299.970  1.00 31.32     0.014 A 
HETATM    8 CL14   D T 801       8.615  20.388 301.620  1.00 29.53    -0.082 Cl
HETATM    9  C4    D T 801       5.607  21.987 299.490  1.00 31.98     0.028 A 
ENDBRANCH   1   2
BRANCH   1  10
HETATM   10  C8    D T 801       4.205  24.385 298.280  1.00 36.70     0.111 A 
HETATM   11  C9    D T 801       5.105  25.059 297.387  1.00 37.64     0.081 A 
HETATM   12  C10   D T 801       4.770  25.278 296.026  1.00 39.25     0.025 A 
HETATM   13 CL16   D T 801       6.658  25.640 297.936  1.00 38.51    -0.080 Cl
HETATM   14  C11   D T 801       3.499  24.805 295.540  1.00 40.14     0.059 A 
HETATM   15  C12   D T 801       2.576  24.125 296.404  1.00 40.20     0.013 A 
HETATM   16 CL15   D T 801       3.079  25.050 293.906  1.00 39.51    -0.082 Cl
HETATM   17  C13   D T 801       2.938  23.923 297.761  1.00 38.62     0.026 A 
ENDBRANCH   1  10
TORSDOF 2
ENDMDL
MODEL 2
REMARK VINA RESULT:    -8.000      1.176      5.983
REMARK INTER + INTRA:          -9.351
REMARK INTER:                  -9.025
REMARK INTRA:                  -0.326
REMARK UNBOUND:                -0.416
REMARK  2 active torsions:
REMARK  status: ('A' for Active; 'I' for Inactive)
REMARK    1  A    between atoms: C5_4  and  O7_13 
REMARK    2  A    between atoms: C8_10  and  O7_13 
ROOT
HETATM    1  O7    D T 801       4.547  23.978 299.461  1.00 34.56    -0.304 OA
ENDROOT
BRANCH   1   2
HETATM    2  C5    D T 801       4.189  24.216 298.154  1.00 33.66     0.125 A 
HETATM    3  C6    D T 801       5.106  24.940 297.351  1.00 32.08     0.154 A 
HETATM    4  C1    D T 801       4.754  25.217 295.987  1.00 31.11     0.041 A 
HETATM    5  O17   D T 801       6.288  25.373 297.843  1.00 34.11    -0.188 OA
HETATM    6  C2    D T 801       3.498  24.747 295.512  1.00 31.49     0.060 A 
HETATM    7  C3    D T 801       2.562  24.016 296.298  1.00 31.32     0.014 A 
HETATM    8 CL14   D T 801       3.069  25.102 293.865  1.00 29.53    -0.082 Cl
HETATM    9  C4    D T 801       2.928  23.750 297.646  1.00 31.98     0.028 A 
ENDBRANCH   1   2
BRANCH   1  10
HETATM   10  C8    D T 801       5.483  23.050 299.911  1.00 36.70     0.111 A 
HETATM   11  C9    D T 801       6.396  23.464 300.939  1.00 37.64     0.081 A 
HETATM   12  C10   D T 801       7.381  22.582 301.451  1.00 39.25     0.025 A 
HETATM   13 CL16   D T 801       6.332  25.076 301.610  1.00 38.51    -0.080 Cl
HETATM   14  C11   D T 801       7.456  21.244 300.923  1.00 40.14     0.059 A 
HETATM   15  C12   D T 801       6.559  20.795 299.897  1.00 40.20     0.013 A 
HETATM   16 CL15   D T 801       8.628  20.164 301.530  1.00 39.51    -0.082 Cl
HETATM   17  C13   D T 801       5.584  21.701 299.403  1.00 38.62     0.026 A 
ENDBRANCH   1  10
TORSDOF 2
ENDMDL
MODEL 3
REMARK VINA RESULT:    -7.784      9.540     12.087
REMARK INTER + INTRA:          -9.110
REMARK INTER:                  -8.685
REMARK INTRA:                  -0.425
REMARK UNBOUND:                -0.416
REMARK  2 active torsions:
REMARK  status: ('A' for Active; 'I' for Inactive)
REMARK    1  A    between atoms: C5_4  and  O7_13 
REMARK    2  A    between atoms: C8_10  and  O7_13 
ROOT
HETATM    1  O7    D T 801       6.381  15.437 307.364  1.00 34.56    -0.304 OA
ENDROOT
BRANCH   1   2
HETATM    2  C5    D T 801       5.192  15.526 308.049  1.00 33.66     0.125 A 
HETATM    3  C6    D T 801       5.257  15.881 309.420  1.00 32.08     0.154 A 
HETATM    4  C1    D T 801       4.033  15.967 310.166  1.00 31.11     0.041 A 
HETATM    5  O17   D T 801       6.436  16.130 310.031  1.00 34.11    -0.188 OA
HETATM    6  C2    D T 801       2.814  15.691 309.485  1.00 31.49     0.060 A 
HETATM    7  C3    D T 801       2.724  15.336 308.108  1.00 31.32     0.014 A 
HETATM    8 CL14   D T 801       1.337  15.779 310.396  1.00 29.53    -0.082 Cl
HETATM    9  C4    D T 801       3.946  15.256 307.385  1.00 31.98     0.028 A 
ENDBRANCH   1   2
BRANCH   1  10
HETATM   10  C8    D T 801       6.555  15.524 305.985  1.00 36.70     0.111 A 
HETATM   11  C9    D T 801       6.750  14.302 305.256  1.00 37.64     0.081 A 
HETATM   12  C10   D T 801       6.936  14.303 303.850  1.00 39.25     0.025 A 
HETATM   13 CL16   D T 801       6.762  12.756 306.068  1.00 38.51    -0.080 Cl
HETATM   14  C11   D T 801       6.925  15.561 303.149  1.00 40.14     0.059 A 
HETATM   15  C12   D T 801       6.731  16.801 303.845  1.00 40.20     0.013 A 
HETATM   16 CL15   D T 801       7.140  15.584 301.458  1.00 39.51    -0.082 Cl
HETATM   17  C13   D T 801       6.549  16.769 305.252  1.00 38.62     0.026 A 
ENDBRANCH   1  10
TORSDOF 2
ENDMDL
MODEL 4
REMARK VINA RESULT:    -7.737      1.223      6.124
REMARK INTER + INTRA:          -9.057
REMARK INTER:                  -8.651
REMARK INTRA:                  -0.406
REMARK UNBOUND:                -0.416
REMARK  2 active torsions:
REMARK  status: ('A' for Active; 'I' for Inactive)
REMARK    1  A    between atoms: C5_4  and  O7_13 
REMARK    2  A    between atoms: C8_10  and  O7_13 
ROOT
HETATM    1  O7    D T 801       4.821  24.133 299.417  1.00 34.56    -0.304 OA
ENDROOT
BRANCH   1   2
HETATM    2  C5    D T 801       4.409  24.358 298.124  1.00 33.66     0.125 A 
HETATM    3  C6    D T 801       3.149  23.831 297.742  1.00 32.08     0.154 A 
HETATM    4  C1    D T 801       2.698  24.036 296.395  1.00 31.11     0.041 A 
HETATM    5  O17   D T 801       2.379  23.140 298.612  1.00 34.11    -0.188 OA
HETATM    6  C2    D T 801       3.544  24.764 295.511  1.00 31.49     0.060 A 
HETATM    7  C3    D T 801       4.811  25.306 295.872  1.00 31.32     0.014 A 
HETATM    8 CL14   D T 801       3.001  24.994 293.876  1.00 29.53    -0.082 Cl
HETATM    9  C4    D T 801       5.241  25.093 297.210  1.00 31.98     0.028 A 
ENDBRANCH   1   2
BRANCH   1  10
HETATM   10  C8    D T 801       5.698  23.141 299.849  1.00 36.70     0.111 A 
HETATM   11  C9    D T 801       6.480  23.404 301.023  1.00 37.64     0.081 A 
HETATM   12  C10   D T 801       7.399  22.447 301.529  1.00 39.25     0.025 A 
HETATM   13 CL16   D T 801       6.335  24.914 301.888  1.00 38.51    -0.080 Cl
HETATM   14  C11   D T 801       7.537  21.189 300.842  1.00 40.14     0.059 A 
HETATM   15  C12   D T 801       6.770  20.891 299.667  1.00 40.20     0.013 A 
HETATM   16 CL15   D T 801       8.630  20.022 301.437  1.00 39.51    -0.082 Cl
HETATM   17  C13   D T 801       5.861  21.868 299.184  1.00 38.62     0.026 A 
ENDBRANCH   1  10
TORSDOF 2
ENDMDL
MODEL 5
REMARK VINA RESULT:    -7.487      2.577      3.138
REMARK INTER + INTRA:          -8.778
REMARK INTER:                  -8.386
REMARK INTRA:                  -0.392
REMARK UNBOUND:                -0.416
REMARK  2 active torsions:
REMARK  status: ('A' for Active; 'I' for Inactive)
REMARK    1  A    between atoms: C5_4  and  O7_13 
REMARK    2  A    between atoms: C8_10  and  O7_13 
ROOT
HETATM    1  O7    D T 801       5.683  21.658 299.116  1.00 34.56    -0.304 OA
ENDROOT
BRANCH   1   2
HETATM    2  C5    D T 801       5.944  22.074 300.401  1.00 33.66     0.125 A 
HETATM    3  C6    D T 801       6.291  21.079 301.349  1.00 32.08     0.154 A 
HETATM    4  C1    D T 801       6.554  21.481 302.702  1.00 31.11     0.041 A 
HETATM    5  O17   D T 801       6.372  19.774 301.007  1.00 34.11    -0.188 OA
HETATM    6  C2    D T 801       6.452  22.864 303.020  1.00 31.49     0.060 A 
HETATM    7  C3    D T 801       6.108  23.882 302.085  1.00 31.32     0.014 A 
HETATM    8 CL14   D T 801       6.754  23.343 304.664  1.00 29.53    -0.082 Cl
HETATM    9  C4    D T 801       5.852  23.466 300.750  1.00 31.98     0.028 A 
ENDBRANCH   1   2
BRANCH   1  10
HETATM   10  C8    D T 801       5.136  22.423 298.089  1.00 36.70     0.111 A 
HETATM   11  C9    D T 801       3.707  22.441 297.955  1.00 37.64     0.081 A 
HETATM   12  C10   D T 801       3.070  23.193 296.934  1.00 39.25     0.025 A 
HETATM   13 CL16   D T 801       2.684  21.540 299.047  1.00 38.51    -0.080 Cl
HETATM   14  C11   D T 801       3.886  23.952 296.021  1.00 40.14     0.059 A 
HETATM   15  C12   D T 801       5.317  23.959 296.127  1.00 40.20     0.013 A 
HETATM   16 CL15   D T 801       3.141  24.869 294.791  1.00 39.51    -0.082 Cl
HETATM   17  C13   D T 801       5.925  23.196 297.157  1.00 38.62     0.026 A 
ENDBRANCH   1  10
TORSDOF 2
ENDMDL
MODEL 6
REMARK VINA RESULT:    -7.344      1.873      2.286
REMARK INTER + INTRA:          -8.618
REMARK INTER:                  -8.222
REMARK INTRA:                  -0.397
REMARK UNBOUND:                -0.416
REMARK  2 active torsions:
REMARK  status: ('A' for Active; 'I' for Inactive)
REMARK    1  A    between atoms: C5_4  and  O7_13 
REMARK    2  A    between atoms: C8_10  and  O7_13 
ROOT
HETATM    1  O7    D T 801       4.983  23.284 300.464  1.00 34.56    -0.304 OA
ENDROOT
BRANCH   1   2
HETATM    2  C5    D T 801       5.913  22.324 300.789  1.00 33.66     0.125 A 
HETATM    3  C6    D T 801       6.283  22.211 302.153  1.00 32.08     0.154 A 
HETATM    4  C1    D T 801       7.263  21.228 302.520  1.00 31.11     0.041 A 
HETATM    5  O17   D T 801       5.739  23.008 303.100  1.00 34.11    -0.188 OA
HETATM    6  C2    D T 801       7.813  20.415 301.490  1.00 31.49     0.060 A 
HETATM    7  C3    D T 801       7.455  20.507 300.114  1.00 31.32     0.014 A 
HETATM    8 CL14   D T 801       9.012  19.240 301.938  1.00 29.53    -0.082 Cl
HETATM    9  C4    D T 801       6.483  21.486 299.769  1.00 31.98     0.028 A 
ENDBRANCH   1   2
BRANCH   1  10
HETATM   10  C8    D T 801       4.602  23.673 299.182  1.00 36.70     0.111 A 
HETATM   11  C9    D T 801       3.486  22.999 298.582  1.00 37.64     0.081 A 
HETATM   12  C10   D T 801       3.035  23.333 297.279  1.00 39.25     0.025 A 
HETATM   13 CL16   D T 801       2.628  21.736 299.430  1.00 38.51    -0.080 Cl
HETATM   14  C11   D T 801       3.717  24.375 296.555  1.00 40.14     0.059 A 
HETATM   15  C12   D T 801       4.834  25.071 297.125  1.00 40.20     0.013 A 
HETATM   16 CL15   D T 801       3.187  24.798 294.990  1.00 39.51    -0.082 Cl
HETATM   17  C13   D T 801       5.264  24.714 298.430  1.00 38.62     0.026 A 
ENDBRANCH   1  10
TORSDOF 2
ENDMDL
MODEL 7
REMARK VINA RESULT:    -7.276      2.215      6.266
REMARK INTER + INTRA:          -8.543
REMARK INTER:                  -8.180
REMARK INTRA:                  -0.362
REMARK UNBOUND:                -0.416
REMARK  2 active torsions:
REMARK  status: ('A' for Active; 'I' for Inactive)
REMARK    1  A    between atoms: C5_4  and  O7_13 
REMARK    2  A    between atoms: C8_10  and  O7_13 
ROOT
HETATM    1  O7    D T 801       4.698  21.522 298.992  1.00 34.56    -0.304 OA
ENDROOT
BRANCH   1   2
HETATM    2  C5    D T 801       4.306  22.338 297.957  1.00 33.66     0.125 A 
HETATM    3  C6    D T 801       5.289  22.688 296.997  1.00 32.08     0.154 A 
HETATM    4  C1    D T 801       4.914  23.551 295.913  1.00 31.11     0.041 A 
HETATM    5  O17   D T 801       6.559  22.235 297.089  1.00 34.11    -0.188 OA
HETATM    6  C2    D T 801       3.568  24.010 295.859  1.00 31.49     0.060 A 
HETATM    7  C3    D T 801       2.562  23.669 296.808  1.00 31.32     0.014 A 
HETATM    8 CL14   D T 801       3.124  25.069 294.554  1.00 29.53    -0.082 Cl
HETATM    9  C4    D T 801       2.952  22.814 297.875  1.00 31.98     0.028 A 
ENDBRANCH   1   2
BRANCH   1  10
HETATM   10  C8    D T 801       5.121  21.927 300.256  1.00 36.70     0.111 A 
HETATM   11  C9    D T 801       6.294  21.304 300.801  1.00 37.64     0.081 A 
HETATM   12  C10   D T 801       6.791  21.657 302.082  1.00 39.25     0.025 A 
HETATM   13 CL16   D T 801       7.168  20.082 299.909  1.00 38.51    -0.080 Cl
HETATM   14  C11   D T 801       6.097  22.665 302.841  1.00 40.14     0.059 A 
HETATM   15  C12   D T 801       4.923  23.311 302.326  1.00 40.20     0.013 A 
HETATM   16 CL15   D T 801       6.681  23.111 304.380  1.00 39.51    -0.082 Cl
HETATM   17  C13   D T 801       4.449  22.935 301.043  1.00 38.62     0.026 A 
ENDBRANCH   1  10
TORSDOF 2
ENDMDL
MODEL 8
REMARK VINA RESULT:    -6.910      9.117     11.572
REMARK INTER + INTRA:          -8.134
REMARK INTER:                  -7.859
REMARK INTRA:                  -0.275
REMARK UNBOUND:                -0.416
REMARK  2 active torsions:
REMARK  status: ('A' for Active; 'I' for Inactive)
REMARK    1  A    between atoms: C5_4  and  O7_13 
REMARK    2  A    between atoms: C8_10  and  O7_13 
ROOT
HETATM    1  O7    D T 801       6.620  14.403 306.141  1.00 34.56    -0.304 OA
ENDROOT
BRANCH   1   2
HETATM    2  C5    D T 801       5.886  14.867 307.208  1.00 33.66     0.125 A 
HETATM    3  C6    D T 801       4.474  14.865 307.075  1.00 32.08     0.154 A 
HETATM    4  C1    D T 801       3.681  15.358 308.165  1.00 31.11     0.041 A 
HETATM    5  O17   D T 801       3.871  14.417 305.951  1.00 34.11    -0.188 OA
HETATM    6  C2    D T 801       4.358  15.824 309.327  1.00 31.49     0.060 A 
HETATM    7  C3    D T 801       5.774  15.834 309.485  1.00 31.32     0.014 A 
HETATM    8 CL14   D T 801       3.394  16.437 310.636  1.00 29.53    -0.082 Cl
HETATM    9  C4    D T 801       6.543  15.341 308.395  1.00 31.98     0.028 A 
ENDBRANCH   1   2
BRANCH   1  10
HETATM   10  C8    D T 801       6.762  15.016 304.899  1.00 36.70     0.111 A 
HETATM   11  C9    D T 801       6.604  14.200 303.728  1.00 37.64     0.081 A 
HETATM   12  C10   D T 801       6.735  14.746 302.425  1.00 39.25     0.025 A 
HETATM   13 CL16   D T 801       6.240  12.497 303.853  1.00 38.51    -0.080 Cl
HETATM   14  C11   D T 801       7.029  16.149 302.287  1.00 40.14     0.059 A 
HETATM   15  C12   D T 801       7.190  16.994 303.435  1.00 40.20     0.013 A 
HETATM   16 CL15   D T 801       7.182  16.828 300.730  1.00 39.51    -0.082 Cl
HETATM   17  C13   D T 801       7.056  16.420 304.726  1.00 38.62     0.026 A 
ENDBRANCH   1  10
TORSDOF 2
ENDMDL
MODEL 9
REMARK VINA RESULT:    -6.819      2.083      6.282
REMARK INTER + INTRA:          -8.032
REMARK INTER:                  -7.606
REMARK INTRA:                  -0.426
REMARK UNBOUND:                -0.416
REMARK  2 active torsions:
REMARK  status: ('A' for Active; 'I' for Inactive)
REMARK    1  A    between atoms: C5_4  and  O7_13 
REMARK    2  A    between atoms: C8_10  and  O7_13 
ROOT
HETATM    1  O7    D T 801       5.096  22.453 301.651  1.00 34.56    -0.304 OA
ENDROOT
BRANCH   1   2
HETATM    2  C5    D T 801       4.533  22.845 300.459  1.00 33.66     0.125 A 
HETATM    3  C6    D T 801       4.471  24.236 300.195  1.00 32.08     0.154 A 
HETATM    4  C1    D T 801       3.874  24.677 298.966  1.00 31.11     0.041 A 
HETATM    5  O17   D T 801       4.953  25.144 301.073  1.00 34.11    -0.188 OA
HETATM    6  C2    D T 801       3.375  23.687 298.073  1.00 31.49     0.060 A 
HETATM    7  C3    D T 801       3.428  22.284 298.314  1.00 31.32     0.014 A 
HETATM    8 CL14   D T 801       2.637  24.227 296.595  1.00 29.53    -0.082 Cl
HETATM    9  C4    D T 801       4.023  21.867 299.536  1.00 31.98     0.028 A 
ENDBRANCH   1   2
BRANCH   1  10
HETATM   10  C8    D T 801       6.074  21.477 301.827  1.00 36.70     0.111 A 
HETATM   11  C9    D T 801       7.443  21.854 301.615  1.00 37.64     0.081 A 
HETATM   12  C10   D T 801       8.500  20.920 301.772  1.00 39.25     0.025 A 
HETATM   13 CL16   D T 801       7.872  23.484 301.157  1.00 38.51    -0.080 Cl
HETATM   14  C11   D T 801       8.180  19.569 302.155  1.00 40.14     0.059 A 
HETATM   15  C12   D T 801       6.823  19.158 302.378  1.00 40.20     0.013 A 
HETATM   16 CL15   D T 801       9.435  18.432 302.356  1.00 39.51    -0.082 Cl
HETATM   17  C13   D T 801       5.788  20.114 302.212  1.00 38.62     0.026 A 
ENDBRANCH   1  10
TORSDOF 2
ENDMDL
