MODEL 1
REMARK VINA RESULT:    -7.605      0.000      0.000
REMARK INTER + INTRA:          -8.909
REMARK INTER:                  -8.494
REMARK INTRA:                  -0.415
REMARK UNBOUND:                -0.415
REMARK  2 active torsions:
REMARK  status: ('A' for Active; 'I' for Inactive)
REMARK    1  A    between atoms: C5_4  and  O7_13 
REMARK    2  A    between atoms: C8_10  and  O7_13 
ROOT
HETATM    1  O7    D T 801       4.602   0.955  -7.935  1.00 34.56    -0.304 OA
ENDROOT
BRANCH   1   2
HETATM    2  C5    D T 801       3.816   1.715  -7.100  1.00 33.66     0.125 A 
HETATM    3  C6    D T 801       2.988   1.024  -6.180  1.00 32.08     0.154 A 
HETATM    4  C1    D T 801       2.145   1.789  -5.305  1.00 31.11     0.041 A 
HETATM    5  O17   D T 801       2.974  -0.326  -6.118  1.00 34.11    -0.188 OA
HETATM    6  C2    D T 801       2.187   3.208  -5.408  1.00 31.49     0.060 A 
HETATM    7  C3    D T 801       3.013   3.925  -6.321  1.00 31.32     0.014 A 
HETATM    8 CL14   D T 801       1.152   4.129  -4.360  1.00 29.53    -0.082 Cl
HETATM    9  C4    D T 801       3.841   3.150  -7.180  1.00 31.98     0.028 A 
ENDBRANCH   1   2
BRANCH   1  10
HETATM   10  C8    D T 801       4.916   1.236  -9.263  1.00 36.70     0.111 A 
HETATM   11  C9    D T 801       3.905   0.996 -10.254  1.00 37.64     0.081 A 
HETATM   12  C10   D T 801       4.144   1.253 -11.629  1.00 39.25     0.025 A 
HETATM   13 CL16   D T 801       2.331   0.382  -9.812  1.00 38.51    -0.080 Cl
HETATM   14  C11   D T 801       5.429   1.767 -12.026  1.00 40.14     0.059 A 
HETATM   15  C12   D T 801       6.462   2.020 -11.062  1.00 40.20     0.013 A 
HETATM   16 CL15   D T 801       5.735   2.089 -13.673  1.00 39.51    -0.082 Cl
HETATM   17  C13   D T 801       6.194   1.752  -9.694  1.00 38.62     0.026 A 
ENDBRANCH   1  10
TORSDOF 2
ENDMDL
MODEL 2
REMARK VINA RESULT:    -7.575      9.156     11.647
REMARK INTER + INTRA:          -8.875
REMARK INTER:                  -8.447
REMARK INTRA:                  -0.428
REMARK UNBOUND:                -0.415
REMARK  2 active torsions:
REMARK  status: ('A' for Active; 'I' for Inactive)
REMARK    1  A    between atoms: C5_4  and  O7_13 
REMARK    2  A    between atoms: C8_10  and  O7_13 
ROOT
HETATM    1  O7    D T 801       5.201   6.180   2.221  1.00 34.56    -0.304 OA
ENDROOT
BRANCH   1   2
HETATM    2  C5    D T 801       6.336   5.563   2.694  1.00 33.66     0.125 A 
HETATM    3  C6    D T 801       6.185   4.669   3.784  1.00 32.08     0.154 A 
HETATM    4  C1    D T 801       7.354   4.022   4.309  1.00 31.11     0.041 A 
HETATM    5  O17   D T 801       4.975   4.425   4.333  1.00 34.11    -0.188 OA
HETATM    6  C2    D T 801       8.609   4.314   3.704  1.00 31.49     0.060 A 
HETATM    7  C3    D T 801       8.785   5.205   2.606  1.00 31.32     0.014 A 
HETATM    8 CL14   D T 801      10.022   3.542   4.355  1.00 29.53    -0.082 Cl
HETATM    9  C4    D T 801       7.617   5.836   2.099  1.00 31.98     0.028 A 
ENDBRANCH   1   2
BRANCH   1  10
HETATM   10  C8    D T 801       4.912   6.483   0.893  1.00 36.70     0.111 A 
HETATM   11  C9    D T 801       5.120   7.835   0.455  1.00 37.64     0.081 A 
HETATM   12  C10   D T 801       4.848   8.228  -0.881  1.00 39.25     0.025 A 
HETATM   13 CL16   D T 801       5.721   9.058   1.547  1.00 38.51    -0.080 Cl
HETATM   14  C11   D T 801       4.358   7.242  -1.808  1.00 40.14     0.059 A 
HETATM   15  C12   D T 801       4.141   5.881  -1.406  1.00 40.20     0.013 A 
HETATM   16 CL15   D T 801       4.031   7.691  -3.421  1.00 39.51    -0.082 Cl
HETATM   17  C13   D T 801       4.420   5.518  -0.062  1.00 38.62     0.026 A 
ENDBRANCH   1  10
TORSDOF 2
ENDMDL
MODEL 3
REMARK VINA RESULT:    -7.442      1.251      6.143
REMARK INTER + INTRA:          -8.727
REMARK INTER:                  -8.248
REMARK INTRA:                  -0.479
REMARK UNBOUND:                -0.415
REMARK  2 active torsions:
REMARK  status: ('A' for Active; 'I' for Inactive)
REMARK    1  A    between atoms: C5_4  and  O7_13 
REMARK    2  A    between atoms: C8_10  and  O7_13 
ROOT
HETATM    1  O7    D T 801       5.176   1.399  -7.935  1.00 34.56    -0.304 OA
ENDROOT
BRANCH   1   2
HETATM    2  C5    D T 801       5.306   1.559  -9.295  1.00 33.66     0.125 A 
HETATM    3  C6    D T 801       6.508   2.142  -9.770  1.00 32.08     0.154 A 
HETATM    4  C1    D T 801       6.667   2.336 -11.183  1.00 31.11     0.041 A 
HETATM    5  O17   D T 801       7.492   2.519  -8.923  1.00 34.11    -0.188 OA
HETATM    6  C2    D T 801       5.603   1.930 -12.037  1.00 31.49     0.060 A 
HETATM    7  C3    D T 801       4.388   1.339 -11.585  1.00 31.32     0.014 A 
HETATM    8 CL14   D T 801       5.793   2.184 -13.746  1.00 29.53    -0.082 Cl
HETATM    9  C4    D T 801       4.249   1.155 -10.182  1.00 31.98     0.028 A 
ENDBRANCH   1   2
BRANCH   1  10
HETATM   10  C8    D T 801       4.240   2.018  -7.111  1.00 36.70     0.111 A 
HETATM   11  C9    D T 801       3.306   1.181  -6.413  1.00 37.64     0.081 A 
HETATM   12  C10   D T 801       2.318   1.732  -5.556  1.00 39.25     0.025 A 
HETATM   13 CL16   D T 801       3.343  -0.556  -6.584  1.00 38.51    -0.080 Cl
HETATM   14  C11   D T 801       2.264   3.161  -5.387  1.00 40.14     0.059 A 
HETATM   15  C12   D T 801       3.184   4.028  -6.068  1.00 40.20     0.013 A 
HETATM   16 CL15   D T 801       1.089   3.843  -4.356  1.00 39.51    -0.082 Cl
HETATM   17  C13   D T 801       4.160   3.448  -6.920  1.00 38.62     0.026 A 
ENDBRANCH   1  10
TORSDOF 2
ENDMDL
MODEL 4
REMARK VINA RESULT:    -7.371      9.139     12.038
REMARK INTER + INTRA:          -8.648
REMARK INTER:                  -8.202
REMARK INTRA:                  -0.446
REMARK UNBOUND:                -0.415
REMARK  2 active torsions:
REMARK  status: ('A' for Active; 'I' for Inactive)
REMARK    1  A    between atoms: C5_4  and  O7_13 
REMARK    2  A    between atoms: C8_10  and  O7_13 
ROOT
HETATM    1  O7    D T 801       5.583   6.496   2.075  1.00 34.56    -0.304 OA
ENDROOT
BRANCH   1   2
HETATM    2  C5    D T 801       5.075   6.467   0.797  1.00 33.66     0.125 A 
HETATM    3  C6    D T 801       4.817   7.713   0.171  1.00 32.08     0.154 A 
HETATM    4  C1    D T 801       4.272   7.716  -1.157  1.00 31.11     0.041 A 
HETATM    5  O17   D T 801       5.065   8.883   0.800  1.00 34.11    -0.188 OA
HETATM    6  C2    D T 801       4.020   6.460  -1.779  1.00 31.49     0.060 A 
HETATM    7  C3    D T 801       4.275   5.196  -1.173  1.00 31.32     0.014 A 
HETATM    8 CL14   D T 801       3.345   6.469  -3.379  1.00 29.53    -0.082 Cl
HETATM    9  C4    D T 801       4.814   5.213   0.143  1.00 31.98     0.028 A 
ENDBRANCH   1   2
BRANCH   1  10
HETATM   10  C8    D T 801       6.681   5.784   2.548  1.00 36.70     0.111 A 
HETATM   11  C9    D T 801       6.467   4.867   3.632  1.00 37.64     0.081 A 
HETATM   12  C10   D T 801       7.533   4.104   4.176  1.00 39.25     0.025 A 
HETATM   13 CL16   D T 801       4.882   4.645   4.331  1.00 38.51    -0.080 Cl
HETATM   14  C11   D T 801       8.852   4.258   3.618  1.00 40.14     0.059 A 
HETATM   15  C12   D T 801       9.102   5.164   2.532  1.00 40.20     0.013 A 
HETATM   16 CL15   D T 801      10.146   3.345   4.251  1.00 39.51    -0.082 Cl
HETATM   17  C13   D T 801       8.016   5.914   2.011  1.00 38.62     0.026 A 
ENDBRANCH   1  10
TORSDOF 2
ENDMDL
MODEL 5
REMARK VINA RESULT:    -7.363      1.634      2.081
REMARK INTER + INTRA:          -8.639
REMARK INTER:                  -8.157
REMARK INTRA:                  -0.482
REMARK UNBOUND:                -0.415
REMARK  2 active torsions:
REMARK  status: ('A' for Active; 'I' for Inactive)
REMARK    1  A    between atoms: C5_4  and  O7_13 
REMARK    2  A    between atoms: C8_10  and  O7_13 
ROOT
HETATM    1  O7    D T 801       5.252   1.736  -7.159  1.00 34.56    -0.304 OA
ENDROOT
BRANCH   1   2
HETATM    2  C5    D T 801       4.216   2.246  -6.411  1.00 33.66     0.125 A 
HETATM    3  C6    D T 801       3.426   1.324  -5.680  1.00 32.08     0.154 A 
HETATM    4  C1    D T 801       2.328   1.825  -4.902  1.00 31.11     0.041 A 
HETATM    5  O17   D T 801       3.682  -0.003  -5.708  1.00 34.11    -0.188 OA
HETATM    6  C2    D T 801       2.091   3.228  -4.906  1.00 31.49     0.060 A 
HETATM    7  C3    D T 801       2.873   4.175  -5.630  1.00 31.32     0.014 A 
HETATM    8 CL14   D T 801       0.751   3.827  -3.978  1.00 29.53    -0.082 Cl
HETATM    9  C4    D T 801       3.956   3.660  -6.394  1.00 31.98     0.028 A 
ENDBRANCH   1   2
BRANCH   1  10
HETATM   10  C8    D T 801       5.345   1.720  -8.548  1.00 36.70     0.111 A 
HETATM   11  C9    D T 801       6.429   2.440  -9.154  1.00 37.64     0.081 A 
HETATM   12  C10   D T 801       6.595   2.477 -10.563  1.00 39.25     0.025 A 
HETATM   13 CL16   D T 801       7.598   3.302  -8.185  1.00 38.51    -0.080 Cl
HETATM   14  C11   D T 801       5.652   1.770 -11.391  1.00 40.14     0.059 A 
HETATM   15  C12   D T 801       4.558   1.039 -10.820  1.00 40.20     0.013 A 
HETATM   16 CL15   D T 801       5.837   1.796 -13.087  1.00 39.51    -0.082 Cl
HETATM   17  C13   D T 801       4.417   1.021  -9.407  1.00 38.62     0.026 A 
ENDBRANCH   1  10
TORSDOF 2
ENDMDL
MODEL 6
REMARK VINA RESULT:    -7.287      2.317      2.949
REMARK INTER + INTRA:          -8.553
REMARK INTER:                  -8.085
REMARK INTRA:                  -0.468
REMARK UNBOUND:                -0.415
REMARK  2 active torsions:
REMARK  status: ('A' for Active; 'I' for Inactive)
REMARK    1  A    between atoms: C5_4  and  O7_13 
REMARK    2  A    between atoms: C8_10  and  O7_13 
ROOT
HETATM    1  O7    D T 801       4.619   3.362  -7.876  1.00 34.56    -0.304 OA
ENDROOT
BRANCH   1   2
HETATM    2  C5    D T 801       4.187   2.551  -6.852  1.00 33.66     0.125 A 
HETATM    3  C6    D T 801       3.065   2.989  -6.104  1.00 32.08     0.154 A 
HETATM    4  C1    D T 801       2.600   2.172  -5.019  1.00 31.11     0.041 A 
HETATM    5  O17   D T 801       2.439   4.153  -6.387  1.00 34.11    -0.188 OA
HETATM    6  C2    D T 801       3.294   0.958  -4.752  1.00 31.49     0.060 A 
HETATM    7  C3    D T 801       4.420   0.494  -5.492  1.00 31.32     0.014 A 
HETATM    8 CL14   D T 801       2.738  -0.019  -3.428  1.00 29.53    -0.082 Cl
HETATM    9  C4    D T 801       4.867   1.317  -6.562  1.00 31.98     0.028 A 
ENDBRANCH   1   2
BRANCH   1  10
HETATM   10  C8    D T 801       4.820   2.990  -9.202  1.00 36.70     0.111 A 
HETATM   11  C9    D T 801       6.173   2.909  -9.676  1.00 37.64     0.081 A 
HETATM   12  C10   D T 801       6.465   2.539 -11.015  1.00 39.25     0.025 A 
HETATM   13 CL16   D T 801       7.523   3.257  -8.625  1.00 38.51    -0.080 Cl
HETATM   14  C11   D T 801       5.375   2.238 -11.905  1.00 40.14     0.059 A 
HETATM   15  C12   D T 801       4.010   2.307 -11.465  1.00 40.20     0.013 A 
HETATM   16 CL15   D T 801       5.704   1.785 -13.517  1.00 39.51    -0.082 Cl
HETATM   17  C13   D T 801       3.749   2.681 -10.121  1.00 38.62     0.026 A 
ENDBRANCH   1  10
TORSDOF 2
ENDMDL
MODEL 7
REMARK VINA RESULT:    -7.234      2.071      6.201
REMARK INTER + INTRA:          -8.494
REMARK INTER:                  -8.014
REMARK INTRA:                  -0.480
REMARK UNBOUND:                -0.415
REMARK  2 active torsions:
REMARK  status: ('A' for Active; 'I' for Inactive)
REMARK    1  A    between atoms: C5_4  and  O7_13 
REMARK    2  A    between atoms: C8_10  and  O7_13 
ROOT
HETATM    1  O7    D T 801       2.942   1.732  -8.082  1.00 34.56    -0.304 OA
ENDROOT
BRANCH   1   2
HETATM    2  C5    D T 801       3.699   1.738  -9.230  1.00 33.66     0.125 A 
HETATM    3  C6    D T 801       3.429   2.753 -10.183  1.00 32.08     0.154 A 
HETATM    4  C1    D T 801       4.192   2.776 -11.398  1.00 31.11     0.041 A 
HETATM    5  O17   D T 801       2.472   3.683  -9.970  1.00 34.11    -0.188 OA
HETATM    6  C2    D T 801       5.186   1.773 -11.583  1.00 31.49     0.060 A 
HETATM    7  C3    D T 801       5.478   0.746 -10.639  1.00 31.32     0.014 A 
HETATM    8 CL14   D T 801       6.095   1.795 -13.064  1.00 29.53    -0.082 Cl
HETATM    9  C4    D T 801       4.712   0.740  -9.441  1.00 31.98     0.028 A 
ENDBRANCH   1   2
BRANCH   1  10
HETATM   10  C8    D T 801       3.309   2.251  -6.842  1.00 36.70     0.111 A 
HETATM   11  C9    D T 801       3.566   1.321  -5.779  1.00 37.64     0.081 A 
HETATM   12  C10   D T 801       3.942   1.766  -4.484  1.00 39.25     0.025 A 
HETATM   13 CL16   D T 801       3.430  -0.402  -6.028  1.00 38.51    -0.080 Cl
HETATM   14  C11   D T 801       4.070   3.180  -4.247  1.00 40.14     0.059 A 
HETATM   15  C12   D T 801       3.823   4.137  -5.288  1.00 40.20     0.013 A 
HETATM   16 CL15   D T 801       4.528   3.736  -2.700  1.00 39.51    -0.082 Cl
HETATM   17  C13   D T 801       3.447   3.662  -6.571  1.00 38.62     0.026 A 
ENDBRANCH   1  10
TORSDOF 2
ENDMDL
MODEL 8
REMARK VINA RESULT:    -6.926      2.601      3.293
REMARK INTER + INTRA:          -8.151
REMARK INTER:                  -7.732
REMARK INTRA:                  -0.419
REMARK UNBOUND:                -0.415
REMARK  2 active torsions:
REMARK  status: ('A' for Active; 'I' for Inactive)
REMARK    1  A    between atoms: C5_4  and  O7_13 
REMARK    2  A    between atoms: C8_10  and  O7_13 
ROOT
HETATM    1  O7    D T 801       2.560   2.589  -6.290  1.00 34.56    -0.304 OA
ENDROOT
BRANCH   1   2
HETATM    2  C5    D T 801       2.952   3.380  -5.235  1.00 33.66     0.125 A 
HETATM    3  C6    D T 801       2.444   4.703  -5.191  1.00 32.08     0.154 A 
HETATM    4  C1    D T 801       2.848   5.559  -4.111  1.00 31.11     0.041 A 
HETATM    5  O17   D T 801       1.603   5.168  -6.141  1.00 34.11    -0.188 OA
HETATM    6  C2    D T 801       3.740   5.029  -3.137  1.00 31.49     0.060 A 
HETATM    7  C3    D T 801       4.261   3.703  -3.157  1.00 31.32     0.014 A 
HETATM    8 CL14   D T 801       4.240   6.074  -1.842  1.00 29.53    -0.082 Cl
HETATM    9  C4    D T 801       3.850   2.870  -4.235  1.00 31.98     0.028 A 
ENDBRANCH   1   2
BRANCH   1  10
HETATM   10  C8    D T 801       3.328   2.238  -7.396  1.00 36.70     0.111 A 
HETATM   11  C9    D T 801       3.038   0.990  -8.044  1.00 37.64     0.081 A 
HETATM   12  C10   D T 801       3.775   0.556  -9.176  1.00 39.25     0.025 A 
HETATM   13 CL16   D T 801       1.760  -0.053  -7.470  1.00 38.51    -0.080 Cl
HETATM   14  C11   D T 801       4.831   1.396  -9.680  1.00 40.14     0.059 A 
HETATM   15  C12   D T 801       5.147   2.651  -9.058  1.00 40.20     0.013 A 
HETATM   16 CL15   D T 801       5.725   0.897 -11.044  1.00 39.51    -0.082 Cl
HETATM   17  C13   D T 801       4.393   3.057  -7.926  1.00 38.62     0.026 A 
ENDBRANCH   1  10
TORSDOF 2
ENDMDL
MODEL 9
REMARK VINA RESULT:    -6.908      9.173     12.013
REMARK INTER + INTRA:          -8.130
REMARK INTER:                  -7.695
REMARK INTRA:                  -0.435
REMARK UNBOUND:                -0.415
REMARK  2 active torsions:
REMARK  status: ('A' for Active; 'I' for Inactive)
REMARK    1  A    between atoms: C5_4  and  O7_13 
REMARK    2  A    between atoms: C8_10  and  O7_13 
ROOT
HETATM    1  O7    D T 801       6.153   7.288   1.620  1.00 34.56    -0.304 OA
ENDROOT
BRANCH   1   2
HETATM    2  C5    D T 801       5.601   7.353   0.362  1.00 33.66     0.125 A 
HETATM    3  C6    D T 801       6.064   8.379  -0.500  1.00 32.08     0.154 A 
HETATM    4  C1    D T 801       5.497   8.482  -1.814  1.00 31.11     0.041 A 
HETATM    5  O17   D T 801       7.014   9.257  -0.105  1.00 34.11    -0.188 OA
HETATM    6  C2    D T 801       4.495   7.541  -2.185  1.00 31.49     0.060 A 
HETATM    7  C3    D T 801       4.017   6.498  -1.339  1.00 31.32     0.014 A 
HETATM    8 CL14   D T 801       3.799   7.680  -3.771  1.00 29.53    -0.082 Cl
HETATM    9  C4    D T 801       4.590   6.413  -0.041  1.00 31.98     0.028 A 
ENDBRANCH   1   2
BRANCH   1  10
HETATM   10  C8    D T 801       6.615   6.145   2.267  1.00 36.70     0.111 A 
HETATM   11  C9    D T 801       7.983   5.763   2.053  1.00 37.64     0.081 A 
HETATM   12  C10   D T 801       8.533   4.611   2.672  1.00 39.25     0.025 A 
HETATM   13 CL16   D T 801       9.035   6.700   1.022  1.00 38.51    -0.080 Cl
HETATM   14  C11   D T 801       7.694   3.819   3.535  1.00 40.14     0.059 A 
HETATM   15  C12   D T 801       6.323   4.173   3.773  1.00 40.20     0.013 A 
HETATM   16 CL15   D T 801       8.337   2.434   4.295  1.00 39.51    -0.082 Cl
HETATM   17  C13   D T 801       5.801   5.331   3.138  1.00 38.62     0.026 A 
ENDBRANCH   1  10
TORSDOF 2
ENDMDL
