MODEL 1
REMARK VINA RESULT:    -7.571      0.000      0.000
REMARK INTER + INTRA:          -8.855
REMARK INTER:                  -8.456
REMARK INTRA:                  -0.400
REMARK UNBOUND:                -0.400
REMARK  2 active torsions:
REMARK  status: ('A' for Active; 'I' for Inactive)
REMARK    1  A    between atoms: C5_4  and  O7_13 
REMARK    2  A    between atoms: C8_10  and  O7_13 
ROOT
HETATM    1  O7    D T 502       4.620   0.760  -8.057  0.75 16.91    -0.304 OA
ENDROOT
BRANCH   1   2
HETATM    2  C5    D T 502       3.819   1.587  -7.179  0.75 15.30     0.125 A 
HETATM    3  C6    D T 502       2.909   0.912  -6.294  0.75 14.99     0.154 A 
HETATM    4  C1    D T 502       2.112   1.671  -5.407  0.75 14.19     0.041 A 
HETATM    5  O17   D T 502       2.826  -0.429  -6.314  0.75 14.56    -0.188 OA
HETATM    6  C2    D T 502       2.233   3.055  -5.420  0.75 11.95     0.060 A 
HETATM    7  C3    D T 502       3.106   3.750  -6.275  0.75 13.64     0.014 A 
HETATM    8 CL14   D T 502       1.289   3.976  -4.336  0.75  1.02    -0.082 Cl
HETATM    9  C4    D T 502       3.925   2.936  -7.186  0.75 15.27     0.028 A 
ENDBRANCH   1   2
BRANCH   1  10
HETATM   10  C8    D T 502       4.945   1.108  -9.381  0.75 15.53     0.111 A 
HETATM   11  C9    D T 502       3.932   0.943 -10.348  0.75 16.45     0.081 A 
HETATM   12  C10   D T 502       4.159   1.270 -11.703  0.75 14.07     0.025 A 
HETATM   13 CL16   D T 502       2.356   0.329  -9.898  0.75  3.69    -0.080 Cl
HETATM   14  C11   D T 502       5.438   1.773 -12.090  0.75 16.23     0.059 A 
HETATM   15  C12   D T 502       6.481   1.952 -11.140  0.75 16.59     0.013 A 
HETATM   16 CL15   D T 502       5.726   2.173 -13.736  0.75  7.17    -0.082 Cl
HETATM   17  C13   D T 502       6.238   1.620  -9.783  0.75 15.83     0.026 A 
ENDBRANCH   1  10
TORSDOF 2
ENDMDL
MODEL 2
REMARK VINA RESULT:    -7.526      1.267      6.154
REMARK INTER + INTRA:          -8.806
REMARK INTER:                  -8.330
REMARK INTRA:                  -0.476
REMARK UNBOUND:                -0.400
REMARK  2 active torsions:
REMARK  status: ('A' for Active; 'I' for Inactive)
REMARK    1  A    between atoms: C5_4  and  O7_13 
REMARK    2  A    between atoms: C8_10  and  O7_13 
ROOT
HETATM    1  O7    D T 502       5.028   1.310  -7.731  0.75 16.91    -0.304 OA
ENDROOT
BRANCH   1   2
HETATM    2  C5    D T 502       5.130   1.490  -9.164  0.75 15.30     0.125 A 
HETATM    3  C6    D T 502       6.350   2.060  -9.667  0.75 14.99     0.154 A 
HETATM    4  C1    D T 502       6.507   2.245 -11.059  0.75 14.19     0.041 A 
HETATM    5  O17   D T 502       7.328   2.407  -8.814  0.75 14.56    -0.188 OA
HETATM    6  C2    D T 502       5.469   1.869 -11.904  0.75 11.95     0.060 A 
HETATM    7  C3    D T 502       4.260   1.314 -11.449  0.75 13.64     0.014 A 
HETATM    8 CL14   D T 502       5.661   2.071 -13.588  0.75  1.02    -0.082 Cl
HETATM    9  C4    D T 502       4.124   1.130  -9.995  0.75 15.27     0.028 A 
ENDBRANCH   1   2
BRANCH   1  10
HETATM   10  C8    D T 502       4.085   1.971  -6.923  0.75 15.53     0.111 A 
HETATM   11  C9    D T 502       3.167   1.160  -6.224  0.75 16.45     0.081 A 
HETATM   12  C10   D T 502       2.187   1.730  -5.383  0.75 14.07     0.025 A 
HETATM   13 CL16   D T 502       3.217  -0.583  -6.375  0.75  3.69    -0.080 Cl
HETATM   14  C11   D T 502       2.130   3.149  -5.246  0.75 16.23     0.059 A 
HETATM   15  C12   D T 502       3.040   3.996  -5.936  0.75 16.59     0.013 A 
HETATM   16 CL15   D T 502       0.940   3.854  -4.225  0.75  7.17    -0.082 Cl
HETATM   17  C13   D T 502       4.020   3.410  -6.777  0.75 15.83     0.026 A 
ENDBRANCH   1  10
TORSDOF 2
ENDMDL
MODEL 3
REMARK VINA RESULT:    -7.454      1.397      1.900
REMARK INTER + INTRA:          -8.725
REMARK INTER:                  -8.281
REMARK INTRA:                  -0.444
REMARK UNBOUND:                -0.400
REMARK  2 active torsions:
REMARK  status: ('A' for Active; 'I' for Inactive)
REMARK    1  A    between atoms: C5_4  and  O7_13 
REMARK    2  A    between atoms: C8_10  and  O7_13 
ROOT
HETATM    1  O7    D T 502       5.024   1.311  -7.780  0.75 16.91    -0.304 OA
ENDROOT
BRANCH   1   2
HETATM    2  C5    D T 502       4.046   1.991  -6.958  0.75 15.30     0.125 A 
HETATM    3  C6    D T 502       3.321   1.193  -6.006  0.75 14.99     0.154 A 
HETATM    4  C1    D T 502       2.364   1.810  -5.169  0.75 14.19     0.041 A 
HETATM    5  O17   D T 502       3.562  -0.125  -5.917  0.75 14.56    -0.188 OA
HETATM    6  C2    D T 502       2.150   3.178  -5.295  0.75 11.95     0.060 A 
HETATM    7  C3    D T 502       2.835   3.989  -6.217  0.75 13.64     0.014 A 
HETATM    8 CL14   D T 502       1.010   3.933  -4.272  0.75  1.02    -0.082 Cl
HETATM    9  C4    D T 502       3.827   3.321  -7.074  0.75 15.27     0.028 A 
ENDBRANCH   1   2
BRANCH   1  10
HETATM   10  C8    D T 502       5.116   1.461  -9.175  0.75 15.53     0.111 A 
HETATM   11  C9    D T 502       6.320   1.996  -9.679  0.75 16.45     0.081 A 
HETATM   12  C10   D T 502       6.511   2.180 -11.065  0.75 14.07     0.025 A 
HETATM   13 CL16   D T 502       7.620   2.447  -8.597  0.75  3.69    -0.080 Cl
HETATM   14  C11   D T 502       5.463   1.817 -11.964  0.75 16.23     0.059 A 
HETATM   15  C12   D T 502       4.237   1.275 -11.490  0.75 16.59     0.013 A 
HETATM   16 CL15   D T 502       5.684   2.037 -13.654  0.75  7.17    -0.082 Cl
HETATM   17  C13   D T 502       4.059   1.095 -10.094  0.75 15.83     0.026 A 
ENDBRANCH   1  10
TORSDOF 2
ENDMDL
MODEL 4
REMARK VINA RESULT:    -7.437      4.004      4.768
REMARK INTER + INTRA:          -8.706
REMARK INTER:                  -8.571
REMARK INTRA:                  -0.135
REMARK UNBOUND:                -0.400
REMARK  2 active torsions:
REMARK  status: ('A' for Active; 'I' for Inactive)
REMARK    1  A    between atoms: C5_4  and  O7_13 
REMARK    2  A    between atoms: C8_10  and  O7_13 
ROOT
HETATM    1  O7    D T 502       6.432   2.055  -7.611  0.75 16.91    -0.304 OA
ENDROOT
BRANCH   1   2
HETATM    2  C5    D T 502       7.694   2.067  -6.903  0.75 15.30     0.125 A 
HETATM    3  C6    D T 502       7.663   2.444  -5.515  0.75 14.99     0.154 A 
HETATM    4  C1    D T 502       8.866   2.460  -4.774  0.75 14.19     0.041 A 
HETATM    5  O17   D T 502       6.496   2.774  -4.938  0.75 14.56    -0.188 OA
HETATM    6  C2    D T 502      10.049   2.108  -5.413  0.75 11.95     0.060 A 
HETATM    7  C3    D T 502      10.119   1.740  -6.768  0.75 13.64     0.014 A 
HETATM    8 CL14   D T 502      11.502   2.104  -4.517  0.75  1.02    -0.082 Cl
HETATM    9  C4    D T 502       8.852   1.730  -7.516  0.75 15.27     0.028 A 
ENDBRANCH   1   2
BRANCH   1  10
HETATM   10  C8    D T 502       6.320   2.063  -9.013  0.75 15.53     0.111 A 
HETATM   11  C9    D T 502       5.481   1.087  -9.590  0.75 16.45     0.081 A 
HETATM   12  C10   D T 502       5.299   1.018 -10.988  0.75 14.07     0.025 A 
HETATM   13 CL16   D T 502       4.635  -0.071  -8.587  0.75  3.69    -0.080 Cl
HETATM   14  C11   D T 502       5.979   1.953 -11.823  0.75 16.23     0.059 A 
HETATM   15  C12   D T 502       6.832   2.951 -11.276  0.75 16.59     0.013 A 
HETATM   16 CL15   D T 502       5.766   1.878 -13.527  0.75  7.17    -0.082 Cl
HETATM   17  C13   D T 502       7.005   3.009  -9.869  0.75 15.83     0.026 A 
ENDBRANCH   1  10
TORSDOF 2
ENDMDL
MODEL 5
REMARK VINA RESULT:    -7.280      1.942      6.333
REMARK INTER + INTRA:          -8.530
REMARK INTER:                  -8.182
REMARK INTRA:                  -0.348
REMARK UNBOUND:                -0.400
REMARK  2 active torsions:
REMARK  status: ('A' for Active; 'I' for Inactive)
REMARK    1  A    between atoms: C5_4  and  O7_13 
REMARK    2  A    between atoms: C8_10  and  O7_13 
ROOT
HETATM    1  O7    D T 502       3.114   3.073  -7.856  0.75 16.91    -0.304 OA
ENDROOT
BRANCH   1   2
HETATM    2  C5    D T 502       3.760   2.691  -9.093  0.75 15.30     0.125 A 
HETATM    3  C6    D T 502       5.157   3.005  -9.227  0.75 14.99     0.154 A 
HETATM    4  C1    D T 502       5.839   2.643 -10.410  0.75 14.19     0.041 A 
HETATM    5  O17   D T 502       5.799   3.635  -8.230  0.75 14.56    -0.188 OA
HETATM    6  C2    D T 502       5.134   1.990 -11.415  0.75 11.95     0.060 A 
HETATM    7  C3    D T 502       3.767   1.672 -11.322  0.75 13.64     0.014 A 
HETATM    8 CL14   D T 502       5.958   1.530 -12.837  0.75  1.02    -0.082 Cl
HETATM    9  C4    D T 502       3.082   2.059 -10.079  0.75 15.27     0.028 A 
ENDBRANCH   1   2
BRANCH   1  10
HETATM   10  C8    D T 502       3.024   2.238  -6.728  0.75 15.53     0.111 A 
HETATM   11  C9    D T 502       2.452   2.798  -5.566  0.75 16.45     0.081 A 
HETATM   12  C10   D T 502       2.313   2.038  -4.385  0.75 14.07     0.025 A 
HETATM   13 CL16   D T 502       1.894   4.457  -5.554  0.75  3.69    -0.080 Cl
HETATM   14  C11   D T 502       2.761   0.683  -4.375  0.75 16.23     0.059 A 
HETATM   15  C12   D T 502       3.341   0.087  -5.528  0.75 16.59     0.013 A 
HETATM   16 CL15   D T 502       2.597  -0.252  -2.942  0.75  7.17    -0.082 Cl
HETATM   17  C13   D T 502       3.474   0.863  -6.708  0.75 15.83     0.026 A 
ENDBRANCH   1  10
TORSDOF 2
ENDMDL
MODEL 6
REMARK VINA RESULT:    -7.215      2.398      2.948
REMARK INTER + INTRA:          -8.459
REMARK INTER:                  -8.024
REMARK INTRA:                  -0.434
REMARK UNBOUND:                -0.400
REMARK  2 active torsions:
REMARK  status: ('A' for Active; 'I' for Inactive)
REMARK    1  A    between atoms: C5_4  and  O7_13 
REMARK    2  A    between atoms: C8_10  and  O7_13 
ROOT
HETATM    1  O7    D T 502       4.662   3.596  -7.907  0.75 16.91    -0.304 OA
ENDROOT
BRANCH   1   2
HETATM    2  C5    D T 502       4.249   2.739  -6.816  0.75 15.30     0.125 A 
HETATM    3  C6    D T 502       3.075   3.130  -6.083  0.75 14.99     0.154 A 
HETATM    4  C1    D T 502       2.621   2.322  -5.017  0.75 14.19     0.041 A 
HETATM    5  O17   D T 502       2.420   4.253  -6.420  0.75 14.56    -0.188 OA
HETATM    6  C2    D T 502       3.329   1.167  -4.707  0.75 11.95     0.060 A 
HETATM    7  C3    D T 502       4.484   0.756  -5.396  0.75 13.64     0.014 A 
HETATM    8 CL14   D T 502       2.774   0.174  -3.433  0.75  1.02    -0.082 Cl
HETATM    9  C4    D T 502       4.933   1.614  -6.503  0.75 15.27     0.028 A 
ENDBRANCH   1   2
BRANCH   1  10
HETATM   10  C8    D T 502       4.859   3.148  -9.225  0.75 15.53     0.111 A 
HETATM   11  C9    D T 502       6.191   2.911  -9.624  0.75 16.45     0.081 A 
HETATM   12  C10   D T 502       6.491   2.454 -10.925  0.75 14.07     0.025 A 
HETATM   13 CL16   D T 502       7.517   3.176  -8.513  0.75  3.69    -0.080 Cl
HETATM   14  C11   D T 502       5.423   2.231 -11.845  0.75 16.23     0.059 A 
HETATM   15  C12   D T 502       4.069   2.459 -11.477  0.75 16.59     0.013 A 
HETATM   16 CL15   D T 502       5.777   1.675 -13.433  0.75  7.17    -0.082 Cl
HETATM   17  C13   D T 502       3.782   2.918 -10.165  0.75 15.83     0.026 A 
ENDBRANCH   1  10
TORSDOF 2
ENDMDL
MODEL 7
REMARK VINA RESULT:    -7.211      2.198      6.258
REMARK INTER + INTRA:          -8.453
REMARK INTER:                  -7.951
REMARK INTRA:                  -0.502
REMARK UNBOUND:                -0.400
REMARK  2 active torsions:
REMARK  status: ('A' for Active; 'I' for Inactive)
REMARK    1  A    between atoms: C5_4  and  O7_13 
REMARK    2  A    between atoms: C8_10  and  O7_13 
ROOT
HETATM    1  O7    D T 502       2.781   1.902  -7.713  0.75 16.91    -0.304 OA
ENDROOT
BRANCH   1   2
HETATM    2  C5    D T 502       3.655   1.722  -8.852  0.75 15.30     0.125 A 
HETATM    3  C6    D T 502       3.544   2.676  -9.922  0.75 14.99     0.154 A 
HETATM    4  C1    D T 502       4.383   2.553 -11.052  0.75 14.19     0.041 A 
HETATM    5  O17   D T 502       2.649   3.674  -9.837  0.75 14.56    -0.188 OA
HETATM    6  C2    D T 502       5.296   1.506 -11.095  0.75 11.95     0.060 A 
HETATM    7  C3    D T 502       5.430   0.551 -10.072  0.75 13.64     0.014 A 
HETATM    8 CL14   D T 502       6.328   1.365 -12.448  0.75  1.02    -0.082 Cl
HETATM    9  C4    D T 502       4.545   0.703  -8.906  0.75 15.27     0.028 A 
ENDBRANCH   1   2
BRANCH   1  10
HETATM   10  C8    D T 502       3.193   2.459  -6.489  0.75 15.53     0.111 A 
HETATM   11  C9    D T 502       3.408   1.560  -5.423  0.75 16.45     0.081 A 
HETATM   12  C10   D T 502       3.828   2.021  -4.156  0.75 14.07     0.025 A 
HETATM   13 CL16   D T 502       3.161  -0.159  -5.638  0.75  3.69    -0.080 Cl
HETATM   14  C11   D T 502       4.036   3.420  -3.961  0.75 16.23     0.059 A 
HETATM   15  C12   D T 502       3.829   4.353  -5.014  0.75 16.59     0.013 A 
HETATM   16 CL15   D T 502       4.547   3.992  -2.423  0.75  7.17    -0.082 Cl
HETATM   17  C13   D T 502       3.407   3.875  -6.281  0.75 15.83     0.026 A 
ENDBRANCH   1  10
TORSDOF 2
ENDMDL
MODEL 8
REMARK VINA RESULT:    -7.031      2.161      2.409
REMARK INTER + INTRA:          -8.252
REMARK INTER:                  -7.797
REMARK INTRA:                  -0.455
REMARK UNBOUND:                -0.400
REMARK  2 active torsions:
REMARK  status: ('A' for Active; 'I' for Inactive)
REMARK    1  A    between atoms: C5_4  and  O7_13 
REMARK    2  A    between atoms: C8_10  and  O7_13 
ROOT
HETATM    1  O7    D T 502       2.769   2.091  -7.238  0.75 16.91    -0.304 OA
ENDROOT
BRANCH   1   2
HETATM    2  C5    D T 502       3.207   2.659  -5.981  0.75 15.30     0.125 A 
HETATM    3  C6    D T 502       3.417   1.749  -4.887  0.75 14.99     0.154 A 
HETATM    4  C1    D T 502       3.857   2.250  -3.642  0.75 14.19     0.041 A 
HETATM    5  O17   D T 502       3.199   0.435  -5.060  0.75 14.56    -0.188 OA
HETATM    6  C2    D T 502       4.073   3.617  -3.510  0.75 11.95     0.060 A 
HETATM    7  C3    D T 502       3.873   4.538  -4.554  0.75 13.64     0.014 A 
HETATM    8 CL14   D T 502       4.625   4.226  -2.014  0.75  1.02    -0.082 Cl
HETATM    9  C4    D T 502       3.417   3.989  -5.841  0.75 15.27     0.028 A 
ENDBRANCH   1   2
BRANCH   1  10
HETATM   10  C8    D T 502       3.629   1.821  -8.318  0.75 15.53     0.111 A 
HETATM   11  C9    D T 502       3.685   2.789  -9.343  0.75 16.45     0.081 A 
HETATM   12  C10   D T 502       4.522   2.613 -10.465  0.75 14.07     0.025 A 
HETATM   13 CL16   D T 502       2.717   4.245  -9.252  0.75  3.69    -0.080 Cl
HETATM   14  C11   D T 502       5.320   1.433 -10.557  0.75 16.23     0.059 A 
HETATM   15  C12   D T 502       5.288   0.437  -9.542  0.75 16.59     0.013 A 
HETATM   16 CL15   D T 502       6.342   1.207 -11.920  0.75  7.17    -0.082 Cl
HETATM   17  C13   D T 502       4.442   0.628  -8.419  0.75 15.83     0.026 A 
ENDBRANCH   1  10
TORSDOF 2
ENDMDL
MODEL 9
REMARK VINA RESULT:    -6.931      2.649      3.392
REMARK INTER + INTRA:          -8.141
REMARK INTER:                  -7.732
REMARK INTRA:                  -0.409
REMARK UNBOUND:                -0.400
REMARK  2 active torsions:
REMARK  status: ('A' for Active; 'I' for Inactive)
REMARK    1  A    between atoms: C5_4  and  O7_13 
REMARK    2  A    between atoms: C8_10  and  O7_13 
ROOT
HETATM    1  O7    D T 502       2.500   2.411  -6.164  0.75 16.91    -0.304 OA
ENDROOT
BRANCH   1   2
HETATM    2  C5    D T 502       2.981   3.243  -5.082  0.75 15.30     0.125 A 
HETATM    3  C6    D T 502       2.534   4.609  -5.056  0.75 14.99     0.154 A 
HETATM    4  C1    D T 502       2.964   5.460  -4.013  0.75 14.19     0.041 A 
HETATM    5  O17   D T 502       1.712   5.062  -6.016  0.75 14.56    -0.188 OA
HETATM    6  C2    D T 502       3.813   4.947  -3.039  0.75 11.95     0.060 A 
HETATM    7  C3    D T 502       4.275   3.620  -3.035  0.75 13.64     0.014 A 
HETATM    8 CL14   D T 502       4.319   5.965  -1.765  0.75  1.02    -0.082 Cl
HETATM    9  C4    D T 502       3.811   2.754  -4.130  0.75 15.27     0.028 A 
ENDBRANCH   1   2
BRANCH   1  10
HETATM   10  C8    D T 502       3.245   2.121  -7.321  0.75 15.53     0.111 A 
HETATM   11  C9    D T 502       2.918   0.932  -8.006  0.75 16.45     0.081 A 
HETATM   12  C10   D T 502       3.606   0.556  -9.180  0.75 14.07     0.025 A 
HETATM   13 CL16   D T 502       1.645  -0.117  -7.421  0.75  3.69    -0.080 Cl
HETATM   14  C11   D T 502       4.647   1.399  -9.674  0.75 16.23     0.059 A 
HETATM   15  C12   D T 502       5.002   2.604  -9.009  0.75 16.59     0.013 A 
HETATM   16 CL15   D T 502       5.491   0.951 -11.103  0.75  7.17    -0.082 Cl
HETATM   17  C13   D T 502       4.302   2.969  -7.830  0.75 15.83     0.026 A 
ENDBRANCH   1  10
TORSDOF 2
ENDMDL
