MODEL 1
REMARK VINA RESULT:    -7.742      0.000      0.000
REMARK INTER + INTRA:          -9.045
REMARK INTER:                  -8.647
REMARK INTRA:                  -0.398
REMARK UNBOUND:                -0.398
REMARK  2 active torsions:
REMARK  status: ('A' for Active; 'I' for Inactive)
REMARK    1  A    between atoms: C5_4  and  O7_13 
REMARK    2  A    between atoms: C8_10  and  O7_13 
ROOT
HETATM    1  O7    D T 502       5.824   0.798  -7.235  0.75 16.91    -0.304 OA
ENDROOT
BRANCH   1   2
HETATM    2  C5    D T 502       5.109   1.738  -6.397  0.75 15.30     0.125 A 
HETATM    3  C6    D T 502       4.108   1.200  -5.517  0.75 14.99     0.154 A 
HETATM    4  C1    D T 502       3.389   2.073  -4.669  0.75 14.19     0.041 A 
HETATM    5  O17   D T 502       3.867  -0.121  -5.505  0.75 14.56    -0.188 OA
HETATM    6  C2    D T 502       3.674   3.433  -4.713  0.75 11.95     0.060 A 
HETATM    7  C3    D T 502       4.642   3.995  -5.565  0.75 13.64     0.014 A 
HETATM    8 CL14   D T 502       2.825   4.489  -3.676  0.75  1.02    -0.082 Cl
HETATM    9  C4    D T 502       5.376   3.064  -6.435  0.75 15.27     0.028 A 
ENDBRANCH   1   2
BRANCH   1  10
HETATM   10  C8    D T 502       6.347   1.117  -8.502  0.75 15.53     0.111 A 
HETATM   11  C9    D T 502       5.444   1.095  -9.585  0.75 16.45     0.081 A 
HETATM   12  C10   D T 502       5.871   1.405 -10.895  0.75 14.07     0.025 A 
HETATM   13 CL16   D T 502       3.761   0.682  -9.339  0.75  3.69    -0.080 Cl
HETATM   14  C11   D T 502       7.239   1.746 -11.115  0.75 16.23     0.059 A 
HETATM   15  C12   D T 502       8.176   1.778 -10.046  0.75 16.59     0.013 A 
HETATM   16 CL15   D T 502       7.770   2.125 -12.706  0.75  7.17    -0.082 Cl
HETATM   17  C13   D T 502       7.733   1.464  -8.736  0.75 15.83     0.026 A 
ENDBRANCH   1  10
TORSDOF 2
ENDMDL
MODEL 2
REMARK VINA RESULT:    -7.719      1.293      6.154
REMARK INTER + INTRA:          -9.020
REMARK INTER:                  -8.528
REMARK INTRA:                  -0.492
REMARK UNBOUND:                -0.398
REMARK  2 active torsions:
REMARK  status: ('A' for Active; 'I' for Inactive)
REMARK    1  A    between atoms: C5_4  and  O7_13 
REMARK    2  A    between atoms: C8_10  and  O7_13 
ROOT
HETATM    1  O7    D T 502       6.622   1.136  -7.112  0.75 16.91    -0.304 OA
ENDROOT
BRANCH   1   2
HETATM    2  C5    D T 502       6.890   1.368  -8.516  0.75 15.30     0.125 A 
HETATM    3  C6    D T 502       8.194   1.865  -8.860  0.75 14.99     0.154 A 
HETATM    4  C1    D T 502       8.513   2.097 -10.217  0.75 14.19     0.041 A 
HETATM    5  O17   D T 502       9.097   2.102  -7.893  0.75 14.56    -0.188 OA
HETATM    6  C2    D T 502       7.548   1.835 -11.184  0.75 11.95     0.060 A 
HETATM    7  C3    D T 502       6.261   1.354 -10.884  0.75 13.64     0.014 A 
HETATM    8 CL14   D T 502       7.934   2.092 -12.826  0.75  1.02    -0.082 Cl
HETATM    9  C4    D T 502       5.958   1.120  -9.464  0.75 15.27     0.028 A 
ENDBRANCH   1   2
BRANCH   1  10
HETATM   10  C8    D T 502       5.743   1.919  -6.342  0.75 15.53     0.111 A 
HETATM   11  C9    D T 502       4.584   1.280  -5.854  0.75 16.45     0.081 A 
HETATM   12  C10   D T 502       3.643   1.980  -5.068  0.75 14.07     0.025 A 
HETATM   13 CL16   D T 502       4.276  -0.406  -6.208  0.75  3.69    -0.080 Cl
HETATM   14  C11   D T 502       3.878   3.356  -4.767  0.75 16.23     0.059 A 
HETATM   15  C12   D T 502       5.035   4.031  -5.243  0.75 16.59     0.013 A 
HETATM   16 CL15   D T 502       2.739   4.218  -3.810  0.75  7.17    -0.082 Cl
HETATM   17  C13   D T 502       5.972   3.315  -6.032  0.75 15.83     0.026 A 
ENDBRANCH   1  10
TORSDOF 2
ENDMDL
MODEL 3
REMARK VINA RESULT:    -7.643      1.459      1.975
REMARK INTER + INTRA:          -8.934
REMARK INTER:                  -8.484
REMARK INTRA:                  -0.451
REMARK UNBOUND:                -0.398
REMARK  2 active torsions:
REMARK  status: ('A' for Active; 'I' for Inactive)
REMARK    1  A    between atoms: C5_4  and  O7_13 
REMARK    2  A    between atoms: C8_10  and  O7_13 
ROOT
HETATM    1  O7    D T 502       6.608   1.279  -6.971  0.75 16.91    -0.304 OA
ENDROOT
BRANCH   1   2
HETATM    2  C5    D T 502       5.667   2.078  -6.215  0.75 15.30     0.125 A 
HETATM    3  C6    D T 502       4.810   1.383  -5.293  0.75 14.99     0.154 A 
HETATM    4  C1    D T 502       3.882   2.117  -4.521  0.75 14.19     0.041 A 
HETATM    5  O17   D T 502       4.900   0.048  -5.172  0.75 14.56    -0.188 OA
HETATM    6  C2    D T 502       3.825   3.497  -4.678  0.75 11.95     0.060 A 
HETATM    7  C3    D T 502       4.643   4.209  -5.573  0.75 13.64     0.014 A 
HETATM    8 CL14   D T 502       2.722   4.391  -3.732  0.75  1.02    -0.082 Cl
HETATM    9  C4    D T 502       5.601   3.421  -6.363  0.75 15.27     0.028 A 
ENDBRANCH   1   2
BRANCH   1  10
HETATM   10  C8    D T 502       6.858   1.453  -8.345  0.75 15.53     0.111 A 
HETATM   11  C9    D T 502       8.118   1.979  -8.699  0.75 16.45     0.081 A 
HETATM   12  C10   D T 502       8.465   2.186 -10.052  0.75 14.07     0.025 A 
HETATM   13 CL16   D T 502       9.293   2.392  -7.470  0.75  3.69    -0.080 Cl
HETATM   14  C11   D T 502       7.520   1.854 -11.069  0.75 16.23     0.059 A 
HETATM   15  C12   D T 502       6.242   1.322 -10.747  0.75 16.59     0.013 A 
HETATM   16 CL15   D T 502       7.934   2.102 -12.719  0.75  7.17    -0.082 Cl
HETATM   17  C13   D T 502       5.906   1.119  -9.384  0.75 15.83     0.026 A 
ENDBRANCH   1  10
TORSDOF 2
ENDMDL
MODEL 4
REMARK VINA RESULT:    -7.581      1.160      5.981
REMARK INTER + INTRA:          -8.866
REMARK INTER:                  -8.531
REMARK INTRA:                  -0.334
REMARK UNBOUND:                -0.398
REMARK  2 active torsions:
REMARK  status: ('A' for Active; 'I' for Inactive)
REMARK    1  A    between atoms: C5_4  and  O7_13 
REMARK    2  A    between atoms: C8_10  and  O7_13 
ROOT
HETATM    1  O7    D T 502       5.990   0.756  -7.556  0.75 16.91    -0.304 OA
ENDROOT
BRANCH   1   2
HETATM    2  C5    D T 502       6.509   1.118  -8.858  0.75 15.30     0.125 A 
HETATM    3  C6    D T 502       5.560   1.246  -9.930  0.75 14.99     0.154 A 
HETATM    4  C1    D T 502       6.013   1.610 -11.218  0.75 14.19     0.041 A 
HETATM    5  O17   D T 502       4.256   1.023  -9.699  0.75 14.56    -0.188 OA
HETATM    6  C2    D T 502       7.372   1.833 -11.410  0.75 11.95     0.060 A 
HETATM    7  C3    D T 502       8.330   1.712 -10.387  0.75 13.64     0.014 A 
HETATM    8 CL14   D T 502       7.923   2.295 -12.958  0.75  1.02    -0.082 Cl
HETATM    9  C4    D T 502       7.830   1.334  -9.057  0.75 15.27     0.028 A 
ENDBRANCH   1   2
BRANCH   1  10
HETATM   10  C8    D T 502       5.329   1.654  -6.699  0.75 15.53     0.111 A 
HETATM   11  C9    D T 502       4.209   1.157  -5.999  0.75 16.45     0.081 A 
HETATM   12  C10   D T 502       3.482   1.980  -5.112  0.75 14.07     0.025 A 
HETATM   13 CL16   D T 502       3.685  -0.499  -6.211  0.75  3.69    -0.080 Cl
HETATM   14  C11   D T 502       3.895   3.333  -4.925  0.75 16.23     0.059 A 
HETATM   15  C12   D T 502       5.019   3.867  -5.613  0.75 16.59     0.013 A 
HETATM   16 CL15   D T 502       3.017   4.343  -3.846  0.75  7.17    -0.082 Cl
HETATM   17  C13   D T 502       5.740   3.029  -6.502  0.75 15.83     0.026 A 
ENDBRANCH   1  10
TORSDOF 2
ENDMDL
MODEL 5
REMARK VINA RESULT:    -7.421      2.019      6.294
REMARK INTER + INTRA:          -8.686
REMARK INTER:                  -8.350
REMARK INTRA:                  -0.336
REMARK UNBOUND:                -0.398
REMARK  2 active torsions:
REMARK  status: ('A' for Active; 'I' for Inactive)
REMARK    1  A    between atoms: C5_4  and  O7_13 
REMARK    2  A    between atoms: C8_10  and  O7_13 
ROOT
HETATM    1  O7    D T 502       5.072   3.436  -7.108  0.75 16.91    -0.304 OA
ENDROOT
BRANCH   1   2
HETATM    2  C5    D T 502       5.761   3.017  -8.311  0.75 15.30     0.125 A 
HETATM    3  C6    D T 502       7.192   2.900  -8.240  0.75 14.99     0.154 A 
HETATM    4  C1    D T 502       7.911   2.483  -9.382  0.75 14.19     0.041 A 
HETATM    5  O17   D T 502       7.830   3.183  -7.093  0.75 14.56    -0.188 OA
HETATM    6  C2    D T 502       7.208   2.198 -10.548  0.75 11.95     0.060 A 
HETATM    7  C3    D T 502       5.810   2.307 -10.656  0.75 13.64     0.014 A 
HETATM    8 CL14   D T 502       8.069   1.672 -11.924  0.75  1.02    -0.082 Cl
HETATM    9  C4    D T 502       5.087   2.741  -9.451  0.75 15.27     0.028 A 
ENDBRANCH   1   2
BRANCH   1  10
HETATM   10  C8    D T 502       4.647   2.551  -6.100  0.75 15.53     0.111 A 
HETATM   11  C9    D T 502       4.033   3.126  -4.968  0.75 16.45     0.081 A 
HETATM   12  C10   D T 502       3.569   2.321  -3.905  0.75 14.07     0.025 A 
HETATM   13 CL16   D T 502       3.829   4.860  -4.844  0.75  3.69    -0.080 Cl
HETATM   14  C11   D T 502       3.725   0.905  -3.988  0.75 16.23     0.059 A 
HETATM   15  C12   D T 502       4.339   0.292  -5.115  0.75 16.59     0.013 A 
HETATM   16 CL15   D T 502       3.162  -0.084  -2.700  0.75  7.17    -0.082 Cl
HETATM   17  C13   D T 502       4.801   1.113  -6.175  0.75 15.83     0.026 A 
ENDBRANCH   1  10
TORSDOF 2
ENDMDL
MODEL 6
REMARK VINA RESULT:    -7.361      3.863      6.458
REMARK INTER + INTRA:          -8.620
REMARK INTER:                  -8.575
REMARK INTRA:                  -0.045
REMARK UNBOUND:                -0.398
REMARK  2 active torsions:
REMARK  status: ('A' for Active; 'I' for Inactive)
REMARK    1  A    between atoms: C5_4  and  O7_13 
REMARK    2  A    between atoms: C8_10  and  O7_13 
ROOT
HETATM    1  O7    D T 502       7.720   1.630  -6.875  0.75 16.91    -0.304 OA
ENDROOT
BRANCH   1   2
HETATM    2  C5    D T 502       7.842   1.752  -8.312  0.75 15.30     0.125 A 
HETATM    3  C6    D T 502       6.914   1.002  -9.115  0.75 14.99     0.154 A 
HETATM    4  C1    D T 502       6.982   1.095 -10.523  0.75 14.19     0.041 A 
HETATM    5  O17   D T 502       5.993   0.225  -8.522  0.75 14.56    -0.188 OA
HETATM    6  C2    D T 502       7.950   1.914 -11.093  0.75 11.95     0.060 A 
HETATM    7  C3    D T 502       8.877   2.657 -10.340  0.75 13.64     0.014 A 
HETATM    8 CL14   D T 502       8.022   2.048 -12.793  0.75  1.02    -0.082 Cl
HETATM    9  C4    D T 502       8.783   2.543  -8.877  0.75 15.27     0.028 A 
ENDBRANCH   1   2
BRANCH   1  10
HETATM   10  C8    D T 502       8.808   1.402  -6.012  0.75 15.53     0.111 A 
HETATM   11  C9    D T 502       8.587   1.630  -4.638  0.75 16.45     0.081 A 
HETATM   12  C10   D T 502       9.615   1.425  -3.692  0.75 14.07     0.025 A 
HETATM   13 CL16   D T 502       7.028   2.176  -4.060  0.75  3.69    -0.080 Cl
HETATM   14  C11   D T 502      10.894   0.978  -4.144  0.75 16.23     0.059 A 
HETATM   15  C12   D T 502      11.150   0.739  -5.521  0.75 16.59     0.013 A 
HETATM   16 CL15   D T 502      12.152   0.725  -3.001  0.75  7.17    -0.082 Cl
HETATM   17  C13   D T 502      10.108   0.949  -6.460  0.75 15.83     0.026 A 
ENDBRANCH   1  10
TORSDOF 2
ENDMDL
MODEL 7
REMARK VINA RESULT:    -7.088      1.954      6.113
REMARK INTER + INTRA:          -8.315
REMARK INTER:                  -8.010
REMARK INTRA:                  -0.305
REMARK UNBOUND:                -0.398
REMARK  2 active torsions:
REMARK  status: ('A' for Active; 'I' for Inactive)
REMARK    1  A    between atoms: C5_4  and  O7_13 
REMARK    2  A    between atoms: C8_10  and  O7_13 
ROOT
HETATM    1  O7    D T 502       4.225   1.914  -6.872  0.75 16.91    -0.304 OA
ENDROOT
BRANCH   1   2
HETATM    2  C5    D T 502       5.147   1.890  -7.988  0.75 15.30     0.125 A 
HETATM    3  C6    D T 502       5.904   0.684  -8.185  0.75 14.99     0.154 A 
HETATM    4  C1    D T 502       6.809   0.603  -9.267  0.75 14.19     0.041 A 
HETATM    5  O17   D T 502       5.743  -0.352  -7.346  0.75 14.56    -0.188 OA
HETATM    6  C2    D T 502       6.941   1.699 -10.112  0.75 11.95     0.060 A 
HETATM    7  C3    D T 502       6.222   2.896  -9.946  0.75 13.64     0.014 A 
HETATM    8 CL14   D T 502       8.016   1.599 -11.434  0.75  1.02    -0.082 Cl
HETATM    9  C4    D T 502       5.286   2.952  -8.814  0.75 15.27     0.028 A 
ENDBRANCH   1   2
BRANCH   1  10
HETATM   10  C8    D T 502       4.486   2.567  -5.653  0.75 15.53     0.111 A 
HETATM   11  C9    D T 502       4.421   1.781  -4.484  0.75 16.45     0.081 A 
HETATM   12  C10   D T 502       4.671   2.343  -3.214  0.75 14.07     0.025 A 
HETATM   13 CL16   D T 502       4.027   0.078  -4.573  0.75  3.69    -0.080 Cl
HETATM   14  C11   D T 502       4.996   3.730  -3.122  0.75 16.23     0.059 A 
HETATM   15  C12   D T 502       5.070   4.552  -4.279  0.75 16.59     0.013 A 
HETATM   16 CL15   D T 502       5.303   4.425  -1.580  0.75  7.17    -0.082 Cl
HETATM   17  C13   D T 502       4.815   3.973  -5.549  0.75 15.83     0.026 A 
ENDBRANCH   1  10
TORSDOF 2
ENDMDL
MODEL 8
REMARK VINA RESULT:    -7.045      1.972      2.102
REMARK INTER + INTRA:          -8.267
REMARK INTER:                  -7.872
REMARK INTRA:                  -0.395
REMARK UNBOUND:                -0.398
REMARK  2 active torsions:
REMARK  status: ('A' for Active; 'I' for Inactive)
REMARK    1  A    between atoms: C5_4  and  O7_13 
REMARK    2  A    between atoms: C8_10  and  O7_13 
ROOT
HETATM    1  O7    D T 502       4.259   2.140  -6.993  0.75 16.91    -0.304 OA
ENDROOT
BRANCH   1   2
HETATM    2  C5    D T 502       4.602   2.538  -5.644  0.75 15.30     0.125 A 
HETATM    3  C6    D T 502       4.657   1.502  -4.649  0.75 14.99     0.154 A 
HETATM    4  C1    D T 502       4.999   1.834  -3.319  0.75 14.19     0.041 A 
HETATM    5  O17   D T 502       4.387   0.231  -4.992  0.75 14.56    -0.188 OA
HETATM    6  C2    D T 502       5.272   3.163  -3.012  0.75 11.95     0.060 A 
HETATM    7  C3    D T 502       5.223   4.203  -3.957  0.75 13.64     0.014 A 
HETATM    8 CL14   D T 502       5.708   3.567  -1.412  0.75  1.02    -0.082 Cl
HETATM    9  C4    D T 502       4.866   3.828  -5.333  0.75 15.27     0.028 A 
ENDBRANCH   1   2
BRANCH   1  10
HETATM   10  C8    D T 502       5.208   1.895  -8.003  0.75 15.53     0.111 A 
HETATM   11  C9    D T 502       5.516   2.972  -8.860  0.75 16.45     0.081 A 
HETATM   12  C10   D T 502       6.459   2.828  -9.901  0.75 14.07     0.025 A 
HETATM   13 CL16   D T 502       4.737   4.527  -8.659  0.75  3.69    -0.080 Cl
HETATM   14  C11   D T 502       7.106   1.568 -10.080  0.75 16.23     0.059 A 
HETATM   15  C12   D T 502       6.820   0.461  -9.234  0.75 16.59     0.013 A 
HETATM   16 CL15   D T 502       8.256   1.381 -11.344  0.75  7.17    -0.082 Cl
HETATM   17  C13   D T 502       5.870   0.621  -8.193  0.75 15.83     0.026 A 
ENDBRANCH   1  10
TORSDOF 2
ENDMDL
MODEL 9
REMARK VINA RESULT:    -7.014      2.502      2.883
REMARK INTER + INTRA:          -8.233
REMARK INTER:                  -7.775
REMARK INTRA:                  -0.458
REMARK UNBOUND:                -0.398
REMARK  2 active torsions:
REMARK  status: ('A' for Active; 'I' for Inactive)
REMARK    1  A    between atoms: C5_4  and  O7_13 
REMARK    2  A    between atoms: C8_10  and  O7_13 
ROOT
HETATM    1  O7    D T 502       4.276   2.978  -6.383  0.75 16.91    -0.304 OA
ENDROOT
BRANCH   1   2
HETATM    2  C5    D T 502       4.724   3.180  -5.021  0.75 15.30     0.125 A 
HETATM    3  C6    D T 502       4.371   4.423  -4.392  0.75 14.99     0.154 A 
HETATM    4  C1    D T 502       4.773   4.666  -3.060  0.75 14.19     0.041 A 
HETATM    5  O17   D T 502       3.662   5.340  -5.073  0.75 14.56    -0.188 OA
HETATM    6  C2    D T 502       5.503   3.688  -2.393  0.75 11.95     0.060 A 
HETATM    7  C3    D T 502       5.871   2.463  -2.978  0.75 13.64     0.014 A 
HETATM    8 CL14   D T 502       5.972   3.965  -0.776  0.75  1.02    -0.082 Cl
HETATM    9  C4    D T 502       5.438   2.236  -4.365  0.75 15.27     0.028 A 
ENDBRANCH   1   2
BRANCH   1  10
HETATM   10  C8    D T 502       5.116   2.563  -7.431  0.75 15.53     0.111 A 
HETATM   11  C9    D T 502       4.864   1.289  -7.982  0.75 16.45     0.081 A 
HETATM   12  C10   D T 502       5.649   0.785  -9.041  0.75 14.07     0.025 A 
HETATM   13 CL16   D T 502       3.564   0.291  -7.367  0.75  3.69    -0.080 Cl
HETATM   14  C11   D T 502       6.713   1.585  -9.556  0.75 16.23     0.059 A 
HETATM   15  C12   D T 502       6.996   2.873  -9.026  0.75 16.59     0.013 A 
HETATM   16 CL15   D T 502       7.676   0.981 -10.846  0.75  7.17    -0.082 Cl
HETATM   17  C13   D T 502       6.198   3.367  -7.962  0.75 15.83     0.026 A 
ENDBRANCH   1  10
TORSDOF 2
ENDMDL
