MODEL 1
REMARK VINA RESULT:      -8.2      0.000      0.000
REMARK  2 active torsions:
REMARK  status: ('A' for Active; 'I' for Inactive)
REMARK    1  A    between atoms: C5_4  and  O7_13 
REMARK    2  A    between atoms: C8_10  and  O7_13 
ROOT
HETATM    1  O7    D T 502      33.925  29.654-226.282  0.75 16.91    -0.304 OA
ENDROOT
BRANCH   1   2
HETATM    2  C5    D T 502      33.409  30.997-226.124  0.75 15.30     0.125 A 
HETATM    3  C6    D T 502      32.695  31.560-227.237  0.75 14.99     0.154 A 
HETATM    4  C1    D T 502      32.161  32.863-227.131  0.75 14.19     0.041 A 
HETATM    5  O17   D T 502      32.540  30.845-228.363  0.75 14.56    -0.188 OA
HETATM    6  C2    D T 502      32.344  33.566-225.946  0.75 11.95     0.060 A 
HETATM    7  C3    D T 502      33.041  33.051-224.838  0.75 13.64     0.014 A 
HETATM    8 CL14   D T 502      31.681  35.133-225.804  0.75  1.02    -0.082 Cl
HETATM    9  C4    D T 502      33.585  31.692-224.976  0.75 15.27     0.028 A 
ENDBRANCH   1   2
BRANCH   1  10
HETATM   10  C8    D T 502      35.124  29.200-225.701  0.75 15.53     0.111 A 
HETATM   11  C9    D T 502      36.323  29.593-226.330  0.75 16.45     0.081 A 
HETATM   12  C10   D T 502      37.577  29.194-225.820  0.75 14.07     0.025 A 
HETATM   13 CL16   D T 502      36.294  30.591-227.768  0.75  3.69    -0.080 Cl
HETATM   14  C11   D T 502      37.621  28.380-224.647  0.75 16.23     0.059 A 
HETATM   15  C12   D T 502      36.432  27.967-223.987  0.75 16.59     0.013 A 
HETATM   16 CL15   D T 502      39.142  27.888-224.017  0.75  7.17    -0.082 Cl
HETATM   17  C13   D T 502      35.179  28.377-224.512  0.75 15.83     0.026 A 
ENDBRANCH   1  10
TORSDOF 2
ENDMDL
MODEL 2
REMARK VINA RESULT:      -8.0      1.107      5.959
REMARK  2 active torsions:
REMARK  status: ('A' for Active; 'I' for Inactive)
REMARK    1  A    between atoms: C5_4  and  O7_13 
REMARK    2  A    between atoms: C8_10  and  O7_13 
ROOT
HETATM    1  O7    D T 502      34.178  29.488-226.389  0.75 16.91    -0.304 OA
ENDROOT
BRANCH   1   2
HETATM    2  C5    D T 502      35.408  29.050-225.763  0.75 15.30     0.125 A 
HETATM    3  C6    D T 502      36.635  29.595-226.275  0.75 14.99     0.154 A 
HETATM    4  C1    D T 502      37.862  29.211-225.691  0.75 14.19     0.041 A 
HETATM    5  O17   D T 502      36.605  30.466-227.298  0.75 14.56    -0.188 OA
HETATM    6  C2    D T 502      37.846  28.309-224.633  0.75 11.95     0.060 A 
HETATM    7  C3    D T 502      36.667  27.750-224.109  0.75 13.64     0.014 A 
HETATM    8 CL14   D T 502      39.324  27.857-223.909  0.75  1.02    -0.082 Cl
HETATM    9  C4    D T 502      35.403  28.169-224.735  0.75 15.27     0.028 A 
ENDBRANCH   1   2
BRANCH   1  10
HETATM   10  C8    D T 502      33.605  30.757-226.189  0.75 15.53     0.111 A 
HETATM   11  C9    D T 502      33.155  31.439-227.338  0.75 16.45     0.081 A 
HETATM   12  C10   D T 502      32.560  32.715-227.241  0.75 14.07     0.025 A 
HETATM   13 CL16   D T 502      33.321  30.722-228.926  0.75  3.69    -0.080 Cl
HETATM   14  C11   D T 502      32.415  33.316-225.954  0.75 16.23     0.059 A 
HETATM   15  C12   D T 502      32.856  32.656-224.774  0.75 16.59     0.013 A 
HETATM   16 CL15   D T 502      31.692  34.870-225.822  0.75  7.17    -0.082 Cl
HETATM   17  C13   D T 502      33.453  31.374-224.889  0.75 15.83     0.026 A 
ENDBRANCH   1  10
TORSDOF 2
ENDMDL
MODEL 3
REMARK VINA RESULT:      -7.9      1.345      1.802
REMARK  2 active torsions:
REMARK  status: ('A' for Active; 'I' for Inactive)
REMARK    1  A    between atoms: C5_4  and  O7_13 
REMARK    2  A    between atoms: C8_10  and  O7_13 
ROOT
HETATM    1  O7    D T 502      33.805  30.096-226.381  0.75 16.91    -0.304 OA
ENDROOT
BRANCH   1   2
HETATM    2  C5    D T 502      33.286  31.422-226.125  0.75 15.30     0.125 A 
HETATM    3  C6    D T 502      32.307  31.932-227.047  0.75 14.99     0.154 A 
HETATM    4  C1    D T 502      31.759  33.217-226.836  0.75 14.19     0.041 A 
HETATM    5  O17   D T 502      31.921  31.184-228.094  0.75 14.56    -0.188 OA
HETATM    6  C2    D T 502      32.187  33.954-225.738  0.75 11.95     0.060 A 
HETATM    7  C3    D T 502      33.146  33.492-224.820  0.75 13.64     0.014 A 
HETATM    8 CL14   D T 502      31.511  35.499-225.467  0.75  1.02    -0.082 Cl
HETATM    9  C4    D T 502      33.699  32.151-225.062  0.75 15.27     0.028 A 
ENDBRANCH   1   2
BRANCH   1  10
HETATM   10  C8    D T 502      35.038  29.628-225.890  0.75 15.53     0.111 A 
HETATM   11  C9    D T 502      34.996  28.807-224.743  0.75 16.45     0.081 A 
HETATM   12  C10   D T 502      36.179  28.284-224.179  0.75 14.07     0.025 A 
HETATM   13 CL16   D T 502      33.470  28.410-223.984  0.75  3.69    -0.080 Cl
HETATM   14  C11   D T 502      37.433  28.596-224.785  0.75 16.23     0.059 A 
HETATM   15  C12   D T 502      37.513  29.419-225.942  0.75 16.59     0.013 A 
HETATM   16 CL15   D T 502      38.880  27.964-224.106  0.75  7.17    -0.082 Cl
HETATM   17  C13   D T 502      36.315  29.938-226.498  0.75 15.83     0.026 A 
ENDBRANCH   1  10
TORSDOF 2
ENDMDL
MODEL 4
REMARK VINA RESULT:      -7.8      1.169      6.113
REMARK  2 active torsions:
REMARK  status: ('A' for Active; 'I' for Inactive)
REMARK    1  A    between atoms: C5_4  and  O7_13 
REMARK    2  A    between atoms: C8_10  and  O7_13 
ROOT
HETATM    1  O7    D T 502      33.634  29.725-225.953  0.75 16.91    -0.304 OA
ENDROOT
BRANCH   1   2
HETATM    2  C5    D T 502      34.960  29.326-225.534  0.75 15.30     0.125 A 
HETATM    3  C6    D T 502      35.066  28.586-224.306  0.75 14.99     0.154 A 
HETATM    4  C1    D T 502      36.336  28.162-223.859  0.75 14.19     0.041 A 
HETATM    5  O17   D T 502      33.959  28.303-223.599  0.75 14.56    -0.188 OA
HETATM    6  C2    D T 502      37.454  28.476-224.624  0.75 11.95     0.060 A 
HETATM    7  C3    D T 502      37.391  29.202-225.826  0.75 13.64     0.014 A 
HETATM    8 CL14   D T 502      38.990  27.946-224.099  0.75  1.02    -0.082 Cl
HETATM    9  C4    D T 502      36.055  29.630-226.270  0.75 15.27     0.028 A 
ENDBRANCH   1   2
BRANCH   1  10
HETATM   10  C8    D T 502      33.155  31.047-225.888  0.75 15.53     0.111 A 
HETATM   11  C9    D T 502      32.744  31.634-227.103  0.75 16.45     0.081 A 
HETATM   12  C10   D T 502      32.244  32.953-227.140  0.75 14.07     0.025 A 
HETATM   13 CL16   D T 502      32.842  30.743-228.606  0.75  3.69    -0.080 Cl
HETATM   14  C11   D T 502      32.155  33.696-225.924  0.75 16.23     0.059 A 
HETATM   15  C12   D T 502      32.560  33.135-224.682  0.75 16.59     0.013 A 
HETATM   16 CL15   D T 502      31.548  35.304-225.958  0.75  7.17    -0.082 Cl
HETATM   17  C13   D T 502      33.061  31.807-224.661  0.75 15.83     0.026 A 
ENDBRANCH   1  10
TORSDOF 2
ENDMDL
MODEL 5
REMARK VINA RESULT:      -7.6      9.229     12.202
REMARK  2 active torsions:
REMARK  status: ('A' for Active; 'I' for Inactive)
REMARK    1  A    between atoms: C5_4  and  O7_13 
REMARK    2  A    between atoms: C8_10  and  O7_13 
ROOT
HETATM    1  O7    D T 502      24.613  35.623-223.282  0.75 16.91    -0.304 OA
ENDROOT
BRANCH   1   2
HETATM    2  C5    D T 502      25.991  35.755-222.857  0.75 15.30     0.125 A 
HETATM    3  C6    D T 502      26.245  36.565-221.697  0.75 14.99     0.154 A 
HETATM    4  C1    D T 502      27.570  36.717-221.233  0.75 14.19     0.041 A 
HETATM    5  O17   D T 502      25.223  37.164-221.063  0.75 14.56    -0.188 OA
HETATM    6  C2    D T 502      28.596  36.076-221.919  0.75 11.95     0.060 A 
HETATM    7  C3    D T 502      28.387  35.282-223.061  0.75 13.64     0.014 A 
HETATM    8 CL14   D T 502      30.197  36.238-221.351  0.75  1.02    -0.082 Cl
HETATM    9  C4    D T 502      26.997  35.139-223.521  0.75 15.27     0.028 A 
ENDBRANCH   1   2
BRANCH   1  10
HETATM   10  C8    D T 502      23.795  34.525-222.958  0.75 15.53     0.111 A 
HETATM   11  C9    D T 502      22.609  34.373-223.707  0.75 16.45     0.081 A 
HETATM   12  C10   D T 502      21.726  33.301-223.461  0.75 14.07     0.025 A 
HETATM   13 CL16   D T 502      22.197  35.514-224.969  0.75  3.69    -0.080 Cl
HETATM   14  C11   D T 502      22.046  32.360-222.437  0.75 16.23     0.059 A 
HETATM   15  C12   D T 502      23.232  32.482-221.663  0.75 16.59     0.013 A 
HETATM   16 CL15   D T 502      20.977  31.049-222.128  0.75  7.17    -0.082 Cl
HETATM   17  C13   D T 502      24.111  33.566-221.922  0.75 15.83     0.026 A 
ENDBRANCH   1  10
TORSDOF 2
ENDMDL
MODEL 6
REMARK VINA RESULT:      -7.5      2.501      3.046
REMARK  2 active torsions:
REMARK  status: ('A' for Active; 'I' for Inactive)
REMARK    1  A    between atoms: C5_4  and  O7_13 
REMARK    2  A    between atoms: C8_10  and  O7_13 
ROOT
HETATM    1  O7    D T 502      34.144  32.009-224.739  0.75 16.91    -0.304 OA
ENDROOT
BRANCH   1   2
HETATM    2  C5    D T 502      33.067  31.939-225.704  0.75 15.30     0.125 A 
HETATM    3  C6    D T 502      31.853  32.639-225.384  0.75 14.99     0.154 A 
HETATM    4  C1    D T 502      30.776  32.613-226.297  0.75 14.19     0.041 A 
HETATM    5  O17   D T 502      31.756  33.313-224.226  0.75 14.56    -0.188 OA
HETATM    6  C2    D T 502      30.923  31.905-227.484  0.75 11.95     0.060 A 
HETATM    7  C3    D T 502      32.091  31.203-227.829  0.75 13.64     0.014 A 
HETATM    8 CL14   D T 502      29.632  31.889-228.601  0.75  1.02    -0.082 Cl
HETATM    9  C4    D T 502      33.198  31.248-226.861  0.75 15.27     0.028 A 
ENDBRANCH   1   2
BRANCH   1  10
HETATM   10  C8    D T 502      35.176  31.057-224.646  0.75 15.53     0.111 A 
HETATM   11  C9    D T 502      34.899  29.888-223.908  0.75 16.45     0.081 A 
HETATM   12  C10   D T 502      35.868  28.873-223.761  0.75 14.07     0.025 A 
HETATM   13 CL16   D T 502      33.338  29.659-223.149  0.75  3.69    -0.080 Cl
HETATM   14  C11   D T 502      37.146  29.041-224.374  0.75 16.23     0.059 A 
HETATM   15  C12   D T 502      37.460  30.206-225.126  0.75 16.59     0.013 A 
HETATM   16 CL15   D T 502      38.335  27.811-224.202  0.75  7.17    -0.082 Cl
HETATM   17  C13   D T 502      36.475  31.218-225.264  0.75 15.83     0.026 A 
ENDBRANCH   1  10
TORSDOF 2
ENDMDL
MODEL 7
REMARK VINA RESULT:      -7.4      2.134      6.277
REMARK  2 active torsions:
REMARK  status: ('A' for Active; 'I' for Inactive)
REMARK    1  A    between atoms: C5_4  and  O7_13 
REMARK    2  A    between atoms: C8_10  and  O7_13 
ROOT
HETATM    1  O7    D T 502      33.697  31.584-224.124  0.75 16.91    -0.304 OA
ENDROOT
BRANCH   1   2
HETATM    2  C5    D T 502      34.877  30.747-224.168  0.75 15.30     0.125 A 
HETATM    3  C6    D T 502      34.777  29.440-223.578  0.75 14.99     0.154 A 
HETATM    4  C1    D T 502      35.895  28.579-223.605  0.75 14.19     0.041 A 
HETATM    5  O17   D T 502      33.622  29.049-223.013  0.75 14.56    -0.188 OA
HETATM    6  C2    D T 502      37.068  29.025-224.203  0.75 11.95     0.060 A 
HETATM    7  C3    D T 502      37.207  30.298-224.783  0.75 13.64     0.014 A 
HETATM    8 CL14   D T 502      38.417  27.980-224.257  0.75  1.02    -0.082 Cl
HETATM    9  C4    D T 502      36.026  31.174-224.743  0.75 15.27     0.028 A 
ENDBRANCH   1   2
BRANCH   1  10
HETATM   10  C8    D T 502      32.769  31.687-225.176  0.75 15.53     0.111 A 
HETATM   11  C9    D T 502      32.378  32.987-225.555  0.75 16.45     0.081 A 
HETATM   12  C10   D T 502      31.456  33.194-226.604  0.75 14.07     0.025 A 
HETATM   13 CL16   D T 502      33.029  34.391-224.736  0.75  3.69    -0.080 Cl
HETATM   14  C11   D T 502      30.916  32.062-227.285  0.75 16.23     0.059 A 
HETATM   15  C12   D T 502      31.288  30.736-226.929  0.75 16.59     0.013 A 
HETATM   16 CL15   D T 502      29.792  32.301-228.563  0.75  7.17    -0.082 Cl
HETATM   17  C13   D T 502      32.216  30.545-225.873  0.75 15.83     0.026 A 
ENDBRANCH   1  10
TORSDOF 2
ENDMDL
MODEL 8
REMARK VINA RESULT:      -7.2      2.022      2.456
REMARK  2 active torsions:
REMARK  status: ('A' for Active; 'I' for Inactive)
REMARK    1  A    between atoms: C5_4  and  O7_13 
REMARK    2  A    between atoms: C8_10  and  O7_13 
ROOT
HETATM    1  O7    D T 502      33.449  32.051-226.555  0.75 16.91    -0.304 OA
ENDROOT
BRANCH   1   2
HETATM    2  C5    D T 502      32.368  32.704-225.848  0.75 15.30     0.125 A 
HETATM    3  C6    D T 502      31.048  32.164-226.025  0.75 14.99     0.154 A 
HETATM    4  C1    D T 502      29.959  32.756-225.348  0.75 14.19     0.041 A 
HETATM    5  O17   D T 502      30.862  31.101-226.825  0.75 14.56    -0.188 OA
HETATM    6  C2    D T 502      30.199  33.853-224.527  0.75 11.95     0.060 A 
HETATM    7  C3    D T 502      31.474  34.413-224.335  0.75 13.64     0.014 A 
HETATM    8 CL14   D T 502      28.890  34.560-223.689  0.75  1.02    -0.082 Cl
HETATM    9  C4    D T 502      32.590  33.775-225.050  0.75 15.27     0.028 A 
ENDBRANCH   1   2
BRANCH   1  10
HETATM   10  C8    D T 502      34.265  31.053-225.991  0.75 15.53     0.111 A 
HETATM   11  C9    D T 502      34.379  29.844-226.708  0.75 16.45     0.081 A 
HETATM   12  C10   D T 502      35.178  28.785-226.228  0.75 14.07     0.025 A 
HETATM   13 CL16   D T 502      33.530  29.620-228.223  0.75  3.69    -0.080 Cl
HETATM   14  C11   D T 502      35.879  28.950-224.995  0.75 16.23     0.059 A 
HETATM   15  C12   D T 502      35.788  30.154-224.246  0.75 16.59     0.013 A 
HETATM   16 CL15   D T 502      36.856  27.666-224.400  0.75  7.17    -0.082 Cl
HETATM   17  C13   D T 502      34.980  31.210-224.742  0.75 15.83     0.026 A 
ENDBRANCH   1  10
TORSDOF 2
ENDMDL
MODEL 9
REMARK VINA RESULT:      -7.2      2.362      2.861
REMARK  2 active torsions:
REMARK  status: ('A' for Active; 'I' for Inactive)
REMARK    1  A    between atoms: C5_4  and  O7_13 
REMARK    2  A    between atoms: C8_10  and  O7_13 
ROOT
HETATM    1  O7    D T 502      33.648  32.186-226.443  0.75 16.91    -0.304 OA
ENDROOT
BRANCH   1   2
HETATM    2  C5    D T 502      32.367  32.553-225.878  0.75 15.30     0.125 A 
HETATM    3  C6    D T 502      32.336  33.702-225.014  0.75 14.99     0.154 A 
HETATM    4  C1    D T 502      31.109  34.110-224.447  0.75 14.19     0.041 A 
HETATM    5  O17   D T 502      33.469  34.377-224.759  0.75 14.56    -0.188 OA
HETATM    6  C2    D T 502      29.962  33.383-224.741  0.75 11.95     0.060 A 
HETATM    7  C3    D T 502      29.954  32.251-225.575  0.75 13.64     0.014 A 
HETATM    8 CL14   D T 502      28.472  33.885-224.075  0.75  1.02    -0.082 Cl
HETATM    9  C4    D T 502      31.245  31.849-226.154  0.75 15.27     0.028 A 
ENDBRANCH   1   2
BRANCH   1  10
HETATM   10  C8    D T 502      34.478  31.178-225.917  0.75 15.53     0.111 A 
HETATM   11  C9    D T 502      34.495  29.947-226.604  0.75 16.45     0.081 A 
HETATM   12  C10   D T 502      35.299  28.876-226.158  0.75 14.07     0.025 A 
HETATM   13 CL16   D T 502      33.516  29.707-228.035  0.75  3.69    -0.080 Cl
HETATM   14  C11   D T 502      36.105  29.053-224.993  0.75 16.23     0.059 A 
HETATM   15  C12   D T 502      36.113  30.281-224.277  0.75 16.59     0.013 A 
HETATM   16 CL15   D T 502      37.089  27.756-224.441  0.75  7.17    -0.082 Cl
HETATM   17  C13   D T 502      35.299  31.348-224.738  0.75 15.83     0.026 A 
ENDBRANCH   1  10
TORSDOF 2
ENDMDL
