MODEL 1
REMARK VINA RESULT:    -8.164      0.000      0.000
REMARK INTER + INTRA:          -9.536
REMARK INTER:                  -9.118
REMARK INTRA:                  -0.417
REMARK UNBOUND:                -0.417
REMARK  2 active torsions:
REMARK  status: ('A' for Active; 'I' for Inactive)
REMARK    1  A    between atoms: C5_4  and  O7_13 
REMARK    2  A    between atoms: C8_10  and  O7_13 
ROOT
HETATM    1  O7    D T 502      33.978  29.646-226.317  0.75 16.91    -0.304 OA
ENDROOT
BRANCH   1   2
HETATM    2  C5    D T 502      33.438  30.979-226.148  0.75 15.30     0.125 A 
HETATM    3  C6    D T 502      32.842  31.596-227.301  0.75 14.99     0.154 A 
HETATM    4  C1    D T 502      32.289  32.891-227.187  0.75 14.19     0.041 A 
HETATM    5  O17   D T 502      32.811  30.938-228.472  0.75 14.56    -0.188 OA
HETATM    6  C2    D T 502      32.341  33.534-225.955  0.75 11.95     0.060 A 
HETATM    7  C3    D T 502      32.921  32.965-224.808  0.75 13.64     0.014 A 
HETATM    8 CL14   D T 502      31.655  35.090-225.806  0.75  1.02    -0.082 Cl
HETATM    9  C4    D T 502      33.487  31.615-224.954  0.75 15.27     0.028 A 
ENDBRANCH   1   2
BRANCH   1  10
HETATM   10  C8    D T 502      35.168  29.200-225.716  0.75 15.53     0.111 A 
HETATM   11  C9    D T 502      36.376  29.587-226.331  0.75 16.45     0.081 A 
HETATM   12  C10   D T 502      37.623  29.194-225.800  0.75 14.07     0.025 A 
HETATM   13 CL16   D T 502      36.367  30.572-227.779  0.75  3.69    -0.080 Cl
HETATM   14  C11   D T 502      37.652  28.392-224.619  0.75 16.23     0.059 A 
HETATM   15  C12   D T 502      36.453  27.984-223.972  0.75 16.59     0.013 A 
HETATM   16 CL15   D T 502      39.164  27.907-223.963  0.75  7.17    -0.082 Cl
HETATM   17  C13   D T 502      35.207  28.387-224.518  0.75 15.83     0.026 A 
ENDBRANCH   1  10
TORSDOF 2
ENDMDL
MODEL 2
REMARK VINA RESULT:    -7.930      1.087      5.937
REMARK INTER + INTRA:          -9.275
REMARK INTER:                  -8.921
REMARK INTRA:                  -0.353
REMARK UNBOUND:                -0.417
REMARK  2 active torsions:
REMARK  status: ('A' for Active; 'I' for Inactive)
REMARK    1  A    between atoms: C5_4  and  O7_13 
REMARK    2  A    between atoms: C8_10  and  O7_13 
ROOT
HETATM    1  O7    D T 502      33.997  29.607-226.232  0.75 16.91    -0.304 OA
ENDROOT
BRANCH   1   2
HETATM    2  C5    D T 502      35.241  29.158-225.645  0.75 15.30     0.125 A 
HETATM    3  C6    D T 502      36.459  29.595-226.272  0.75 14.99     0.154 A 
HETATM    4  C1    D T 502      37.700  29.195-225.732  0.75 14.19     0.041 A 
HETATM    5  O17   D T 502      36.405  30.381-227.361  0.75 14.56    -0.188 OA
HETATM    6  C2    D T 502      37.708  28.384-224.603  0.75 11.95     0.060 A 
HETATM    7  C3    D T 502      36.539  27.931-223.965  0.75 13.64     0.014 A 
HETATM    8 CL14   D T 502      39.206  27.915-223.932  0.75  1.02    -0.082 Cl
HETATM    9  C4    D T 502      35.260  28.364-224.548  0.75 15.27     0.028 A 
ENDBRANCH   1   2
BRANCH   1  10
HETATM   10  C8    D T 502      33.466  30.898-226.053  0.75 15.53     0.111 A 
HETATM   11  C9    D T 502      33.009  31.563-227.209  0.75 16.45     0.081 A 
HETATM   12  C10   D T 502      32.455  32.859-227.132  0.75 14.07     0.025 A 
HETATM   13 CL16   D T 502      33.115  30.800-228.781  0.75  3.69    -0.080 Cl
HETATM   14  C11   D T 502      32.359  33.497-225.859  0.75 16.23     0.059 A 
HETATM   15  C12   D T 502      32.809  32.856-224.673  0.75 16.59     0.013 A 
HETATM   16 CL15   D T 502      31.686  35.075-225.753  0.75  7.17    -0.082 Cl
HETATM   17  C13   D T 502      33.364  31.553-224.766  0.75 15.83     0.026 A 
ENDBRANCH   1  10
TORSDOF 2
ENDMDL
MODEL 3
REMARK VINA RESULT:    -7.558      9.003     12.137
REMARK INTER + INTRA:          -8.859
REMARK INTER:                  -8.419
REMARK INTRA:                  -0.439
REMARK UNBOUND:                -0.417
REMARK  2 active torsions:
REMARK  status: ('A' for Active; 'I' for Inactive)
REMARK    1  A    between atoms: C5_4  and  O7_13 
REMARK    2  A    between atoms: C8_10  and  O7_13 
ROOT
HETATM    1  O7    D T 502      24.555  35.552-222.691  0.75 16.91    -0.304 OA
ENDROOT
BRANCH   1   2
HETATM    2  C5    D T 502      26.000  35.483-222.716  0.75 15.30     0.125 A 
HETATM    3  C6    D T 502      26.709  36.200-221.691  0.75 14.99     0.154 A 
HETATM    4  C1    D T 502      28.121  36.154-221.663  0.75 14.19     0.041 A 
HETATM    5  O17   D T 502      26.026  36.900-220.771  0.75 14.56    -0.188 OA
HETATM    6  C2    D T 502      28.785  35.414-222.634  0.75 11.95     0.060 A 
HETATM    7  C3    D T 502      28.127  34.706-223.655  0.75 13.64     0.014 A 
HETATM    8 CL14   D T 502      30.491  35.338-222.591  0.75  1.02    -0.082 Cl
HETATM    9  C4    D T 502      26.658  34.769-223.660  0.75 15.27     0.028 A 
ENDBRANCH   1   2
BRANCH   1  10
HETATM   10  C8    D T 502      23.717  34.428-222.576  0.75 15.53     0.111 A 
HETATM   11  C9    D T 502      22.671  34.315-223.516  0.75 16.45     0.081 A 
HETATM   12  C10   D T 502      21.781  33.220-223.486  0.75 14.07     0.025 A 
HETATM   13 CL16   D T 502      22.445  35.533-224.752  0.75  3.69    -0.080 Cl
HETATM   14  C11   D T 502      21.951  32.216-222.486  0.75 16.23     0.059 A 
HETATM   15  C12   D T 502      22.994  32.297-221.524  0.75 16.59     0.013 A 
HETATM   16 CL15   D T 502      20.873  30.878-222.440  0.75  7.17    -0.082 Cl
HETATM   17  C13   D T 502      23.881  33.404-221.566  0.75 15.83     0.026 A 
ENDBRANCH   1  10
TORSDOF 2
ENDMDL
MODEL 4
REMARK VINA RESULT:    -7.371      2.137      6.290
REMARK INTER + INTRA:          -8.650
REMARK INTER:                  -8.254
REMARK INTRA:                  -0.396
REMARK UNBOUND:                -0.417
REMARK  2 active torsions:
REMARK  status: ('A' for Active; 'I' for Inactive)
REMARK    1  A    between atoms: C5_4  and  O7_13 
REMARK    2  A    between atoms: C8_10  and  O7_13 
ROOT
HETATM    1  O7    D T 502      33.746  31.581-224.158  0.75 16.91    -0.304 OA
ENDROOT
BRANCH   1   2
HETATM    2  C5    D T 502      34.927  30.745-224.195  0.75 15.30     0.125 A 
HETATM    3  C6    D T 502      34.835  29.452-223.573  0.75 14.99     0.154 A 
HETATM    4  C1    D T 502      35.955  28.591-223.592  0.75 14.19     0.041 A 
HETATM    5  O17   D T 502      33.688  29.073-222.986  0.75 14.56    -0.188 OA
HETATM    6  C2    D T 502      37.120  29.025-224.213  0.75 11.95     0.060 A 
HETATM    7  C3    D T 502      37.250  30.284-224.826  0.75 13.64     0.014 A 
HETATM    8 CL14   D T 502      38.470  27.980-224.258  0.75  1.02    -0.082 Cl
HETATM    9  C4    D T 502      36.068  31.158-224.794  0.75 15.27     0.028 A 
ENDBRANCH   1   2
BRANCH   1  10
HETATM   10  C8    D T 502      32.799  31.647-225.197  0.75 15.53     0.111 A 
HETATM   11  C9    D T 502      32.378  32.933-225.593  0.75 16.45     0.081 A 
HETATM   12  C10   D T 502      31.436  33.104-226.629  0.75 14.07     0.025 A 
HETATM   13 CL16   D T 502      33.015  34.363-224.808  0.75  3.69    -0.080 Cl
HETATM   14  C11   D T 502      30.907  31.950-227.282  0.75 16.23     0.059 A 
HETATM   15  C12   D T 502      31.309  30.639-226.910  0.75 16.59     0.013 A 
HETATM   16 CL15   D T 502      29.759  32.146-228.546  0.75  7.17    -0.082 Cl
HETATM   17  C13   D T 502      32.258  30.483-225.865  0.75 15.83     0.026 A 
ENDBRANCH   1  10
TORSDOF 2
ENDMDL
MODEL 5
REMARK VINA RESULT:    -7.309      9.410     12.545
REMARK INTER + INTRA:          -8.581
REMARK INTER:                  -8.152
REMARK INTRA:                  -0.429
REMARK UNBOUND:                -0.417
REMARK  2 active torsions:
REMARK  status: ('A' for Active; 'I' for Inactive)
REMARK    1  A    between atoms: C5_4  and  O7_13 
REMARK    2  A    between atoms: C8_10  and  O7_13 
ROOT
HETATM    1  O7    D T 502      24.996  34.527-221.097  0.75 16.91    -0.304 OA
ENDROOT
BRANCH   1   2
HETATM    2  C5    D T 502      26.332  35.079-221.180  0.75 15.30     0.125 A 
HETATM    3  C6    D T 502      26.589  36.285-220.440  0.75 14.99     0.154 A 
HETATM    4  C1    D T 502      27.879  36.859-220.476  0.75 14.19     0.041 A 
HETATM    5  O17   D T 502      25.606  36.851-219.721  0.75 14.56    -0.188 OA
HETATM    6  C2    D T 502      28.866  36.237-221.232  0.75 11.95     0.060 A 
HETATM    7  C3    D T 502      28.651  35.061-221.973  0.75 13.64     0.014 A 
HETATM    8 CL14   D T 502      30.433  36.914-221.262  0.75  1.02    -0.082 Cl
HETATM    9  C4    D T 502      27.299  34.484-221.916  0.75 15.27     0.028 A 
ENDBRANCH   1   2
BRANCH   1  10
HETATM   10  C8    D T 502      24.045  34.617-222.130  0.75 15.53     0.111 A 
HETATM   11  C9    D T 502      23.155  33.532-222.271  0.75 16.45     0.081 A 
HETATM   12  C10   D T 502      22.161  33.532-223.273  0.75 14.07     0.025 A 
HETATM   13 CL16   D T 502      23.255  32.149-221.203  0.75  3.69    -0.080 Cl
HETATM   14  C11   D T 502      22.063  34.652-224.153  0.75 16.23     0.059 A 
HETATM   15  C12   D T 502      22.943  35.763-224.038  0.75 16.59     0.013 A 
HETATM   16 CL15   D T 502      20.857  34.663-225.377  0.75  7.17    -0.082 Cl
HETATM   17  C13   D T 502      23.937  35.749-223.026  0.75 15.83     0.026 A 
ENDBRANCH   1  10
TORSDOF 2
ENDMDL
MODEL 6
REMARK VINA RESULT:    -7.206      2.042      2.478
REMARK INTER + INTRA:          -8.466
REMARK INTER:                  -8.098
REMARK INTRA:                  -0.367
REMARK UNBOUND:                -0.417
REMARK  2 active torsions:
REMARK  status: ('A' for Active; 'I' for Inactive)
REMARK    1  A    between atoms: C5_4  and  O7_13 
REMARK    2  A    between atoms: C8_10  and  O7_13 
ROOT
HETATM    1  O7    D T 502      33.567  32.108-226.472  0.75 16.91    -0.304 OA
ENDROOT
BRANCH   1   2
HETATM    2  C5    D T 502      32.525  32.788-225.733  0.75 15.30     0.125 A 
HETATM    3  C6    D T 502      31.195  32.250-225.828  0.75 14.99     0.154 A 
HETATM    4  C1    D T 502      30.143  32.868-225.117  0.75 14.19     0.041 A 
HETATM    5  O17   D T 502      30.966  31.165-226.587  0.75 14.56    -0.188 OA
HETATM    6  C2    D T 502      30.427  33.988-224.343  0.75 11.95     0.060 A 
HETATM    7  C3    D T 502      31.713  34.546-224.230  0.75 13.64     0.014 A 
HETATM    8 CL14   D T 502      29.164  34.727-223.464  0.75  1.02    -0.082 Cl
HETATM    9  C4    D T 502      32.790  33.881-224.980  0.75 15.27     0.028 A 
ENDBRANCH   1   2
BRANCH   1  10
HETATM   10  C8    D T 502      34.382  31.098-225.928  0.75 15.53     0.111 A 
HETATM   11  C9    D T 502      34.460  29.888-226.648  0.75 16.45     0.081 A 
HETATM   12  C10   D T 502      35.256  28.817-226.187  0.75 14.07     0.025 A 
HETATM   13 CL16   D T 502      33.570  29.676-228.140  0.75  3.69    -0.080 Cl
HETATM   14  C11   D T 502      35.991  28.972-224.973  0.75 16.23     0.059 A 
HETATM   15  C12   D T 502      35.936  30.178-224.223  0.75 16.59     0.013 A 
HETATM   16 CL15   D T 502      36.964  27.675-224.402  0.75  7.17    -0.082 Cl
HETATM   17  C13   D T 502      35.131  31.245-224.698  0.75 15.83     0.026 A 
ENDBRANCH   1  10
TORSDOF 2
ENDMDL
MODEL 7
REMARK VINA RESULT:    -7.182      8.515     11.908
REMARK INTER + INTRA:          -8.439
REMARK INTER:                  -8.056
REMARK INTRA:                  -0.384
REMARK UNBOUND:                -0.417
REMARK  2 active torsions:
REMARK  status: ('A' for Active; 'I' for Inactive)
REMARK    1  A    between atoms: C5_4  and  O7_13 
REMARK    2  A    between atoms: C8_10  and  O7_13 
ROOT
HETATM    1  O7    D T 502      25.379  34.922-221.373  0.75 16.91    -0.304 OA
ENDROOT
BRANCH   1   2
HETATM    2  C5    D T 502      26.644  35.342-221.937  0.75 15.30     0.125 A 
HETATM    3  C6    D T 502      27.596  34.311-222.252  0.75 14.99     0.154 A 
HETATM    4  C1    D T 502      28.841  34.666-222.816  0.75 14.19     0.041 A 
HETATM    5  O17   D T 502      27.292  33.025-222.011  0.75 14.56    -0.188 OA
HETATM    6  C2    D T 502      29.110  36.010-223.050  0.75 11.95     0.060 A 
HETATM    7  C3    D T 502      28.208  37.045-222.750  0.75 13.64     0.014 A 
HETATM    8 CL14   D T 502      30.605  36.442-223.752  0.75  1.02    -0.082 Cl
HETATM    9  C4    D T 502      26.918  36.648-222.165  0.75 15.27     0.028 A 
ENDBRANCH   1   2
BRANCH   1  10
HETATM   10  C8    D T 502      24.263  34.544-222.142  0.75 15.53     0.111 A 
HETATM   11  C9    D T 502      23.636  33.329-221.798  0.75 16.45     0.081 A 
HETATM   12  C10   D T 502      22.507  32.866-222.506  0.75 14.07     0.025 A 
HETATM   13 CL16   D T 502      24.241  32.354-220.475  0.75  3.69    -0.080 Cl
HETATM   14  C11   D T 502      21.998  33.648-223.587  0.75 16.23     0.059 A 
HETATM   15  C12   D T 502      22.605  34.878-223.961  0.75 16.59     0.013 A 
HETATM   16 CL15   D T 502      20.623  33.095-224.457  0.75  7.17    -0.082 Cl
HETATM   17  C13   D T 502      23.740  35.330-223.239  0.75 15.83     0.026 A 
ENDBRANCH   1  10
TORSDOF 2
ENDMDL
MODEL 8
REMARK VINA RESULT:    -7.169      1.905      6.181
REMARK INTER + INTRA:          -8.425
REMARK INTER:                  -8.086
REMARK INTRA:                  -0.339
REMARK UNBOUND:                -0.417
REMARK  2 active torsions:
REMARK  status: ('A' for Active; 'I' for Inactive)
REMARK    1  A    between atoms: C5_4  and  O7_13 
REMARK    2  A    between atoms: C8_10  and  O7_13 
ROOT
HETATM    1  O7    D T 502      33.867  31.841-226.663  0.75 16.91    -0.304 OA
ENDROOT
BRANCH   1   2
HETATM    2  C5    D T 502      34.775  30.876-226.079  0.75 15.30     0.125 A 
HETATM    3  C6    D T 502      34.445  29.486-226.236  0.75 14.99     0.154 A 
HETATM    4  C1    D T 502      35.303  28.503-225.695  0.75 14.19     0.041 A 
HETATM    5  O17   D T 502      33.329  29.134-226.896  0.75 14.56    -0.188 OA
HETATM    6  C2    D T 502      36.448  28.914-225.022  0.75 11.95     0.060 A 
HETATM    7  C3    D T 502      36.801  30.263-224.843  0.75 13.64     0.014 A 
HETATM    8 CL14   D T 502      37.501  27.730-224.386  0.75  1.02    -0.082 Cl
HETATM    9  C4    D T 502      35.890  31.265-225.418  0.75 15.27     0.028 A 
ENDBRANCH   1   2
BRANCH   1  10
HETATM   10  C8    D T 502      32.847  32.492-225.946  0.75 15.53     0.111 A 
HETATM   11  C9    D T 502      31.536  32.369-226.451  0.75 16.45     0.081 A 
HETATM   12  C10   D T 502      30.445  32.982-225.799  0.75 14.07     0.025 A 
HETATM   13 CL16   D T 502      31.222  31.449-227.906  0.75  3.69    -0.080 Cl
HETATM   14  C11   D T 502      30.681  33.736-224.610  0.75 16.23     0.059 A 
HETATM   15  C12   D T 502      31.990  33.880-224.073  0.75 16.59     0.013 A 
HETATM   16 CL15   D T 502      29.360  34.486-223.808  0.75  7.17    -0.082 Cl
HETATM   17  C13   D T 502      33.077  33.258-224.739  0.75 15.83     0.026 A 
ENDBRANCH   1  10
TORSDOF 2
ENDMDL
MODEL 9
REMARK VINA RESULT:    -7.054      2.293      2.592
REMARK INTER + INTRA:          -8.296
REMARK INTER:                  -7.842
REMARK INTRA:                  -0.454
REMARK UNBOUND:                -0.417
REMARK  2 active torsions:
REMARK  status: ('A' for Active; 'I' for Inactive)
REMARK    1  A    between atoms: C5_4  and  O7_13 
REMARK    2  A    between atoms: C8_10  and  O7_13 
ROOT
HETATM    1  O7    D T 502      33.611  31.185-224.061  0.75 16.91    -0.304 OA
ENDROOT
BRANCH   1   2
HETATM    2  C5    D T 502      32.749  31.441-225.196  0.75 15.30     0.125 A 
HETATM    3  C6    D T 502      31.470  30.784-225.209  0.75 14.99     0.154 A 
HETATM    4  C1    D T 502      30.586  31.009-226.287  0.75 14.19     0.041 A 
HETATM    5  O17   D T 502      31.127  29.968-224.198  0.75 14.56    -0.188 OA
HETATM    6  C2    D T 502      30.982  31.863-227.309  0.75 11.95     0.060 A 
HETATM    7  C3    D T 502      32.226  32.518-227.334  0.75 13.64     0.014 A 
HETATM    8 CL14   D T 502      29.908  32.156-228.604  0.75  1.02    -0.082 Cl
HETATM    9  C4    D T 502      33.127  32.268-226.199  0.75 15.27     0.028 A 
ENDBRANCH   1   2
BRANCH   1  10
HETATM   10  C8    D T 502      34.771  30.392-224.121  0.75 15.53     0.111 A 
HETATM   11  C9    D T 502      36.001  31.071-224.248  0.75 16.45     0.081 A 
HETATM   12  C10   D T 502      37.220  30.363-224.310  0.75 14.07     0.025 A 
HETATM   13 CL16   D T 502      36.052  32.819-224.331  0.75  3.69    -0.080 Cl
HETATM   14  C11   D T 502      37.199  28.938-224.242  0.75 16.23     0.059 A 
HETATM   15  C12   D T 502      35.978  28.220-224.113  0.75 16.59     0.013 A 
HETATM   16 CL15   D T 502      38.678  28.065-224.317  0.75  7.17    -0.082 Cl
HETATM   17  C13   D T 502      34.760  28.946-224.052  0.75 15.83     0.026 A 
ENDBRANCH   1  10
TORSDOF 2
ENDMDL
