MODEL 1
REMARK VINA RESULT:    -8.949      0.000      0.000
REMARK INTER + INTRA:         -22.115
REMARK INTER:                 -18.366
REMARK INTRA:                  -3.749
REMARK UNBOUND:                -3.749
REMARK  19 active torsions:
REMARK  status: ('A' for Active; 'I' for Inactive)
REMARK    1  A    between atoms: C2_2  and  C6_6 
REMARK    2  A    between atoms: C6_6  and  O7_7 
REMARK    3  A    between atoms: O7_7  and  C10_8 
REMARK       I    between atoms: C10_8  and  N11_10 
REMARK    4  A    between atoms: N11_10  and  C12_11 
REMARK    5  A    between atoms: C12_11  and  C13_12 
REMARK    6  A    between atoms: C12_11  and  C26_15 
REMARK    7  A    between atoms: C13_12  and  C14_13 
REMARK    8  A    between atoms: C14_13  and  C15_14 
REMARK    9  A    between atoms: C15_14  and  C44_23 
REMARK   10  A    between atoms: C15_14  and  N58_30 
REMARK   11  A    between atoms: C26_15  and  C28_16 
REMARK   12  A    between atoms: C44_23  and  C45_24 
REMARK       I    between atoms: N58_30  and  C18_33 
REMARK   13  A    between atoms: N20_31  and  C19_32 
REMARK       I    between atoms: N20_31  and  C21_38 
REMARK   14  A    between atoms: C19_32  and  C18_33 
REMARK   15  A    between atoms: C19_32  and  C62_35 
REMARK       I    between atoms: C21_38  and  N74_39 
REMARK   16  A    between atoms: N74_39  and  C75_40 
REMARK   17  A    between atoms: C75_40  and  C77_42 
REMARK   18  A    between atoms: C82_45  and  C85@A_47 
REMARK   19  A    between atoms: C82_45  and  C85@B_48 
ROOT
HETATM    1  C15   D T1001      -1.137   8.055   6.482  1.00  8.25     0.113 C 
ENDROOT
BRANCH   1   2
HETATM    2  C14   D T1001      -1.166   7.167   7.746  1.00  7.75     0.060 C 
BRANCH   2   3
HETATM    3  C13   D T1001      -0.503   5.801   7.566  1.00  7.71     0.177 C 
HETATM    4  O41   D T1001      -1.433   4.840   7.056  1.00  8.53    -0.221 OA
BRANCH   3   5
HETATM    5  C12   D T1001       0.173   5.257   8.847  1.00  8.17     0.143 C 
BRANCH   5   6
HETATM    6  N11   D T1001       1.011   6.331   9.474  1.00  8.56    -0.211 NA
HETATM    7  C10   D T1001       1.942   5.951  10.402  1.00  9.54     0.384 C 
HETATM    8  O24   D T1001       2.321   4.831  10.692  1.00 10.40    -0.236 OA
BRANCH   7   9
HETATM    9  O7    D T1001       2.428   7.058  11.024  1.00 13.31    -0.278 OA
BRANCH   9  10
HETATM   10  C6    D T1001       1.555   7.496  12.097  1.00 21.32     0.188 C 
BRANCH  10  11
HETATM   11  C2    D T1001       2.298   7.857  13.315  1.00 19.63     0.058 A 
HETATM   12  C1    D T1001       2.283   9.065  14.002  1.00 18.64     0.104 A 
HETATM   13  N5    D T1001       3.092   9.124  15.133  1.00 24.03    -0.235 NA
HETATM   14  C4    D T1001       3.727   7.975  15.312  1.00 26.08     0.134 A 
HETATM   15  S3    D T1001       3.354   6.800  14.123  1.00 24.78    -0.066 SA
ENDBRANCH  10  11
ENDBRANCH   9  10
ENDBRANCH   7   9
ENDBRANCH   5   6
BRANCH   5  16
HETATM   16  C26   D T1001      -0.868   4.740   9.885  1.00  9.89     0.053 C 
BRANCH  16  17
HETATM   17  C28   D T1001      -0.839   3.242  10.065  1.00 10.53    -0.020 A 
HETATM   18  C31   D T1001       0.099   2.484   9.340  1.00 10.31    -0.004 A 
HETATM   19  C32   D T1001       0.140   1.080   9.514  1.00 11.41    -0.000 A 
HETATM   20  C33   D T1001      -0.745   0.453  10.399  1.00 13.64    -0.000 A 
HETATM   21  C34   D T1001      -1.663   1.212  11.118  1.00 13.54    -0.000 A 
HETATM   22  C35   D T1001      -1.724   2.608  10.948  1.00 13.00    -0.004 A 
ENDBRANCH  16  17
ENDBRANCH   5  16
ENDBRANCH   3   5
ENDBRANCH   2   3
ENDBRANCH   1   2
BRANCH   1  23
HETATM   23  C44   D T1001      -0.644   9.491   6.762  1.00  9.33     0.051 C 
BRANCH  23  24
HETATM   24  C45   D T1001       0.802   9.673   7.186  1.00  9.99    -0.020 A 
HETATM   25  C48   D T1001       1.242  10.782   7.898  1.00 10.42    -0.004 A 
HETATM   26  C49   D T1001       2.582  10.939   8.257  1.00 12.60    -0.000 A 
HETATM   27  C50   D T1001       3.502   9.950   7.871  1.00 12.24    -0.000 A 
HETATM   28  C51   D T1001       3.095   8.835   7.173  1.00 13.41    -0.000 A 
HETATM   29  C52   D T1001       1.749   8.700   6.834  1.00 11.46    -0.004 A 
ENDBRANCH  23  24
ENDBRANCH   1  23
BRANCH   1  30
HETATM   30  N58   D T1001      -2.501   8.019   5.927  1.00  8.28    -0.238 NA
HETATM   31  C18   D T1001      -2.646   7.822   4.577  1.00  8.88     0.274 C 
HETATM   32  O61   D T1001      -1.681   7.697   3.835  1.00 11.15    -0.268 OA
BRANCH  31  33
HETATM   33  C19   D T1001      -4.122   7.834   4.116  1.00  8.22     0.188 C 
BRANCH  33  34
HETATM   34  N20   D T1001      -4.770   6.730   4.867  1.00  9.06    -0.211 NA
HETATM   35  C21   D T1001      -4.824   5.485   4.262  1.00  7.77     0.343 C 
HETATM   36  N74   D T1001      -5.487   4.501   4.999  1.00  9.58    -0.294 N 
HETATM   37  O76   D T1001      -4.410   5.305   3.119  1.00  8.28    -0.245 OA
HETATM   38  C95   D T1001      -6.109   4.735   6.298  1.00 12.13     0.131 C 
BRANCH  36  39
HETATM   39  C75   D T1001      -5.673   3.194   4.375  1.00 11.33     0.152 C 
BRANCH  39  40
HETATM   40  C77   D T1001      -5.540   2.058   5.338  1.00 11.34     0.083 A 
HETATM   41  C80   D T1001      -6.525   1.128   5.571  1.00 12.89     0.049 A 
HETATM   42  S81   D T1001      -5.973  -0.003   6.725  1.00 18.25    -0.091 SA
HETATM   43  C82   D T1001      -4.474   0.812   6.835  1.00 17.46     0.127 A 
HETATM   44  N83   D T1001      -4.392   1.865   6.083  1.00 15.61    -0.266 NA
BRANCH  43  45
HETATM   45  C85A  D T1001      -3.433   0.246   7.775  0.65 20.47     0.030 C 
HETATM   46  C86A  D T1001      -4.057  -0.626   8.844  0.65 21.84     0.003 C 
HETATM   47  C90A  D T1001      -2.322  -0.471   6.998  0.65 25.77     0.003 C 
ENDBRANCH  43  45
BRANCH  43  48
HETATM   48  C85B  D T1001      -3.398   0.297   7.755  0.35 20.27     0.030 C 
HETATM   49  C86B  D T1001      -3.950  -0.549   8.894  0.35 19.26     0.003 C 
HETATM   50  C90B  D T1001      -2.188  -0.297   7.069  0.35 21.00     0.003 C 
ENDBRANCH  43  48
ENDBRANCH  39  40
ENDBRANCH  36  39
ENDBRANCH  33  34
BRANCH  33  51
HETATM   51  C62   D T1001      -4.715   9.216   4.491  1.00  9.40     0.032 C 
HETATM   52  C64   D T1001      -3.972  10.319   3.744  1.00 11.21     0.003 C 
HETATM   53  C68   D T1001      -6.211   9.233   4.113  1.00 11.67     0.003 C 
ENDBRANCH  33  51
ENDBRANCH  31  33
ENDBRANCH   1  30
TORSDOF 19
ENDMDL
MODEL 2
REMARK VINA RESULT:    -8.686      1.615      5.094
REMARK INTER + INTRA:         -21.575
REMARK INTER:                 -17.688
REMARK INTRA:                  -3.887
REMARK UNBOUND:                -3.749
REMARK  19 active torsions:
REMARK  status: ('A' for Active; 'I' for Inactive)
REMARK    1  A    between atoms: C2_2  and  C6_6 
REMARK    2  A    between atoms: C6_6  and  O7_7 
REMARK    3  A    between atoms: O7_7  and  C10_8 
REMARK       I    between atoms: C10_8  and  N11_10 
REMARK    4  A    between atoms: N11_10  and  C12_11 
REMARK    5  A    between atoms: C12_11  and  C13_12 
REMARK    6  A    between atoms: C12_11  and  C26_15 
REMARK    7  A    between atoms: C13_12  and  C14_13 
REMARK    8  A    between atoms: C14_13  and  C15_14 
REMARK    9  A    between atoms: C15_14  and  C44_23 
REMARK   10  A    between atoms: C15_14  and  N58_30 
REMARK   11  A    between atoms: C26_15  and  C28_16 
REMARK   12  A    between atoms: C44_23  and  C45_24 
REMARK       I    between atoms: N58_30  and  C18_33 
REMARK   13  A    between atoms: N20_31  and  C19_32 
REMARK       I    between atoms: N20_31  and  C21_38 
REMARK   14  A    between atoms: C19_32  and  C18_33 
REMARK   15  A    between atoms: C19_32  and  C62_35 
REMARK       I    between atoms: C21_38  and  N74_39 
REMARK   16  A    between atoms: N74_39  and  C75_40 
REMARK   17  A    between atoms: C75_40  and  C77_42 
REMARK   18  A    between atoms: C82_45  and  C85@A_47 
REMARK   19  A    between atoms: C82_45  and  C85@B_48 
ROOT
HETATM    1  C15   D T1001      -0.209   5.338   8.199  1.00  8.25     0.113 C 
ENDROOT
BRANCH   1   2
HETATM    2  C14   D T1001       0.873   6.408   8.470  1.00  7.75     0.060 C 
BRANCH   2   3
HETATM    3  C13   D T1001       1.232   6.574   9.947  1.00  7.71     0.177 C 
HETATM    4  O41   D T1001       0.085   6.380  10.781  1.00  8.53    -0.221 OA
BRANCH   3   5
HETATM    5  C12   D T1001       1.908   7.924  10.281  1.00  8.17     0.143 C 
BRANCH   5   6
HETATM    6  N11   D T1001       3.039   7.702  11.242  1.00  8.56    -0.211 NA
HETATM    7  C10   D T1001       2.768   7.807  12.578  1.00  9.54     0.384 C 
HETATM    8  O24   D T1001       1.689   7.896  13.136  1.00 10.40    -0.236 OA
BRANCH   7   9
HETATM    9  O7    D T1001       3.937   7.812  13.271  1.00 13.31    -0.278 OA
BRANCH   9  10
HETATM   10  C6    D T1001       3.729   7.508  14.675  1.00 21.32     0.188 C 
BRANCH  10  11
HETATM   11  C2    D T1001       4.488   8.402  15.563  1.00 19.63     0.058 A 
HETATM   12  C1    D T1001       5.441   9.353  15.214  1.00 18.64     0.104 A 
HETATM   13  N5    D T1001       6.002  10.061  16.273  1.00 24.03    -0.235 NA
HETATM   14  C4    D T1001       5.489   9.657  17.426  1.00 26.08     0.134 A 
HETATM   15  S3    D T1001       4.316   8.420  17.253  1.00 24.78    -0.066 SA
ENDBRANCH  10  11
ENDBRANCH   9  10
ENDBRANCH   7   9
ENDBRANCH   5   6
BRANCH   5  16
HETATM   16  C26   D T1001       2.446   8.642   9.006  1.00  9.89     0.053 C 
BRANCH  16  17
HETATM   17  C28   D T1001       1.674   9.889   8.653  1.00 10.53    -0.020 A 
HETATM   18  C31   D T1001       0.837   9.879   7.522  1.00 10.31    -0.004 A 
HETATM   19  C32   D T1001       0.101  11.042   7.193  1.00 11.41    -0.000 A 
HETATM   20  C33   D T1001       0.205  12.190   7.986  1.00 13.64    -0.000 A 
HETATM   21  C34   D T1001       1.028  12.188   9.108  1.00 13.54    -0.000 A 
HETATM   22  C35   D T1001       1.775  11.043   9.442  1.00 13.00    -0.004 A 
ENDBRANCH  16  17
ENDBRANCH   5  16
ENDBRANCH   3   5
ENDBRANCH   2   3
ENDBRANCH   1   2
BRANCH   1  23
HETATM   23  C44   D T1001       0.338   3.896   8.257  1.00  9.33     0.051 C 
BRANCH  23  24
HETATM   24  C45   D T1001      -0.229   2.966   9.314  1.00  9.99    -0.020 A 
HETATM   25  C48   D T1001       0.332   1.729   9.604  1.00 10.42    -0.004 A 
HETATM   26  C49   D T1001      -0.221   0.879  10.564  1.00 12.60    -0.000 A 
HETATM   27  C50   D T1001      -1.382   1.292  11.238  1.00 12.24    -0.000 A 
HETATM   28  C51   D T1001      -1.957   2.516  10.978  1.00 13.41    -0.000 A 
HETATM   29  C52   D T1001      -1.379   3.347  10.020  1.00 11.46    -0.004 A 
ENDBRANCH  23  24
ENDBRANCH   1  23
BRANCH   1  30
HETATM   30  N58   D T1001      -0.794   5.673   6.890  1.00  8.28    -0.238 NA
HETATM   31  C18   D T1001      -2.056   6.213   6.863  1.00  8.88     0.274 C 
HETATM   32  O61   D T1001      -2.699   6.402   7.886  1.00 11.15    -0.268 OA
BRANCH  31  33
HETATM   33  C19   D T1001      -2.567   6.492   5.430  1.00  8.22     0.188 C 
BRANCH  33  34
HETATM   34  N20   D T1001      -3.926   5.897   5.383  1.00  9.06    -0.211 NA
HETATM   35  C21   D T1001      -4.034   4.568   5.010  1.00  7.77     0.343 C 
HETATM   36  N74   D T1001      -5.342   4.081   4.939  1.00  9.58    -0.294 N 
HETATM   37  O76   D T1001      -3.053   3.913   4.667  1.00  8.28    -0.245 OA
HETATM   38  C95   D T1001      -6.528   4.887   5.207  1.00 12.13     0.131 C 
BRANCH  36  39
HETATM   39  C75   D T1001      -5.534   2.718   4.450  1.00 11.33     0.152 C 
BRANCH  39  40
HETATM   40  C77   D T1001      -5.399   1.684   5.522  1.00 11.34     0.083 A 
HETATM   41  C80   D T1001      -6.351   0.732   5.796  1.00 12.89     0.049 A 
HETATM   42  S81   D T1001      -5.808  -0.260   7.076  1.00 18.25    -0.091 SA
HETATM   43  C82   D T1001      -4.353   0.635   7.176  1.00 17.46     0.127 A 
HETATM   44  N83   D T1001      -4.281   1.617   6.333  1.00 15.61    -0.266 NA
BRANCH  43  45
HETATM   45  C85A  D T1001      -3.336   0.211   8.211  0.65 20.47     0.030 C 
HETATM   46  C86A  D T1001      -3.965  -0.630   9.303  0.65 21.84     0.003 C 
HETATM   47  C90A  D T1001      -2.134  -0.476   7.552  0.65 25.77     0.003 C 
ENDBRANCH  43  45
BRANCH  43  48
HETATM   48  C85B  D T1001      -3.303   0.261   8.188  0.35 20.27     0.030 C 
HETATM   49  C86B  D T1001      -3.851  -0.602   9.317  0.35 19.26     0.003 C 
HETATM   50  C90B  D T1001      -1.992  -0.227   7.612  0.35 21.00     0.003 C 
ENDBRANCH  43  48
ENDBRANCH  39  40
ENDBRANCH  36  39
ENDBRANCH  33  34
BRANCH  33  51
HETATM   51  C62   D T1001      -2.601   8.030   5.239  1.00  9.40     0.032 C 
HETATM   52  C64   D T1001      -1.277   8.508   4.653  1.00 11.21     0.003 C 
HETATM   53  C68   D T1001      -3.764   8.387   4.289  1.00 11.67     0.003 C 
ENDBRANCH  33  51
ENDBRANCH  31  33
ENDBRANCH   1  30
TORSDOF 19
ENDMDL
MODEL 3
REMARK VINA RESULT:    -8.630      4.145     11.044
REMARK INTER + INTRA:         -21.461
REMARK INTER:                 -15.301
REMARK INTRA:                  -6.160
REMARK UNBOUND:                -3.749
REMARK  19 active torsions:
REMARK  status: ('A' for Active; 'I' for Inactive)
REMARK    1  A    between atoms: C2_2  and  C6_6 
REMARK    2  A    between atoms: C6_6  and  O7_7 
REMARK    3  A    between atoms: O7_7  and  C10_8 
REMARK       I    between atoms: C10_8  and  N11_10 
REMARK    4  A    between atoms: N11_10  and  C12_11 
REMARK    5  A    between atoms: C12_11  and  C13_12 
REMARK    6  A    between atoms: C12_11  and  C26_15 
REMARK    7  A    between atoms: C13_12  and  C14_13 
REMARK    8  A    between atoms: C14_13  and  C15_14 
REMARK    9  A    between atoms: C15_14  and  C44_23 
REMARK   10  A    between atoms: C15_14  and  N58_30 
REMARK   11  A    between atoms: C26_15  and  C28_16 
REMARK   12  A    between atoms: C44_23  and  C45_24 
REMARK       I    between atoms: N58_30  and  C18_33 
REMARK   13  A    between atoms: N20_31  and  C19_32 
REMARK       I    between atoms: N20_31  and  C21_38 
REMARK   14  A    between atoms: C19_32  and  C18_33 
REMARK   15  A    between atoms: C19_32  and  C62_35 
REMARK       I    between atoms: C21_38  and  N74_39 
REMARK   16  A    between atoms: N74_39  and  C75_40 
REMARK   17  A    between atoms: C75_40  and  C77_42 
REMARK   18  A    between atoms: C82_45  and  C85@A_47 
REMARK   19  A    between atoms: C82_45  and  C85@B_48 
ROOT
HETATM    1  C15   D T1001      -4.949   3.904   4.089  1.00  8.25     0.113 C 
ENDROOT
BRANCH   1   2
HETATM    2  C14   D T1001      -6.492   3.823   4.058  1.00  7.75     0.060 C 
BRANCH   2   3
HETATM    3  C13   D T1001      -7.086   3.740   2.651  1.00  7.71     0.177 C 
HETATM    4  O41   D T1001      -7.277   5.045   2.096  1.00  8.53    -0.221 OA
BRANCH   3   5
HETATM    5  C12   D T1001      -8.402   2.932   2.572  1.00  8.17     0.143 C 
BRANCH   5   6
HETATM    6  N11   D T1001      -9.032   3.117   1.224  1.00  8.56    -0.211 NA
HETATM    7  C10   D T1001     -10.265   3.706   1.173  1.00  9.54     0.384 C 
HETATM    8  O24   D T1001     -10.884   4.266   2.060  1.00 10.40    -0.236 OA
BRANCH   7   9
HETATM    9  O7    D T1001     -10.771   3.574  -0.083  1.00 13.31    -0.278 OA
BRANCH   9  10
HETATM   10  C6    D T1001      -9.764   3.109  -1.019  1.00 21.32     0.188 C 
BRANCH  10  11
HETATM   11  C2    D T1001     -10.310   2.170  -2.011  1.00 19.63     0.058 A 
HETATM   12  C1    D T1001      -9.613   1.324  -2.867  1.00 18.64     0.104 A 
HETATM   13  N5    D T1001     -10.396   0.538  -3.707  1.00 24.03    -0.235 NA
HETATM   14  C4    D T1001     -11.683   0.779  -3.504  1.00 26.08     0.134 A 
HETATM   15  S3    D T1001     -11.972   1.954  -2.290  1.00 24.78    -0.066 SA
ENDBRANCH  10  11
ENDBRANCH   9  10
ENDBRANCH   7   9
ENDBRANCH   5   6
BRANCH   5  16
HETATM   16  C26   D T1001      -8.174   1.413   2.833  1.00  9.89     0.053 C 
BRANCH  16  17
HETATM   17  C28   D T1001      -8.859   0.911   4.080  1.00 10.53    -0.020 A 
HETATM   18  C31   D T1001      -9.226  -0.444   4.162  1.00 10.31    -0.004 A 
HETATM   19  C32   D T1001      -9.858  -0.923   5.335  1.00 11.41    -0.000 A 
HETATM   20  C33   D T1001     -10.114  -0.054   6.402  1.00 13.64    -0.000 A 
HETATM   21  C34   D T1001      -9.741   1.283   6.316  1.00 13.54    -0.000 A 
HETATM   22  C35   D T1001      -9.122   1.777   5.151  1.00 13.00    -0.004 A 
ENDBRANCH  16  17
ENDBRANCH   5  16
ENDBRANCH   3   5
ENDBRANCH   2   3
ENDBRANCH   1   2
BRANCH   1  23
HETATM   23  C44   D T1001      -4.281   2.569   4.482  1.00  9.33     0.051 C 
BRANCH  23  24
HETATM   24  C45   D T1001      -5.049   1.636   5.400  1.00  9.99    -0.020 A 
HETATM   25  C48   D T1001      -5.481   2.016   6.665  1.00 10.42    -0.004 A 
HETATM   26  C49   D T1001      -6.166   1.133   7.502  1.00 12.60    -0.000 A 
HETATM   27  C50   D T1001      -6.407  -0.174   7.048  1.00 12.24    -0.000 A 
HETATM   28  C51   D T1001      -5.998  -0.577   5.797  1.00 13.41    -0.000 A 
HETATM   29  C52   D T1001      -5.324   0.328   4.978  1.00 11.46    -0.004 A 
ENDBRANCH  23  24
ENDBRANCH   1  23
BRANCH   1  30
HETATM   30  N58   D T1001      -4.617   5.001   5.014  1.00  8.28    -0.238 NA
HETATM   31  C18   D T1001      -3.556   5.813   4.701  1.00  8.88     0.274 C 
HETATM   32  O61   D T1001      -2.881   5.636   3.696  1.00 11.15    -0.268 OA
BRANCH  31  33
HETATM   33  C19   D T1001      -3.292   6.906   5.764  1.00  8.22     0.188 C 
BRANCH  33  34
HETATM   34  N20   D T1001      -2.135   6.409   6.549  1.00  9.06    -0.211 NA
HETATM   35  C21   D T1001      -2.399   5.763   7.746  1.00  7.77     0.343 C 
HETATM   36  N74   D T1001      -1.268   5.363   8.460  1.00  9.58    -0.294 N 
HETATM   37  O76   D T1001      -3.543   5.657   8.182  1.00  8.28    -0.245 OA
HETATM   38  C95   D T1001       0.102   5.607   8.023  1.00 12.13     0.131 C 
BRANCH  36  39
HETATM   39  C75   D T1001      -1.471   4.771   9.780  1.00 11.33     0.152 C 
BRANCH  39  40
HETATM   40  C77   D T1001      -1.193   3.302   9.816  1.00 11.34     0.083 A 
HETATM   41  C80   D T1001      -0.074   2.745  10.386  1.00 12.89     0.049 A 
HETATM   42  S81   D T1001      -0.144   1.046  10.228  1.00 18.25    -0.091 SA
HETATM   43  C82   D T1001      -1.647   1.165   9.420  1.00 17.46     0.127 A 
HETATM   44  N83   D T1001      -2.062   2.382   9.259  1.00 15.61    -0.266 NA
BRANCH  43  45
HETATM   45  C85A  D T1001      -2.314  -0.119   8.982  0.65 20.47     0.030 C 
HETATM   46  C86A  D T1001      -3.605  -0.366   9.734  0.65 21.84     0.003 C 
HETATM   47  C90A  D T1001      -2.498  -0.152   7.461  0.65 25.77     0.003 C 
ENDBRANCH  43  45
BRANCH  43  48
HETATM   48  C85B  D T1001      -2.359  -0.079   8.959  0.35 20.27     0.030 C 
HETATM   49  C86B  D T1001      -3.616  -0.374   9.765  0.35 19.26     0.003 C 
HETATM   50  C90B  D T1001      -2.536  -0.207   7.462  0.35 21.00     0.003 C 
ENDBRANCH  43  48
ENDBRANCH  39  40
ENDBRANCH  36  39
ENDBRANCH  33  34
BRANCH  33  51
HETATM   51  C62   D T1001      -2.959   8.218   5.009  1.00  9.40     0.032 C 
HETATM   52  C64   D T1001      -4.242   8.845   4.471  1.00 11.21     0.003 C 
HETATM   53  C68   D T1001      -2.262   9.188   5.985  1.00 11.67     0.003 C 
ENDBRANCH  33  51
ENDBRANCH  31  33
ENDBRANCH   1  30
TORSDOF 19
ENDMDL
MODEL 4
REMARK VINA RESULT:    -8.421      4.355      8.629
REMARK INTER + INTRA:         -21.031
REMARK INTER:                 -17.255
REMARK INTRA:                  -3.776
REMARK UNBOUND:                -3.749
REMARK  19 active torsions:
REMARK  status: ('A' for Active; 'I' for Inactive)
REMARK    1  A    between atoms: C2_2  and  C6_6 
REMARK    2  A    between atoms: C6_6  and  O7_7 
REMARK    3  A    between atoms: O7_7  and  C10_8 
REMARK       I    between atoms: C10_8  and  N11_10 
REMARK    4  A    between atoms: N11_10  and  C12_11 
REMARK    5  A    between atoms: C12_11  and  C13_12 
REMARK    6  A    between atoms: C12_11  and  C26_15 
REMARK    7  A    between atoms: C13_12  and  C14_13 
REMARK    8  A    between atoms: C14_13  and  C15_14 
REMARK    9  A    between atoms: C15_14  and  C44_23 
REMARK   10  A    between atoms: C15_14  and  N58_30 
REMARK   11  A    between atoms: C26_15  and  C28_16 
REMARK   12  A    between atoms: C44_23  and  C45_24 
REMARK       I    between atoms: N58_30  and  C18_33 
REMARK   13  A    between atoms: N20_31  and  C19_32 
REMARK       I    between atoms: N20_31  and  C21_38 
REMARK   14  A    between atoms: C19_32  and  C18_33 
REMARK   15  A    between atoms: C19_32  and  C62_35 
REMARK       I    between atoms: C21_38  and  N74_39 
REMARK   16  A    between atoms: N74_39  and  C75_40 
REMARK   17  A    between atoms: C75_40  and  C77_42 
REMARK   18  A    between atoms: C82_45  and  C85@A_47 
REMARK   19  A    between atoms: C82_45  and  C85@B_48 
ROOT
HETATM    1  C15   D T1001      -3.113   4.613   7.355  1.00  8.25     0.113 C 
ENDROOT
BRANCH   1   2
HETATM    2  C14   D T1001      -4.162   3.512   7.630  1.00  7.75     0.060 C 
BRANCH   2   3
HETATM    3  C13   D T1001      -3.717   2.108   7.220  1.00  7.71     0.177 C 
HETATM    4  O41   D T1001      -3.859   1.915   5.809  1.00  8.53    -0.221 OA
BRANCH   3   5
HETATM    5  C12   D T1001      -4.436   0.972   7.985  1.00  8.17     0.143 C 
BRANCH   5   6
HETATM    6  N11   D T1001      -5.439   0.311   7.088  1.00  8.56    -0.211 NA
HETATM    7  C10   D T1001      -6.729   0.766   7.129  1.00  9.54     0.384 C 
HETATM    8  O24   D T1001      -7.173   1.758   7.678  1.00 10.40    -0.236 OA
BRANCH   7   9
HETATM    9  O7    D T1001      -7.527  -0.093   6.441  1.00 13.31    -0.278 OA
BRANCH   9  10
HETATM   10  C6    D T1001      -6.888  -0.562   5.226  1.00 21.32     0.188 C 
BRANCH  10  11
HETATM   11  C2    D T1001      -7.515  -0.015   4.013  1.00 19.63     0.058 A 
HETATM   12  C1    D T1001      -6.899   0.607   2.933  1.00 18.64     0.104 A 
HETATM   13  N5    D T1001      -7.749   1.028   1.916  1.00 24.03    -0.235 NA
HETATM   14  C4    D T1001      -9.008   0.738   2.210  1.00 26.08     0.134 A 
HETATM   15  S3    D T1001      -9.188  -0.056   3.718  1.00 24.78    -0.066 SA
ENDBRANCH  10  11
ENDBRANCH   9  10
ENDBRANCH   7   9
ENDBRANCH   5   6
BRANCH   5  16
HETATM   16  C26   D T1001      -3.438  -0.097   8.522  1.00  9.89     0.053 C 
BRANCH  16  17
HETATM   17  C28   D T1001      -2.314   0.492   9.338  1.00 10.53    -0.020 A 
HETATM   18  C31   D T1001      -2.624   1.297  10.450  1.00 10.31    -0.004 A 
HETATM   19  C32   D T1001      -1.574   1.842  11.226  1.00 11.41    -0.000 A 
HETATM   20  C33   D T1001      -0.240   1.582  10.891  1.00 13.64    -0.000 A 
HETATM   21  C34   D T1001       0.057   0.778   9.795  1.00 13.54    -0.000 A 
HETATM   22  C35   D T1001      -0.976   0.237   9.006  1.00 13.00    -0.004 A 
ENDBRANCH  16  17
ENDBRANCH   5  16
ENDBRANCH   3   5
ENDBRANCH   2   3
ENDBRANCH   1   2
BRANCH   1  23
HETATM   23  C44   D T1001      -2.609   5.303   8.641  1.00  9.33     0.051 C 
BRANCH  23  24
HETATM   24  C45   D T1001      -1.156   5.099   9.031  1.00  9.99    -0.020 A 
HETATM   25  C48   D T1001      -0.293   4.282   8.312  1.00 10.42    -0.004 A 
HETATM   26  C49   D T1001       1.033   4.091   8.702  1.00 12.60    -0.000 A 
HETATM   27  C50   D T1001       1.492   4.737   9.862  1.00 12.24    -0.000 A 
HETATM   28  C51   D T1001       0.663   5.559  10.592  1.00 13.41    -0.000 A 
HETATM   29  C52   D T1001      -0.655   5.739  10.174  1.00 11.46    -0.004 A 
ENDBRANCH  23  24
ENDBRANCH   1  23
BRANCH   1  30
HETATM   30  N58   D T1001      -3.746   5.553   6.415  1.00  8.28    -0.238 NA
HETATM   31  C18   D T1001      -3.361   5.509   5.098  1.00  8.88     0.274 C 
HETATM   32  O61   D T1001      -2.506   4.730   4.701  1.00 11.15    -0.268 OA
BRANCH  31  33
HETATM   33  C19   D T1001      -4.076   6.563   4.220  1.00  8.22     0.188 C 
BRANCH  33  34
HETATM   34  N20   D T1001      -5.521   6.390   4.509  1.00  9.06    -0.211 NA
HETATM   35  C21   D T1001      -6.156   5.281   3.976  1.00  7.77     0.343 C 
HETATM   36  N74   D T1001      -7.525   5.201   4.243  1.00  9.58    -0.294 N 
HETATM   37  O76   D T1001      -5.568   4.496   3.235  1.00  8.28    -0.245 OA
HETATM   38  C95   D T1001      -8.267   6.200   5.003  1.00 12.13     0.131 C 
BRANCH  36  39
HETATM   39  C75   D T1001      -8.277   4.113   3.622  1.00 11.33     0.152 C 
BRANCH  39  40
HETATM   40  C77   D T1001      -8.952   4.515   2.350  1.00 11.34     0.083 A 
HETATM   41  C80   D T1001     -10.203   5.079   2.289  1.00 12.89     0.049 A 
HETATM   42  S81   D T1001     -10.600   5.399   0.659  1.00 18.25    -0.091 SA
HETATM   43  C82   D T1001      -9.093   4.772   0.149  1.00 17.46     0.127 A 
HETATM   44  N83   D T1001      -8.351   4.335   1.118  1.00 15.61    -0.266 NA
BRANCH  43  45
HETATM   45  C85A  D T1001      -8.792   4.781  -1.332  0.65 20.47     0.030 C 
HETATM   46  C86A  D T1001     -10.054   4.906  -2.160  0.65 21.84     0.003 C 
HETATM   47  C90A  D T1001      -7.750   5.852  -1.675  0.65 25.77     0.003 C 
ENDBRANCH  43  45
BRANCH  43  48
HETATM   48  C85B  D T1001      -8.736   4.753  -1.314  0.35 20.27     0.030 C 
HETATM   49  C86B  D T1001      -9.958   4.643  -2.217  0.35 19.26     0.003 C 
HETATM   50  C90B  D T1001      -7.731   5.796  -1.750  0.35 21.00     0.003 C 
ENDBRANCH  43  48
ENDBRANCH  39  40
ENDBRANCH  36  39
ENDBRANCH  33  34
BRANCH  33  51
HETATM   51  C62   D T1001      -3.561   7.958   4.657  1.00  9.40     0.032 C 
HETATM   52  C64   D T1001      -2.151   8.181   4.120  1.00 11.21     0.003 C 
HETATM   53  C68   D T1001      -4.517   9.036   4.105  1.00 11.67     0.003 C 
ENDBRANCH  33  51
ENDBRANCH  31  33
ENDBRANCH   1  30
TORSDOF 19
ENDMDL
MODEL 5
REMARK VINA RESULT:    -8.398      4.205      8.467
REMARK INTER + INTRA:         -20.985
REMARK INTER:                 -17.083
REMARK INTRA:                  -3.901
REMARK UNBOUND:                -3.749
REMARK  19 active torsions:
REMARK  status: ('A' for Active; 'I' for Inactive)
REMARK    1  A    between atoms: C2_2  and  C6_6 
REMARK    2  A    between atoms: C6_6  and  O7_7 
REMARK    3  A    between atoms: O7_7  and  C10_8 
REMARK       I    between atoms: C10_8  and  N11_10 
REMARK    4  A    between atoms: N11_10  and  C12_11 
REMARK    5  A    between atoms: C12_11  and  C13_12 
REMARK    6  A    between atoms: C12_11  and  C26_15 
REMARK    7  A    between atoms: C13_12  and  C14_13 
REMARK    8  A    between atoms: C14_13  and  C15_14 
REMARK    9  A    between atoms: C15_14  and  C44_23 
REMARK   10  A    between atoms: C15_14  and  N58_30 
REMARK   11  A    between atoms: C26_15  and  C28_16 
REMARK   12  A    between atoms: C44_23  and  C45_24 
REMARK       I    between atoms: N58_30  and  C18_33 
REMARK   13  A    between atoms: N20_31  and  C19_32 
REMARK       I    between atoms: N20_31  and  C21_38 
REMARK   14  A    between atoms: C19_32  and  C18_33 
REMARK   15  A    between atoms: C19_32  and  C62_35 
REMARK       I    between atoms: C21_38  and  N74_39 
REMARK   16  A    between atoms: N74_39  and  C75_40 
REMARK   17  A    between atoms: C75_40  and  C77_42 
REMARK   18  A    between atoms: C82_45  and  C85@A_47 
REMARK   19  A    between atoms: C82_45  and  C85@B_48 
ROOT
HETATM    1  C15   D T1001      -4.265   1.879   7.769  1.00  8.25     0.113 C 
ENDROOT
BRANCH   1   2
HETATM    2  C14   D T1001      -3.320   2.910   7.113  1.00  7.75     0.060 C 
BRANCH   2   3
HETATM    3  C13   D T1001      -3.740   4.366   7.323  1.00  7.71     0.177 C 
HETATM    4  O41   D T1001      -4.498   4.848   6.209  1.00  8.53    -0.221 OA
BRANCH   3   5
HETATM    5  C12   D T1001      -2.562   5.323   7.618  1.00  8.17     0.143 C 
BRANCH   5   6
HETATM    6  N11   D T1001      -2.890   6.700   7.122  1.00  8.56    -0.211 NA
HETATM    7  C10   D T1001      -1.871   7.447   6.599  1.00  9.54     0.384 C 
HETATM    8  O24   D T1001      -0.737   7.105   6.316  1.00 10.40    -0.236 OA
BRANCH   7   9
HETATM    9  O7    D T1001      -2.299   8.727   6.427  1.00 13.31    -0.278 OA
BRANCH   9  10
HETATM   10  C6    D T1001      -2.542   9.026   5.028  1.00 21.32     0.188 C 
BRANCH  10  11
HETATM   11  C2    D T1001      -3.969   9.232   4.737  1.00 19.63     0.058 A 
HETATM   12  C1    D T1001      -4.936   8.272   4.458  1.00 18.64     0.104 A 
HETATM   13  N5    D T1001      -6.217   8.759   4.219  1.00 24.03    -0.235 NA
HETATM   14  C4    D T1001      -6.237  10.081   4.309  1.00 26.08     0.134 A 
HETATM   15  S3    D T1001      -4.711  10.760   4.690  1.00 24.78    -0.066 SA
ENDBRANCH  10  11
ENDBRANCH   9  10
ENDBRANCH   7   9
ENDBRANCH   5   6
BRANCH   5  16
HETATM   16  C26   D T1001      -2.225   5.387   9.138  1.00  9.89     0.053 C 
BRANCH  16  17
HETATM   17  C28   D T1001      -0.751   5.244   9.428  1.00 10.53    -0.020 A 
HETATM   18  C31   D T1001      -0.193   5.954  10.507  1.00 10.31    -0.004 A 
HETATM   19  C32   D T1001       1.186   5.814  10.792  1.00 11.41    -0.000 A 
HETATM   20  C33   D T1001       1.986   4.975  10.008  1.00 13.64    -0.000 A 
HETATM   21  C34   D T1001       1.425   4.269   8.949  1.00 13.54    -0.000 A 
HETATM   22  C35   D T1001       0.056   4.407   8.645  1.00 13.00    -0.004 A 
ENDBRANCH  16  17
ENDBRANCH   5  16
ENDBRANCH   3   5
ENDBRANCH   2   3
ENDBRANCH   1   2
BRANCH   1  23
HETATM   23  C44   D T1001      -3.516   0.671   8.374  1.00  9.33     0.051 C 
BRANCH  23  24
HETATM   24  C45   D T1001      -2.271   0.950   9.195  1.00  9.99    -0.020 A 
HETATM   25  C48   D T1001      -1.009   0.510   8.818  1.00 10.42    -0.004 A 
HETATM   26  C49   D T1001       0.120   0.759   9.602  1.00 12.60    -0.000 A 
HETATM   27  C50   D T1001      -0.040   1.462  10.808  1.00 12.24    -0.000 A 
HETATM   28  C51   D T1001      -1.278   1.918  11.204  1.00 13.41    -0.000 A 
HETATM   29  C52   D T1001      -2.386   1.662  10.398  1.00 11.46    -0.004 A 
ENDBRANCH  23  24
ENDBRANCH   1  23
BRANCH   1  30
HETATM   30  N58   D T1001      -5.228   1.487   6.725  1.00  8.28    -0.238 NA
HETATM   31  C18   D T1001      -6.525   1.918   6.846  1.00  8.88     0.274 C 
HETATM   32  O61   D T1001      -6.895   2.595   7.796  1.00 11.15    -0.268 OA
BRANCH  31  33
HETATM   33  C19   D T1001      -7.442   1.416   5.706  1.00  8.22     0.188 C 
BRANCH  33  34
HETATM   34  N20   D T1001      -7.242   2.382   4.597  1.00  9.06    -0.211 NA
HETATM   35  C21   D T1001      -8.364   2.820   3.913  1.00  7.77     0.343 C 
HETATM   36  N74   D T1001      -8.105   3.689   2.851  1.00  9.58    -0.294 N 
HETATM   37  O76   D T1001      -9.484   2.381   4.166  1.00  8.28    -0.245 OA
HETATM   38  C95   D T1001      -6.767   4.109   2.449  1.00 12.13     0.131 C 
BRANCH  36  39
HETATM   39  C75   D T1001      -9.232   4.105   2.022  1.00 11.33     0.152 C 
BRANCH  39  40
HETATM   40  C77   D T1001      -8.925   4.089   0.559  1.00 11.34     0.083 A 
HETATM   41  C80   D T1001      -8.703   5.217  -0.193  1.00 12.89     0.049 A 
HETATM   42  S81   D T1001      -8.375   4.767  -1.807  1.00 18.25    -0.091 SA
HETATM   43  C82   D T1001      -8.547   3.115  -1.400  1.00 17.46     0.127 A 
HETATM   44  N83   D T1001      -8.847   2.908  -0.156  1.00 15.61    -0.266 NA
BRANCH  43  45
HETATM   45  C85A  D T1001      -8.346   2.095  -2.499  0.65 20.47     0.030 C 
HETATM   46  C86A  D T1001      -7.237   1.119  -2.163  0.65 21.84     0.003 C 
HETATM   47  C90A  D T1001      -9.665   1.396  -2.848  0.65 25.77     0.003 C 
ENDBRANCH  43  45
BRANCH  43  48
HETATM   48  C85B  D T1001      -8.360   2.053  -2.452  0.35 20.27     0.030 C 
HETATM   49  C86B  D T1001      -7.232   1.085  -2.120  0.35 19.26     0.003 C 
HETATM   50  C90B  D T1001      -9.631   1.387  -2.933  0.35 21.00     0.003 C 
ENDBRANCH  43  48
ENDBRANCH  39  40
ENDBRANCH  36  39
ENDBRANCH  33  34
BRANCH  33  51
HETATM   51  C62   D T1001      -6.971  -0.010   5.324  1.00  9.40     0.032 C 
HETATM   52  C64   D T1001      -8.172  -0.946   5.239  1.00 11.21     0.003 C 
HETATM   53  C68   D T1001      -6.248   0.055   3.962  1.00 11.67     0.003 C 
ENDBRANCH  33  51
ENDBRANCH  31  33
ENDBRANCH   1  30
TORSDOF 19
ENDMDL
MODEL 6
REMARK VINA RESULT:    -8.314      2.228      7.266
REMARK INTER + INTRA:         -20.812
REMARK INTER:                 -17.468
REMARK INTRA:                  -3.343
REMARK UNBOUND:                -3.749
REMARK  19 active torsions:
REMARK  status: ('A' for Active; 'I' for Inactive)
REMARK    1  A    between atoms: C2_2  and  C6_6 
REMARK    2  A    between atoms: C6_6  and  O7_7 
REMARK    3  A    between atoms: O7_7  and  C10_8 
REMARK       I    between atoms: C10_8  and  N11_10 
REMARK    4  A    between atoms: N11_10  and  C12_11 
REMARK    5  A    between atoms: C12_11  and  C13_12 
REMARK    6  A    between atoms: C12_11  and  C26_15 
REMARK    7  A    between atoms: C13_12  and  C14_13 
REMARK    8  A    between atoms: C14_13  and  C15_14 
REMARK    9  A    between atoms: C15_14  and  C44_23 
REMARK   10  A    between atoms: C15_14  and  N58_30 
REMARK   11  A    between atoms: C26_15  and  C28_16 
REMARK   12  A    between atoms: C44_23  and  C45_24 
REMARK       I    between atoms: N58_30  and  C18_33 
REMARK   13  A    between atoms: N20_31  and  C19_32 
REMARK       I    between atoms: N20_31  and  C21_38 
REMARK   14  A    between atoms: C19_32  and  C18_33 
REMARK   15  A    between atoms: C19_32  and  C62_35 
REMARK       I    between atoms: C21_38  and  N74_39 
REMARK   16  A    between atoms: N74_39  and  C75_40 
REMARK   17  A    between atoms: C75_40  and  C77_42 
REMARK   18  A    between atoms: C82_45  and  C85@A_47 
REMARK   19  A    between atoms: C82_45  and  C85@B_48 
ROOT
HETATM    1  C15   D T1001      -3.387   3.215   7.546  1.00  8.25     0.113 C 
ENDROOT
BRANCH   1   2
HETATM    2  C14   D T1001      -2.053   3.920   7.875  1.00  7.75     0.060 C 
BRANCH   2   3
HETATM    3  C13   D T1001      -1.763   4.043   9.372  1.00  7.71     0.177 C 
HETATM    4  O41   D T1001      -2.083   5.353   9.852  1.00  8.53    -0.221 OA
BRANCH   3   5
HETATM    5  C12   D T1001      -0.314   3.674   9.764  1.00  8.17     0.143 C 
BRANCH   5   6
HETATM    6  N11   D T1001       0.398   4.888  10.282  1.00  8.56    -0.211 NA
HETATM    7  C10   D T1001       1.653   5.143   9.801  1.00  9.54     0.384 C 
HETATM    8  O24   D T1001       2.240   4.615   8.874  1.00 10.40    -0.236 OA
BRANCH   7   9
HETATM    9  O7    D T1001       2.224   6.127  10.546  1.00 13.31    -0.278 OA
BRANCH   9  10
HETATM   10  C6    D T1001       1.362   6.542  11.637  1.00 21.32     0.188 C 
BRANCH  10  11
HETATM   11  C2    D T1001       2.115   7.114  12.764  1.00 19.63     0.058 A 
HETATM   12  C1    D T1001       2.892   6.447  13.704  1.00 18.64     0.104 A 
HETATM   13  N5    D T1001       3.495   7.251  14.666  1.00 24.03    -0.235 NA
HETATM   14  C4    D T1001       3.182   8.524  14.473  1.00 26.08     0.134 A 
HETATM   15  S3    D T1001       2.160   8.775  13.121  1.00 24.78    -0.066 SA
ENDBRANCH  10  11
ENDBRANCH   9  10
ENDBRANCH   7   9
ENDBRANCH   5   6
BRANCH   5  16
HETATM   16  C26   D T1001      -0.266   2.548  10.841  1.00  9.89     0.053 C 
BRANCH  16  17
HETATM   17  C28   D T1001      -1.254   1.436  10.586  1.00 10.53    -0.020 A 
HETATM   18  C31   D T1001      -2.496   1.460  11.245  1.00 10.31    -0.004 A 
HETATM   19  C32   D T1001      -3.432   0.426  11.001  1.00 11.41    -0.000 A 
HETATM   20  C33   D T1001      -3.122  -0.609  10.111  1.00 13.64    -0.000 A 
HETATM   21  C34   D T1001      -1.894  -0.620   9.457  1.00 13.54    -0.000 A 
HETATM   22  C35   D T1001      -0.949   0.395   9.698  1.00 13.00    -0.004 A 
ENDBRANCH  16  17
ENDBRANCH   5  16
ENDBRANCH   3   5
ENDBRANCH   2   3
ENDBRANCH   1   2
BRANCH   1  23
HETATM   23  C44   D T1001      -3.224   1.701   7.286  1.00  9.33     0.051 C 
BRANCH  23  24
HETATM   24  C45   D T1001      -4.407   0.952   6.702  1.00  9.99    -0.020 A 
HETATM   25  C48   D T1001      -4.430   0.488   5.393  1.00 10.42    -0.004 A 
HETATM   26  C49   D T1001      -5.539  -0.179   4.870  1.00 12.60    -0.000 A 
HETATM   27  C50   D T1001      -6.661  -0.369   5.695  1.00 12.24    -0.000 A 
HETATM   28  C51   D T1001      -6.665   0.072   7.000  1.00 13.41    -0.000 A 
HETATM   29  C52   D T1001      -5.540   0.728   7.498  1.00 11.46    -0.004 A 
ENDBRANCH  23  24
ENDBRANCH   1  23
BRANCH   1  30
HETATM   30  N58   D T1001      -3.953   3.933   6.391  1.00  8.28    -0.238 NA
HETATM   31  C18   D T1001      -5.237   4.407   6.489  1.00  8.88     0.274 C 
HETATM   32  O61   D T1001      -5.915   4.232   7.492  1.00 11.15    -0.268 OA
BRANCH  31  33
HETATM   33  C19   D T1001      -5.724   5.114   5.202  1.00  8.22     0.188 C 
BRANCH  33  34
HETATM   34  N20   D T1001      -4.576   5.944   4.761  1.00  9.06    -0.211 NA
HETATM   35  C21   D T1001      -4.213   7.018   5.557  1.00  7.77     0.343 C 
HETATM   36  N74   D T1001      -3.157   7.787   5.063  1.00  9.58    -0.294 N 
HETATM   37  O76   D T1001      -4.852   7.319   6.562  1.00  8.28    -0.245 OA
HETATM   38  C95   D T1001      -2.479   7.525   3.798  1.00 12.13     0.131 C 
BRANCH  36  39
HETATM   39  C75   D T1001      -2.792   8.995   5.799  1.00 11.33     0.152 C 
BRANCH  39  40
HETATM   40  C77   D T1001      -1.460   8.895   6.470  1.00 11.34     0.083 A 
HETATM   41  C80   D T1001      -0.962   7.740   7.024  1.00 12.89     0.049 A 
HETATM   42  S81   D T1001       0.586   8.047   7.675  1.00 18.25    -0.091 SA
HETATM   43  C82   D T1001       0.491   9.681   7.180  1.00 17.46     0.127 A 
HETATM   44  N83   D T1001      -0.621   9.988   6.589  1.00 15.61    -0.266 NA
BRANCH  43  45
HETATM   45  C85A  D T1001       1.672  10.577   7.481  0.65 20.47     0.030 C 
HETATM   46  C86A  D T1001       1.514  11.286   8.810  0.65 21.84     0.003 C 
HETATM   47  C90A  D T1001       2.991   9.802   7.376  0.65 25.77     0.003 C 
ENDBRANCH  43  45
BRANCH  43  48
HETATM   48  C85B  D T1001       1.635  10.622   7.453  0.35 20.27     0.030 C 
HETATM   49  C86B  D T1001       1.323  11.629   8.552  0.35 19.26     0.003 C 
HETATM   50  C90B  D T1001       2.996   9.971   7.574  0.35 21.00     0.003 C 
ENDBRANCH  43  48
ENDBRANCH  39  40
ENDBRANCH  36  39
ENDBRANCH  33  34
BRANCH  33  51
HETATM   51  C62   D T1001      -6.074   4.013   4.170  1.00  9.40     0.032 C 
HETATM   52  C64   D T1001      -7.430   3.401   4.506  1.00 11.21     0.003 C 
HETATM   53  C68   D T1001      -6.109   4.645   2.763  1.00 11.67     0.003 C 
ENDBRANCH  33  51
ENDBRANCH  31  33
ENDBRANCH   1  30
TORSDOF 19
ENDMDL
MODEL 7
REMARK VINA RESULT:    -8.263      2.184      4.438
REMARK INTER + INTRA:         -20.707
REMARK INTER:                 -15.779
REMARK INTRA:                  -4.927
REMARK UNBOUND:                -3.749
REMARK  19 active torsions:
REMARK  status: ('A' for Active; 'I' for Inactive)
REMARK    1  A    between atoms: C2_2  and  C6_6 
REMARK    2  A    between atoms: C6_6  and  O7_7 
REMARK    3  A    between atoms: O7_7  and  C10_8 
REMARK       I    between atoms: C10_8  and  N11_10 
REMARK    4  A    between atoms: N11_10  and  C12_11 
REMARK    5  A    between atoms: C12_11  and  C13_12 
REMARK    6  A    between atoms: C12_11  and  C26_15 
REMARK    7  A    between atoms: C13_12  and  C14_13 
REMARK    8  A    between atoms: C14_13  and  C15_14 
REMARK    9  A    between atoms: C15_14  and  C44_23 
REMARK   10  A    between atoms: C15_14  and  N58_30 
REMARK   11  A    between atoms: C26_15  and  C28_16 
REMARK   12  A    between atoms: C44_23  and  C45_24 
REMARK       I    between atoms: N58_30  and  C18_33 
REMARK   13  A    between atoms: N20_31  and  C19_32 
REMARK       I    between atoms: N20_31  and  C21_38 
REMARK   14  A    between atoms: C19_32  and  C18_33 
REMARK   15  A    between atoms: C19_32  and  C62_35 
REMARK       I    between atoms: C21_38  and  N74_39 
REMARK   16  A    between atoms: N74_39  and  C75_40 
REMARK   17  A    between atoms: C75_40  and  C77_42 
REMARK   18  A    between atoms: C82_45  and  C85@A_47 
REMARK   19  A    between atoms: C82_45  and  C85@B_48 
ROOT
HETATM    1  C15   D T1001      -3.650   5.075   7.202  1.00  8.25     0.113 C 
ENDROOT
BRANCH   1   2
HETATM    2  C14   D T1001      -2.119   4.879   7.138  1.00  7.75     0.060 C 
BRANCH   2   3
HETATM    3  C13   D T1001      -1.317   6.000   7.802  1.00  7.71     0.177 C 
HETATM    4  O41   D T1001      -0.574   6.744   6.832  1.00  8.53    -0.221 OA
BRANCH   3   5
HETATM    5  C12   D T1001      -0.378   5.516   8.932  1.00  8.17     0.143 C 
BRANCH   5   6
HETATM    6  N11   D T1001       0.389   6.679   9.488  1.00  8.56    -0.211 NA
HETATM    7  C10   D T1001       1.615   6.426  10.041  1.00  9.54     0.384 C 
HETATM    8  O24   D T1001       2.272   5.402  10.010  1.00 10.40    -0.236 OA
BRANCH   7   9
HETATM    9  O7    D T1001       2.047   7.538  10.693  1.00 13.31    -0.278 OA
BRANCH   9  10
HETATM   10  C6    D T1001       1.386   7.697  11.975  1.00 21.32     0.188 C 
BRANCH  10  11
HETATM   11  C2    D T1001       2.321   7.596  13.107  1.00 19.63     0.058 A 
HETATM   12  C1    D T1001       2.859   6.447  13.675  1.00 18.64     0.104 A 
HETATM   13  N5    D T1001       3.725   6.654  14.745  1.00 24.03    -0.235 NA
HETATM   14  C4    D T1001       3.849   7.948  15.001  1.00 26.08     0.134 A 
HETATM   15  S3    D T1001       2.928   8.940  13.951  1.00 24.78    -0.066 SA
ENDBRANCH  10  11
ENDBRANCH   9  10
ENDBRANCH   7   9
ENDBRANCH   5   6
BRANCH   5  16
HETATM   16  C26   D T1001      -1.160   4.815  10.084  1.00  9.89     0.053 C 
BRANCH  16  17
HETATM   17  C28   D T1001      -0.980   3.317  10.101  1.00 10.53    -0.020 A 
HETATM   18  C31   D T1001      -1.810   2.537  10.927  1.00 10.31    -0.004 A 
HETATM   19  C32   D T1001      -1.653   1.130  10.939  1.00 11.41    -0.000 A 
HETATM   20  C33   D T1001      -0.682   0.522  10.135  1.00 13.64    -0.000 A 
HETATM   21  C34   D T1001       0.129   1.300   9.314  1.00 13.54    -0.000 A 
HETATM   22  C35   D T1001      -0.007   2.702   9.300  1.00 13.00    -0.004 A 
ENDBRANCH  16  17
ENDBRANCH   5  16
ENDBRANCH   3   5
ENDBRANCH   2   3
ENDBRANCH   1   2
BRANCH   1  23
HETATM   23  C44   D T1001      -4.415   3.770   7.512  1.00  9.33     0.051 C 
BRANCH  23  24
HETATM   24  C45   D T1001      -3.922   2.490   6.863  1.00  9.99    -0.020 A 
HETATM   25  C48   D T1001      -3.989   2.269   5.493  1.00 10.42    -0.004 A 
HETATM   26  C49   D T1001      -3.551   1.074   4.919  1.00 12.60    -0.000 A 
HETATM   27  C50   D T1001      -3.044   0.070   5.762  1.00 12.24    -0.000 A 
HETATM   28  C51   D T1001      -2.958   0.262   7.122  1.00 13.41    -0.000 A 
HETATM   29  C52   D T1001      -3.395   1.469   7.667  1.00 11.46    -0.004 A 
ENDBRANCH  23  24
ENDBRANCH   1  23
BRANCH   1  30
HETATM   30  N58   D T1001      -4.039   5.670   5.912  1.00  8.28    -0.238 NA
HETATM   31  C18   D T1001      -4.961   6.686   5.919  1.00  8.88     0.274 C 
HETATM   32  O61   D T1001      -5.471   7.088   6.955  1.00 11.15    -0.268 OA
BRANCH  31  33
HETATM   33  C19   D T1001      -5.306   7.204   4.503  1.00  8.22     0.188 C 
BRANCH  33  34
HETATM   34  N20   D T1001      -6.575   6.526   4.142  1.00  9.06    -0.211 NA
HETATM   35  C21   D T1001      -6.492   5.297   3.509  1.00  7.77     0.343 C 
HETATM   36  N74   D T1001      -7.719   4.734   3.153  1.00  9.58    -0.294 N 
HETATM   37  O76   D T1001      -5.410   4.806   3.194  1.00  8.28    -0.245 OA
HETATM   38  C95   D T1001      -9.009   5.370   3.393  1.00 12.13     0.131 C 
BRANCH  36  39
HETATM   39  C75   D T1001      -7.700   3.489   2.388  1.00 11.33     0.152 C 
BRANCH  39  40
HETATM   40  C77   D T1001      -7.518   2.276   3.242  1.00 11.34     0.083 A 
HETATM   41  C80   D T1001      -7.295   1.013   2.747  1.00 12.89     0.049 A 
HETATM   42  S81   D T1001      -7.129  -0.083   4.045  1.00 18.25    -0.091 SA
HETATM   43  C82   D T1001      -7.360   1.186   5.170  1.00 17.46     0.127 A 
HETATM   44  N83   D T1001      -7.567   2.342   4.622  1.00 15.61    -0.266 NA
BRANCH  43  45
HETATM   45  C85A  D T1001      -7.310   0.839   6.641  0.65 20.47     0.030 C 
HETATM   46  C86A  D T1001      -8.692   0.827   7.261  0.65 21.84     0.003 C 
HETATM   47  C90A  D T1001      -6.545  -0.469   6.872  0.65 25.77     0.003 C 
ENDBRANCH  43  45
BRANCH  43  48
HETATM   48  C85B  D T1001      -7.322   0.902   6.649  0.35 20.27     0.030 C 
HETATM   49  C86B  D T1001      -8.577   1.374   7.372  0.35 19.26     0.003 C 
HETATM   50  C90B  D T1001      -6.869  -0.489   7.031  0.35 21.00     0.003 C 
ENDBRANCH  43  48
ENDBRANCH  39  40
ENDBRANCH  36  39
ENDBRANCH  33  34
BRANCH  33  51
HETATM   51  C62   D T1001      -5.477   8.741   4.599  1.00  9.40     0.032 C 
HETATM   52  C64   D T1001      -4.302   9.437   3.919  1.00 11.21     0.003 C 
HETATM   53  C68   D T1001      -6.800   9.137   3.911  1.00 11.67     0.003 C 
ENDBRANCH  33  51
ENDBRANCH  31  33
ENDBRANCH   1  30
TORSDOF 19
ENDMDL
MODEL 8
REMARK VINA RESULT:    -8.151      2.625      4.558
REMARK INTER + INTRA:         -20.477
REMARK INTER:                 -17.388
REMARK INTRA:                  -3.089
REMARK UNBOUND:                -3.749
REMARK  19 active torsions:
REMARK  status: ('A' for Active; 'I' for Inactive)
REMARK    1  A    between atoms: C2_2  and  C6_6 
REMARK    2  A    between atoms: C6_6  and  O7_7 
REMARK    3  A    between atoms: O7_7  and  C10_8 
REMARK       I    between atoms: C10_8  and  N11_10 
REMARK    4  A    between atoms: N11_10  and  C12_11 
REMARK    5  A    between atoms: C12_11  and  C13_12 
REMARK    6  A    between atoms: C12_11  and  C26_15 
REMARK    7  A    between atoms: C13_12  and  C14_13 
REMARK    8  A    between atoms: C14_13  and  C15_14 
REMARK    9  A    between atoms: C15_14  and  C44_23 
REMARK   10  A    between atoms: C15_14  and  N58_30 
REMARK   11  A    between atoms: C26_15  and  C28_16 
REMARK   12  A    between atoms: C44_23  and  C45_24 
REMARK       I    between atoms: N58_30  and  C18_33 
REMARK   13  A    between atoms: N20_31  and  C19_32 
REMARK       I    between atoms: N20_31  and  C21_38 
REMARK   14  A    between atoms: C19_32  and  C18_33 
REMARK   15  A    between atoms: C19_32  and  C62_35 
REMARK       I    between atoms: C21_38  and  N74_39 
REMARK   16  A    between atoms: N74_39  and  C75_40 
REMARK   17  A    between atoms: C75_40  and  C77_42 
REMARK   18  A    between atoms: C82_45  and  C85@A_47 
REMARK   19  A    between atoms: C82_45  and  C85@B_48 
ROOT
HETATM    1  C15   D T1001      -1.745   6.659   5.967  1.00  8.25     0.113 C 
ENDROOT
BRANCH   1   2
HETATM    2  C14   D T1001      -1.378   6.713   7.466  1.00  7.75     0.060 C 
BRANCH   2   3
HETATM    3  C13   D T1001      -1.643   5.410   8.222  1.00  7.71     0.177 C 
HETATM    4  O41   D T1001      -2.818   5.514   9.031  1.00  8.53    -0.221 OA
BRANCH   3   5
HETATM    5  C12   D T1001      -0.449   4.928   9.080  1.00  8.17     0.143 C 
BRANCH   5   6
HETATM    6  N11   D T1001       0.390   6.102   9.488  1.00  8.56    -0.211 NA
HETATM    7  C10   D T1001       1.737   5.906   9.621  1.00  9.54     0.384 C 
HETATM    8  O24   D T1001       2.406   4.941   9.298  1.00 10.40    -0.236 OA
BRANCH   7   9
HETATM    9  O7    D T1001       2.290   6.996  10.217  1.00 13.31    -0.278 OA
BRANCH   9  10
HETATM   10  C6    D T1001       1.735   8.231   9.695  1.00 21.32     0.188 C 
BRANCH  10  11
HETATM   11  C2    D T1001       2.550   8.800   8.611  1.00 19.63     0.058 A 
HETATM   12  C1    D T1001       3.241   8.124   7.611  1.00 18.64     0.104 A 
HETATM   13  N5    D T1001       3.935   8.928   6.711  1.00 24.03    -0.235 NA
HETATM   14  C4    D T1001       3.784  10.208   7.016  1.00 26.08     0.134 A 
HETATM   15  S3    D T1001       2.796  10.467   8.391  1.00 24.78    -0.066 SA
ENDBRANCH  10  11
ENDBRANCH   9  10
ENDBRANCH   7   9
ENDBRANCH   5   6
BRANCH   5  16
HETATM   16  C26   D T1001      -0.915   4.158  10.353  1.00  9.89     0.053 C 
BRANCH  16  17
HETATM   17  C28   D T1001      -1.063   2.673  10.131  1.00 10.53    -0.020 A 
HETATM   18  C31   D T1001      -0.120   2.003   9.331  1.00 10.31    -0.004 A 
HETATM   19  C32   D T1001      -0.248   0.608   9.129  1.00 11.41    -0.000 A 
HETATM   20  C33   D T1001      -1.301  -0.097   9.722  1.00 13.64    -0.000 A 
HETATM   21  C34   D T1001      -2.225   0.572  10.519  1.00 13.54    -0.000 A 
HETATM   22  C35   D T1001      -2.118   1.962  10.720  1.00 13.00    -0.004 A 
ENDBRANCH  16  17
ENDBRANCH   5  16
ENDBRANCH   3   5
ENDBRANCH   2   3
ENDBRANCH   1   2
BRANCH   1  23
HETATM   23  C44   D T1001      -1.427   7.972   5.218  1.00  9.33     0.051 C 
BRANCH  23  24
HETATM   24  C45   D T1001      -2.545   8.985   5.062  1.00  9.99    -0.020 A 
HETATM   25  C48   D T1001      -2.949   9.823   6.093  1.00 10.42    -0.004 A 
HETATM   26  C49   D T1001      -3.996  10.732   5.934  1.00 12.60    -0.000 A 
HETATM   27  C50   D T1001      -4.660  10.783   4.697  1.00 12.24    -0.000 A 
HETATM   28  C51   D T1001      -4.278   9.971   3.652  1.00 13.41    -0.000 A 
HETATM   29  C52   D T1001      -3.223   9.078   3.837  1.00 11.46    -0.004 A 
ENDBRANCH  23  24
ENDBRANCH   1  23
BRANCH   1  30
HETATM   30  N58   D T1001      -3.173   6.302   5.909  1.00  8.28    -0.238 NA
HETATM   31  C18   D T1001      -3.580   5.411   4.948  1.00  8.88     0.274 C 
HETATM   32  O61   D T1001      -2.797   4.930   4.141  1.00 11.15    -0.268 OA
BRANCH  31  33
HETATM   33  C19   D T1001      -5.103   5.142   4.974  1.00  8.22     0.188 C 
BRANCH  33  34
HETATM   34  N20   D T1001      -5.257   3.867   5.717  1.00  9.06    -0.211 NA
HETATM   35  C21   D T1001      -5.330   2.697   4.980  1.00  7.77     0.343 C 
HETATM   36  N74   D T1001      -5.523   1.537   5.733  1.00  9.58    -0.294 N 
HETATM   37  O76   D T1001      -5.333   2.709   3.751  1.00  8.28    -0.245 OA
HETATM   38  C95   D T1001      -5.664   1.522   7.185  1.00 12.13     0.131 C 
BRANCH  36  39
HETATM   39  C75   D T1001      -5.715   0.281   5.013  1.00 11.33     0.152 C 
BRANCH  39  40
HETATM   40  C77   D T1001      -7.155  -0.080   4.831  1.00 11.34     0.083 A 
HETATM   41  C80   D T1001      -7.908   0.286   3.742  1.00 12.89     0.049 A 
HETATM   42  S81   D T1001      -9.490  -0.333   3.914  1.00 18.25    -0.091 SA
HETATM   43  C82   D T1001      -9.069  -1.043   5.412  1.00 17.46     0.127 A 
HETATM   44  N83   D T1001      -7.844  -0.820   5.773  1.00 15.61    -0.266 NA
BRANCH  43  45
HETATM   45  C85A  D T1001     -10.136  -1.825   6.144  0.65 20.47     0.030 C 
HETATM   46  C86A  D T1001      -9.806  -3.302   6.206  0.65 21.84     0.003 C 
HETATM   47  C90A  D T1001     -10.411  -1.220   7.526  0.65 25.77     0.003 C 
ENDBRANCH  43  45
BRANCH  43  48
HETATM   48  C85B  D T1001     -10.090  -1.833   6.189  0.35 20.27     0.030 C 
HETATM   49  C86B  D T1001      -9.744  -3.313   6.283  0.35 19.26     0.003 C 
HETATM   50  C90B  D T1001     -10.532  -1.213   7.495  0.35 21.00     0.003 C 
ENDBRANCH  43  48
ENDBRANCH  39  40
ENDBRANCH  36  39
ENDBRANCH  33  34
BRANCH  33  51
HETATM   51  C62   D T1001      -5.772   6.328   5.714  1.00  9.40     0.032 C 
HETATM   52  C64   D T1001      -6.499   7.219   4.712  1.00 11.21     0.003 C 
HETATM   53  C68   D T1001      -6.769   5.768   6.750  1.00 11.67     0.003 C 
ENDBRANCH  33  51
ENDBRANCH  31  33
ENDBRANCH   1  30
TORSDOF 19
ENDMDL
MODEL 9
REMARK VINA RESULT:    -8.144      3.152      5.848
REMARK INTER + INTRA:         -20.464
REMARK INTER:                 -17.116
REMARK INTRA:                  -3.347
REMARK UNBOUND:                -3.749
REMARK  19 active torsions:
REMARK  status: ('A' for Active; 'I' for Inactive)
REMARK    1  A    between atoms: C2_2  and  C6_6 
REMARK    2  A    between atoms: C6_6  and  O7_7 
REMARK    3  A    between atoms: O7_7  and  C10_8 
REMARK       I    between atoms: C10_8  and  N11_10 
REMARK    4  A    between atoms: N11_10  and  C12_11 
REMARK    5  A    between atoms: C12_11  and  C13_12 
REMARK    6  A    between atoms: C12_11  and  C26_15 
REMARK    7  A    between atoms: C13_12  and  C14_13 
REMARK    8  A    between atoms: C14_13  and  C15_14 
REMARK    9  A    between atoms: C15_14  and  C44_23 
REMARK   10  A    between atoms: C15_14  and  N58_30 
REMARK   11  A    between atoms: C26_15  and  C28_16 
REMARK   12  A    between atoms: C44_23  and  C45_24 
REMARK       I    between atoms: N58_30  and  C18_33 
REMARK   13  A    between atoms: N20_31  and  C19_32 
REMARK       I    between atoms: N20_31  and  C21_38 
REMARK   14  A    between atoms: C19_32  and  C18_33 
REMARK   15  A    between atoms: C19_32  and  C62_35 
REMARK       I    between atoms: C21_38  and  N74_39 
REMARK   16  A    between atoms: N74_39  and  C75_40 
REMARK   17  A    between atoms: C75_40  and  C77_42 
REMARK   18  A    between atoms: C82_45  and  C85@A_47 
REMARK   19  A    between atoms: C82_45  and  C85@B_48 
ROOT
HETATM    1  C15   D T1001      -3.603   5.460   7.074  1.00  8.25     0.113 C 
ENDROOT
BRANCH   1   2
HETATM    2  C14   D T1001      -2.740   5.915   8.271  1.00  7.75     0.060 C 
BRANCH   2   3
HETATM    3  C13   D T1001      -1.247   6.033   7.958  1.00  7.71     0.177 C 
HETATM    4  O41   D T1001      -0.921   5.351   6.743  1.00  8.53    -0.221 OA
BRANCH   3   5
HETATM    5  C12   D T1001      -0.325   5.548   9.101  1.00  8.17     0.143 C 
BRANCH   5   6
HETATM    6  N11   D T1001       0.391   6.718   9.707  1.00  8.56    -0.211 NA
HETATM    7  C10   D T1001       1.759   6.703   9.695  1.00  9.54     0.384 C 
HETATM    8  O24   D T1001       2.511   5.943   9.112  1.00 10.40    -0.236 OA
BRANCH   7   9
HETATM    9  O7    D T1001       2.223   7.708  10.485  1.00 13.31    -0.278 OA
BRANCH   9  10
HETATM   10  C6    D T1001       1.404   7.879  11.671  1.00 21.32     0.188 C 
BRANCH  10  11
HETATM   11  C2    D T1001       2.203   7.921  12.905  1.00 19.63     0.058 A 
HETATM   12  C1    D T1001       2.475   9.017  13.715  1.00 18.64     0.104 A 
HETATM   13  N5    D T1001       3.267   8.760  14.831  1.00 24.03    -0.235 NA
HETATM   14  C4    D T1001       3.605   7.480  14.877  1.00 26.08     0.134 A 
HETATM   15  S3    D T1001       2.968   6.561  13.578  1.00 24.78    -0.066 SA
ENDBRANCH  10  11
ENDBRANCH   9  10
ENDBRANCH   7   9
ENDBRANCH   5   6
BRANCH   5  16
HETATM   16  C26   D T1001      -1.116   4.794  10.213  1.00  9.89     0.053 C 
BRANCH  16  17
HETATM   17  C28   D T1001      -0.949   3.296  10.152  1.00 10.53    -0.020 A 
HETATM   18  C31   D T1001      -0.006   2.748   9.263  1.00 10.31    -0.004 A 
HETATM   19  C32   D T1001       0.164   1.343   9.211  1.00 11.41    -0.000 A 
HETATM   20  C33   D T1001      -0.598   0.510  10.037  1.00 13.64    -0.000 A 
HETATM   21  C34   D T1001      -1.522   1.061  10.919  1.00 13.54    -0.000 A 
HETATM   22  C35   D T1001      -1.711   2.455  10.975  1.00 13.00    -0.004 A 
ENDBRANCH  16  17
ENDBRANCH   5  16
ENDBRANCH   3   5
ENDBRANCH   2   3
ENDBRANCH   1   2
BRANCH   1  23
HETATM   23  C44   D T1001      -4.646   6.514   6.644  1.00  9.33     0.051 C 
BRANCH  23  24
HETATM   24  C45   D T1001      -4.218   7.562   5.634  1.00  9.99    -0.020 A 
HETATM   25  C48   D T1001      -4.749   8.845   5.612  1.00 10.42    -0.004 A 
HETATM   26  C49   D T1001      -4.357   9.787   4.659  1.00 12.60    -0.000 A 
HETATM   27  C50   D T1001      -3.409   9.411   3.693  1.00 12.24    -0.000 A 
HETATM   28  C51   D T1001      -2.858   8.149   3.693  1.00 13.41    -0.000 A 
HETATM   29  C52   D T1001      -3.262   7.231   4.662  1.00 11.46    -0.004 A 
ENDBRANCH  23  24
ENDBRANCH   1  23
BRANCH   1  30
HETATM   30  N58   D T1001      -4.216   4.182   7.476  1.00  8.28    -0.238 NA
HETATM   31  C18   D T1001      -4.066   3.101   6.644  1.00  8.88     0.274 C 
HETATM   32  O61   D T1001      -3.459   3.181   5.585  1.00 11.15    -0.268 OA
BRANCH  31  33
HETATM   33  C19   D T1001      -4.779   1.831   7.164  1.00  8.22     0.188 C 
BRANCH  33  34
HETATM   34  N20   D T1001      -5.242   1.122   5.944  1.00  9.06    -0.211 NA
HETATM   35  C21   D T1001      -6.460   1.499   5.404  1.00  7.77     0.343 C 
HETATM   36  N74   D T1001      -6.861   0.763   4.287  1.00  9.58    -0.294 N 
HETATM   37  O76   D T1001      -7.171   2.343   5.944  1.00  8.28    -0.245 OA
HETATM   38  C95   D T1001      -6.094  -0.339   3.718  1.00 12.13     0.131 C 
BRANCH  36  39
HETATM   39  C75   D T1001      -8.184   1.036   3.731  1.00 11.33     0.152 C 
BRANCH  39  40
HETATM   40  C77   D T1001      -8.135   1.754   2.421  1.00 11.34     0.083 A 
HETATM   41  C80   D T1001      -7.934   3.107   2.292  1.00 12.89     0.049 A 
HETATM   42  S81   D T1001      -7.934   3.525   0.637  1.00 18.25    -0.091 SA
HETATM   43  C82   D T1001      -8.197   1.891   0.205  1.00 17.46     0.127 A 
HETATM   44  N83   D T1001      -8.299   1.090   1.219  1.00 15.61    -0.266 NA
BRANCH  43  45
HETATM   45  C85A  D T1001      -8.291   1.558  -1.267  0.65 20.47     0.030 C 
HETATM   46  C86A  D T1001      -6.977   1.034  -1.808  0.65 21.84     0.003 C 
HETATM   47  C90A  D T1001      -9.465   0.612  -1.543  0.65 25.77     0.003 C 
ENDBRANCH  43  45
BRANCH  43  48
HETATM   48  C85B  D T1001      -8.301   1.498  -1.245  0.35 20.27     0.030 C 
HETATM   49  C86B  D T1001      -6.955   1.129  -1.854  0.35 19.26     0.003 C 
HETATM   50  C90B  D T1001      -9.420   0.536  -1.578  0.35 21.00     0.003 C 
ENDBRANCH  43  48
ENDBRANCH  39  40
ENDBRANCH  36  39
ENDBRANCH  33  34
BRANCH  33  51
HETATM   51  C62   D T1001      -3.735   1.002   7.954  1.00  9.40     0.032 C 
HETATM   52  C64   D T1001      -4.442   0.130   8.987  1.00 11.21     0.003 C 
HETATM   53  C68   D T1001      -2.948   0.120   6.963  1.00 11.67     0.003 C 
ENDBRANCH  33  51
ENDBRANCH  31  33
ENDBRANCH   1  30
TORSDOF 19
ENDMDL
