MODEL 1
REMARK VINA RESULT:    -8.974      0.000      0.000
REMARK INTER + INTRA:         -22.612
REMARK INTER:                 -18.417
REMARK INTRA:                  -4.195
REMARK UNBOUND:                -4.195
REMARK  19 active torsions:
REMARK  status: ('A' for Active; 'I' for Inactive)
REMARK    1  A    between atoms: C2_2  and  C6_6 
REMARK    2  A    between atoms: C6_6  and  O7_7 
REMARK    3  A    between atoms: O7_7  and  C10_8 
REMARK       I    between atoms: C10_8  and  N11_10 
REMARK    4  A    between atoms: N11_10  and  C12_11 
REMARK    5  A    between atoms: C12_11  and  C13_12 
REMARK    6  A    between atoms: C12_11  and  C26_15 
REMARK    7  A    between atoms: C13_12  and  C14_13 
REMARK    8  A    between atoms: C14_13  and  C15_14 
REMARK    9  A    between atoms: C15_14  and  C44_23 
REMARK   10  A    between atoms: C15_14  and  N58_30 
REMARK   11  A    between atoms: C26_15  and  C28_16 
REMARK   12  A    between atoms: C44_23  and  C45_24 
REMARK       I    between atoms: N58_30  and  C18_33 
REMARK   13  A    between atoms: N20_31  and  C19_32 
REMARK       I    between atoms: N20_31  and  C21_38 
REMARK   14  A    between atoms: C19_32  and  C18_33 
REMARK   15  A    between atoms: C19_32  and  C62_35 
REMARK       I    between atoms: C21_38  and  N74_39 
REMARK   16  A    between atoms: N74_39  and  C75_40 
REMARK   17  A    between atoms: C75_40  and  C77_42 
REMARK   18  A    between atoms: C82_45  and  C85@A_47 
REMARK   19  A    between atoms: C82_45  and  C85@B_48 
ROOT
HETATM    1  C15   D T1001       5.742  -7.051   4.759  1.00  8.25     0.113 C 
ENDROOT
BRANCH   1   2
HETATM    2  C14   D T1001       6.734  -6.045   5.384  1.00  7.75     0.060 C 
BRANCH   2   3
HETATM    3  C13   D T1001       6.473  -4.588   5.001  1.00  7.71     0.177 C 
HETATM    4  O41   D T1001       7.699  -3.874   4.822  1.00  8.53    -0.221 OA
BRANCH   3   5
HETATM    5  C12   D T1001       5.559  -3.832   5.995  1.00  8.17     0.143 C 
BRANCH   5   6
HETATM    6  N11   D T1001       5.384  -4.644   7.243  1.00  8.56    -0.211 NA
HETATM    7  C10   D T1001       4.114  -4.803   7.725  1.00  9.54     0.384 C 
HETATM    8  O24   D T1001       3.053  -4.514   7.201  1.00 10.40    -0.236 OA
BRANCH   7   9
HETATM    9  O7    D T1001       4.175  -5.354   8.967  1.00 13.31    -0.278 OA
BRANCH   9  10
HETATM   10  C6    D T1001       4.262  -6.801   8.907  1.00 21.32     0.188 C 
BRANCH  10  11
HETATM   11  C2    D T1001       3.209  -7.461   9.693  1.00 19.63     0.058 A 
HETATM   12  C1    D T1001       2.592  -8.683   9.448  1.00 18.64     0.104 A 
HETATM   13  N5    D T1001       1.621  -9.063  10.369  1.00 24.03    -0.235 NA
HETATM   14  C4    D T1001       1.488  -8.142  11.312  1.00 26.08     0.134 A 
HETATM   15  S3    D T1001       2.537  -6.804  11.109  1.00 24.78    -0.066 SA
ENDBRANCH  10  11
ENDBRANCH   9  10
ENDBRANCH   7   9
ENDBRANCH   5   6
BRANCH   5  16
HETATM   16  C26   D T1001       6.131  -2.430   6.365  1.00  9.89     0.053 C 
BRANCH  16  17
HETATM   17  C28   D T1001       5.060  -1.397   6.617  1.00 10.53    -0.020 A 
HETATM   18  C31   D T1001       5.158  -0.572   7.752  1.00 10.31    -0.004 A 
HETATM   19  C32   D T1001       4.162   0.406   7.989  1.00 11.41    -0.000 A 
HETATM   20  C33   D T1001       3.092   0.551   7.099  1.00 13.64    -0.000 A 
HETATM   21  C34   D T1001       3.008  -0.263   5.974  1.00 13.54    -0.000 A 
HETATM   22  C35   D T1001       3.983  -1.248   5.732  1.00 13.00    -0.004 A 
ENDBRANCH  16  17
ENDBRANCH   5  16
ENDBRANCH   3   5
ENDBRANCH   2   3
ENDBRANCH   1   2
BRANCH   1  23
HETATM   23  C44   D T1001       6.431  -8.316   4.203  1.00  9.33     0.051 C 
BRANCH  23  24
HETATM   24  C45   D T1001       5.603  -9.252   3.342  1.00  9.99    -0.020 A 
HETATM   25  C48   D T1001       4.831 -10.275   3.875  1.00 10.42    -0.004 A 
HETATM   26  C49   D T1001       4.096 -11.140   3.061  1.00 12.60    -0.000 A 
HETATM   27  C50   D T1001       4.158 -10.969   1.668  1.00 12.24    -0.000 A 
HETATM   28  C51   D T1001       4.910  -9.959   1.111  1.00 13.41    -0.000 A 
HETATM   29  C52   D T1001       5.627  -9.104   1.948  1.00 11.46    -0.004 A 
ENDBRANCH  23  24
ENDBRANCH   1  23
BRANCH   1  30
HETATM   30  N58   D T1001       5.001  -6.305   3.727  1.00  8.28    -0.238 NA
HETATM   31  C18   D T1001       3.645  -6.164   3.877  1.00  8.88     0.274 C 
HETATM   32  O61   D T1001       3.046  -6.652   4.825  1.00 11.15    -0.268 OA
BRANCH  31  33
HETATM   33  C19   D T1001       2.982  -5.388   2.714  1.00  8.22     0.188 C 
BRANCH  33  34
HETATM   34  N20   D T1001       4.085  -4.619   2.086  1.00  9.06    -0.211 NA
HETATM   35  C21   D T1001       4.144  -3.258   2.335  1.00  7.77     0.343 C 
HETATM   36  N74   D T1001       5.175  -2.583   1.676  1.00  9.58    -0.294 N 
HETATM   37  O76   D T1001       3.282  -2.686   2.997  1.00  8.28    -0.245 OA
HETATM   38  C95   D T1001       6.123  -3.224   0.773  1.00 12.13     0.131 C 
BRANCH  36  39
HETATM   39  C75   D T1001       5.231  -1.129   1.810  1.00 11.33     0.152 C 
BRANCH  39  40
HETATM   40  C77   D T1001       6.295  -0.665   2.751  1.00 11.34     0.083 A 
HETATM   41  C80   D T1001       7.546  -1.228   2.835  1.00 12.89     0.049 A 
HETATM   42  S81   D T1001       8.460  -0.403   4.018  1.00 18.25    -0.091 SA
HETATM   43  C82   D T1001       7.141   0.640   4.335  1.00 17.46     0.127 A 
HETATM   44  N83   D T1001       6.087   0.384   3.628  1.00 15.61    -0.266 NA
BRANCH  43  45
HETATM   45  C85A  D T1001       7.330   1.714   5.382  0.65 20.47     0.030 C 
HETATM   46  C86A  D T1001       8.407   2.703   4.985  0.65 21.84     0.003 C 
HETATM   47  C90A  D T1001       5.997   2.394   5.719  0.65 25.77     0.003 C 
ENDBRANCH  43  45
BRANCH  43  48
HETATM   48  C85B  D T1001       7.269   1.729   5.369  0.35 20.27     0.030 C 
HETATM   49  C86B  D T1001       8.461   2.643   5.117  0.35 19.26     0.003 C 
HETATM   50  C90B  D T1001       5.987   2.456   5.707  0.35 21.00     0.003 C 
ENDBRANCH  43  48
ENDBRANCH  39  40
ENDBRANCH  36  39
ENDBRANCH  33  34
BRANCH  33  51
HETATM   51  C62   D T1001       2.378  -6.433   1.743  1.00  9.40     0.032 C 
HETATM   52  C64   D T1001       3.316  -6.640   0.557  1.00 11.21     0.003 C 
HETATM   53  C68   D T1001       2.181  -7.762   2.504  1.00 11.67     0.003 C 
ENDBRANCH  33  51
ENDBRANCH  31  33
ENDBRANCH   1  30
TORSDOF 19
ENDMDL
MODEL 2
REMARK VINA RESULT:    -8.665      2.427      8.452
REMARK INTER + INTRA:         -21.978
REMARK INTER:                 -18.821
REMARK INTRA:                  -3.157
REMARK UNBOUND:                -4.195
REMARK  19 active torsions:
REMARK  status: ('A' for Active; 'I' for Inactive)
REMARK    1  A    between atoms: C2_2  and  C6_6 
REMARK    2  A    between atoms: C6_6  and  O7_7 
REMARK    3  A    between atoms: O7_7  and  C10_8 
REMARK       I    between atoms: C10_8  and  N11_10 
REMARK    4  A    between atoms: N11_10  and  C12_11 
REMARK    5  A    between atoms: C12_11  and  C13_12 
REMARK    6  A    between atoms: C12_11  and  C26_15 
REMARK    7  A    between atoms: C13_12  and  C14_13 
REMARK    8  A    between atoms: C14_13  and  C15_14 
REMARK    9  A    between atoms: C15_14  and  C44_23 
REMARK   10  A    between atoms: C15_14  and  N58_30 
REMARK   11  A    between atoms: C26_15  and  C28_16 
REMARK   12  A    between atoms: C44_23  and  C45_24 
REMARK       I    between atoms: N58_30  and  C18_33 
REMARK   13  A    between atoms: N20_31  and  C19_32 
REMARK       I    between atoms: N20_31  and  C21_38 
REMARK   14  A    between atoms: C19_32  and  C18_33 
REMARK   15  A    between atoms: C19_32  and  C62_35 
REMARK       I    between atoms: C21_38  and  N74_39 
REMARK   16  A    between atoms: N74_39  and  C75_40 
REMARK   17  A    between atoms: C75_40  and  C77_42 
REMARK   18  A    between atoms: C82_45  and  C85@A_47 
REMARK   19  A    between atoms: C82_45  and  C85@B_48 
ROOT
HETATM    1  C15   D T1001       7.218  -4.957   3.760  1.00  8.25     0.113 C 
ENDROOT
BRANCH   1   2
HETATM    2  C14   D T1001       7.367  -3.797   4.769  1.00  7.75     0.060 C 
BRANCH   2   3
HETATM    3  C13   D T1001       7.465  -2.414   4.122  1.00  7.71     0.177 C 
HETATM    4  O41   D T1001       8.718  -1.794   4.421  1.00  8.53    -0.221 OA
BRANCH   3   5
HETATM    5  C12   D T1001       6.301  -1.464   4.493  1.00  8.17     0.143 C 
BRANCH   5   6
HETATM    6  N11   D T1001       5.072  -1.841   3.720  1.00  8.56    -0.211 NA
HETATM    7  C10   D T1001       4.623  -0.963   2.773  1.00  9.54     0.384 C 
HETATM    8  O24   D T1001       5.166   0.034   2.333  1.00 10.40    -0.236 OA
BRANCH   7   9
HETATM    9  O7    D T1001       3.390  -1.354   2.353  1.00 13.31    -0.278 OA
BRANCH   9  10
HETATM   10  C6    D T1001       2.430  -1.357   3.441  1.00 21.32     0.188 C 
BRANCH  10  11
HETATM   11  C2    D T1001       2.266  -0.028   4.051  1.00 19.63     0.058 A 
HETATM   12  C1    D T1001       2.411   0.327   5.387  1.00 18.64     0.104 A 
HETATM   13  N5    D T1001       2.194   1.671   5.680  1.00 24.03    -0.235 NA
HETATM   14  C4    D T1001       1.882   2.342   4.581  1.00 26.08     0.134 A 
HETATM   15  S3    D T1001       1.851   1.367   3.174  1.00 24.78    -0.066 SA
ENDBRANCH  10  11
ENDBRANCH   9  10
ENDBRANCH   7   9
ENDBRANCH   5   6
BRANCH   5  16
HETATM   16  C26   D T1001       5.983  -1.495   6.018  1.00  9.89     0.053 C 
BRANCH  16  17
HETATM   17  C28   D T1001       5.732  -0.126   6.602  1.00 10.53    -0.020 A 
HETATM   18  C31   D T1001       6.151   1.010   5.887  1.00 10.31    -0.004 A 
HETATM   19  C32   D T1001       5.910   2.298   6.424  1.00 11.41    -0.000 A 
HETATM   20  C33   D T1001       5.258   2.436   7.654  1.00 13.64    -0.000 A 
HETATM   21  C34   D T1001       4.838   1.307   8.350  1.00 13.54    -0.000 A 
HETATM   22  C35   D T1001       5.083   0.021   7.835  1.00 13.00    -0.004 A 
ENDBRANCH  16  17
ENDBRANCH   5  16
ENDBRANCH   3   5
ENDBRANCH   2   3
ENDBRANCH   1   2
BRANCH   1  23
HETATM   23  C44   D T1001       6.500  -4.540   2.458  1.00  9.33     0.051 C 
BRANCH  23  24
HETATM   24  C45   D T1001       5.406  -5.450   1.931  1.00  9.99    -0.020 A 
HETATM   25  C48   D T1001       5.674  -6.636   1.261  1.00 10.42    -0.004 A 
HETATM   26  C49   D T1001       4.651  -7.446   0.764  1.00 12.60    -0.000 A 
HETATM   27  C50   D T1001       3.320  -7.033   0.939  1.00 12.24    -0.000 A 
HETATM   28  C51   D T1001       3.023  -5.865   1.605  1.00 13.41    -0.000 A 
HETATM   29  C52   D T1001       4.064  -5.080   2.100  1.00 11.46    -0.004 A 
ENDBRANCH  23  24
ENDBRANCH   1  23
BRANCH   1  30
HETATM   30  N58   D T1001       6.515  -6.034   4.478  1.00  8.28    -0.238 NA
HETATM   31  C18   D T1001       7.107  -7.270   4.535  1.00  8.88     0.274 C 
HETATM   32  O61   D T1001       8.181  -7.497   3.995  1.00 11.15    -0.268 OA
BRANCH  31  33
HETATM   33  C19   D T1001       6.256  -8.318   5.291  1.00  8.22     0.188 C 
BRANCH  33  34
HETATM   34  N20   D T1001       5.301  -7.525   6.104  1.00  9.06    -0.211 NA
HETATM   35  C21   D T1001       5.267  -7.759   7.468  1.00  7.77     0.343 C 
HETATM   36  N74   D T1001       4.314  -7.018   8.170  1.00  9.58    -0.294 N 
HETATM   37  O76   D T1001       5.953  -8.636   7.988  1.00  8.28    -0.245 OA
HETATM   38  C95   D T1001       3.394  -6.074   7.546  1.00 12.13     0.131 C 
BRANCH  36  39
HETATM   39  C75   D T1001       4.152  -7.293   9.596  1.00 11.33     0.152 C 
BRANCH  39  40
HETATM   40  C77   D T1001       2.864  -7.979   9.920  1.00 11.34     0.083 A 
HETATM   41  C80   D T1001       1.911  -7.464  10.766  1.00 12.89     0.049 A 
HETATM   42  S81   D T1001       0.592  -8.545  10.856  1.00 18.25    -0.091 SA
HETATM   43  C82   D T1001       1.371  -9.615   9.772  1.00 17.46     0.127 A 
HETATM   44  N83   D T1001       2.539  -9.210   9.383  1.00 15.61    -0.266 NA
BRANCH  43  45
HETATM   45  C85A  D T1001       0.646 -10.888   9.397  0.65 20.47     0.030 C 
HETATM   46  C86A  D T1001       1.155 -12.077  10.185  0.65 21.84     0.003 C 
HETATM   47  C90A  D T1001      -0.873 -10.708   9.509  0.65 25.77     0.003 C 
ENDBRANCH  43  45
BRANCH  43  48
HETATM   48  C85B  D T1001       0.699 -10.899   9.362  0.35 20.27     0.030 C 
HETATM   49  C86B  D T1001       1.327 -12.126  10.010  0.35 19.26     0.003 C 
HETATM   50  C90B  D T1001      -0.813 -10.881   9.400  0.35 21.00     0.003 C 
ENDBRANCH  43  48
ENDBRANCH  39  40
ENDBRANCH  36  39
ENDBRANCH  33  34
BRANCH  33  51
HETATM   51  C62   D T1001       5.533  -9.183   4.228  1.00  9.40     0.032 C 
HETATM   52  C64   D T1001       5.587 -10.653   4.632  1.00 11.21     0.003 C 
HETATM   53  C68   D T1001       4.067  -8.714   4.121  1.00 11.67     0.003 C 
ENDBRANCH  33  51
ENDBRANCH  31  33
ENDBRANCH   1  30
TORSDOF 19
ENDMDL
MODEL 3
REMARK VINA RESULT:    -8.545      2.245      7.713
REMARK INTER + INTRA:         -21.732
REMARK INTER:                 -18.519
REMARK INTRA:                  -3.214
REMARK UNBOUND:                -4.195
REMARK  19 active torsions:
REMARK  status: ('A' for Active; 'I' for Inactive)
REMARK    1  A    between atoms: C2_2  and  C6_6 
REMARK    2  A    between atoms: C6_6  and  O7_7 
REMARK    3  A    between atoms: O7_7  and  C10_8 
REMARK       I    between atoms: C10_8  and  N11_10 
REMARK    4  A    between atoms: N11_10  and  C12_11 
REMARK    5  A    between atoms: C12_11  and  C13_12 
REMARK    6  A    between atoms: C12_11  and  C26_15 
REMARK    7  A    between atoms: C13_12  and  C14_13 
REMARK    8  A    between atoms: C14_13  and  C15_14 
REMARK    9  A    between atoms: C15_14  and  C44_23 
REMARK   10  A    between atoms: C15_14  and  N58_30 
REMARK   11  A    between atoms: C26_15  and  C28_16 
REMARK   12  A    between atoms: C44_23  and  C45_24 
REMARK       I    between atoms: N58_30  and  C18_33 
REMARK   13  A    between atoms: N20_31  and  C19_32 
REMARK       I    between atoms: N20_31  and  C21_38 
REMARK   14  A    between atoms: C19_32  and  C18_33 
REMARK   15  A    between atoms: C19_32  and  C62_35 
REMARK       I    between atoms: C21_38  and  N74_39 
REMARK   16  A    between atoms: N74_39  and  C75_40 
REMARK   17  A    between atoms: C75_40  and  C77_42 
REMARK   18  A    between atoms: C82_45  and  C85@A_47 
REMARK   19  A    between atoms: C82_45  and  C85@B_48 
ROOT
HETATM    1  C15   D T1001       3.852  -5.135   2.796  1.00  8.25     0.113 C 
ENDROOT
BRANCH   1   2
HETATM    2  C14   D T1001       2.998  -4.528   3.930  1.00  7.75     0.060 C 
BRANCH   2   3
HETATM    3  C13   D T1001       3.809  -4.030   5.127  1.00  7.71     0.177 C 
HETATM    4  O41   D T1001       3.135  -4.307   6.358  1.00  8.53    -0.221 OA
BRANCH   3   5
HETATM    5  C12   D T1001       4.181  -2.530   5.052  1.00  8.17     0.143 C 
BRANCH   5   6
HETATM    6  N11   D T1001       3.860  -1.861   6.355  1.00  8.56    -0.211 NA
HETATM    7  C10   D T1001       3.301  -0.613   6.308  1.00  9.54     0.384 C 
HETATM    8  O24   D T1001       2.864  -0.005   5.348  1.00 10.40    -0.236 OA
BRANCH   7   9
HETATM    9  O7    D T1001       3.302  -0.078   7.559  1.00 13.31    -0.278 OA
BRANCH   9  10
HETATM   10  C6    D T1001       4.651   0.119   8.055  1.00 21.32     0.188 C 
BRANCH  10  11
HETATM   11  C2    D T1001       5.220   1.411   7.640  1.00 19.63     0.058 A 
HETATM   12  C1    D T1001       5.162   2.629   8.308  1.00 18.64     0.104 A 
HETATM   13  N5    D T1001       5.796   3.694   7.675  1.00 24.03    -0.235 NA
HETATM   14  C4    D T1001       6.335   3.300   6.530  1.00 26.08     0.134 A 
HETATM   15  S3    D T1001       6.091   1.638   6.199  1.00 24.78    -0.066 SA
ENDBRANCH  10  11
ENDBRANCH   9  10
ENDBRANCH   7   9
ENDBRANCH   5   6
BRANCH   5  16
HETATM   16  C26   D T1001       5.689  -2.316   4.718  1.00  9.89     0.053 C 
BRANCH  16  17
HETATM   17  C28   D T1001       5.941  -2.030   3.258  1.00 10.53    -0.020 A 
HETATM   18  C31   D T1001       4.882  -1.561   2.460  1.00 10.31    -0.004 A 
HETATM   19  C32   D T1001       5.115  -1.280   1.092  1.00 11.41    -0.000 A 
HETATM   20  C33   D T1001       6.388  -1.467   0.541  1.00 13.64    -0.000 A 
HETATM   21  C34   D T1001       7.432  -1.923   1.340  1.00 13.54    -0.000 A 
HETATM   22  C35   D T1001       7.213  -2.218   2.699  1.00 13.00    -0.004 A 
ENDBRANCH  16  17
ENDBRANCH   5  16
ENDBRANCH   3   5
ENDBRANCH   2   3
ENDBRANCH   1   2
BRANCH   1  23
HETATM   23  C44   D T1001       3.018  -5.934   1.770  1.00  9.33     0.051 C 
BRANCH  23  24
HETATM   24  C45   D T1001       3.300  -7.419   1.632  1.00  9.99    -0.020 A 
HETATM   25  C48   D T1001       2.776  -8.366   2.501  1.00 10.42    -0.004 A 
HETATM   26  C49   D T1001       3.068  -9.725   2.369  1.00 12.60    -0.000 A 
HETATM   27  C50   D T1001       3.927 -10.131   1.334  1.00 12.24    -0.000 A 
HETATM   28  C51   D T1001       4.456  -9.215   0.452  1.00 13.41    -0.000 A 
HETATM   29  C52   D T1001       4.140  -7.865   0.602  1.00 11.46    -0.004 A 
ENDBRANCH  23  24
ENDBRANCH   1  23
BRANCH   1  30
HETATM   30  N58   D T1001       4.882  -5.957   3.455  1.00  8.28    -0.238 NA
HETATM   31  C18   D T1001       6.144  -5.967   2.919  1.00  8.88     0.274 C 
HETATM   32  O61   D T1001       6.423  -5.332   1.911  1.00 11.15    -0.268 OA
BRANCH  31  33
HETATM   33  C19   D T1001       7.123  -6.888   3.685  1.00  8.22     0.188 C 
BRANCH  33  34
HETATM   34  N20   D T1001       6.338  -7.420   4.826  1.00  9.06    -0.211 NA
HETATM   35  C21   D T1001       6.920  -7.381   6.083  1.00  7.77     0.343 C 
HETATM   36  N74   D T1001       6.151  -7.941   7.105  1.00  9.58    -0.294 N 
HETATM   37  O76   D T1001       8.070  -6.982   6.247  1.00  8.28    -0.245 OA
HETATM   38  C95   D T1001       4.841  -8.548   6.902  1.00 12.13     0.131 C 
BRANCH  36  39
HETATM   39  C75   D T1001       6.749  -8.029   8.436  1.00 11.33     0.152 C 
BRANCH  39  40
HETATM   40  C77   D T1001       5.766  -8.400   9.499  1.00 11.34     0.083 A 
HETATM   41  C80   D T1001       5.851  -9.541  10.261  1.00 12.89     0.049 A 
HETATM   42  S81   D T1001       4.548  -9.584  11.363  1.00 18.25    -0.091 SA
HETATM   43  C82   D T1001       3.964  -8.094  10.759  1.00 17.46     0.127 A 
HETATM   44  N83   D T1001       4.673  -7.605   9.791  1.00 15.61    -0.266 NA
BRANCH  43  45
HETATM   45  C85A  D T1001       2.713  -7.522  11.387  0.65 20.47     0.030 C 
HETATM   46  C86A  D T1001       2.763  -6.011  11.463  0.65 21.84     0.003 C 
HETATM   47  C90A  D T1001       1.456  -8.039  10.676  0.65 25.77     0.003 C 
ENDBRANCH  43  45
BRANCH  43  48
HETATM   48  C85B  D T1001       2.721  -7.475  11.344  0.35 20.27     0.030 C 
HETATM   49  C86B  D T1001       2.777  -5.954  11.373  0.35 19.26     0.003 C 
HETATM   50  C90B  D T1001       1.413  -8.040  10.835  0.35 21.00     0.003 C 
ENDBRANCH  43  48
ENDBRANCH  39  40
ENDBRANCH  36  39
ENDBRANCH  33  34
BRANCH  33  51
HETATM   51  C62   D T1001       7.563  -8.010   2.711  1.00  9.40     0.032 C 
HETATM   52  C64   D T1001       9.083  -8.144   2.728  1.00 11.21     0.003 C 
HETATM   53  C68   D T1001       6.907  -9.335   3.152  1.00 11.67     0.003 C 
ENDBRANCH  33  51
ENDBRANCH  31  33
ENDBRANCH   1  30
TORSDOF 19
ENDMDL
MODEL 4
REMARK VINA RESULT:    -8.477      2.270      8.801
REMARK INTER + INTRA:         -21.591
REMARK INTER:                 -17.955
REMARK INTRA:                  -3.637
REMARK UNBOUND:                -4.195
REMARK  19 active torsions:
REMARK  status: ('A' for Active; 'I' for Inactive)
REMARK    1  A    between atoms: C2_2  and  C6_6 
REMARK    2  A    between atoms: C6_6  and  O7_7 
REMARK    3  A    between atoms: O7_7  and  C10_8 
REMARK       I    between atoms: C10_8  and  N11_10 
REMARK    4  A    between atoms: N11_10  and  C12_11 
REMARK    5  A    between atoms: C12_11  and  C13_12 
REMARK    6  A    between atoms: C12_11  and  C26_15 
REMARK    7  A    between atoms: C13_12  and  C14_13 
REMARK    8  A    between atoms: C14_13  and  C15_14 
REMARK    9  A    between atoms: C15_14  and  C44_23 
REMARK   10  A    between atoms: C15_14  and  N58_30 
REMARK   11  A    between atoms: C26_15  and  C28_16 
REMARK   12  A    between atoms: C44_23  and  C45_24 
REMARK       I    between atoms: N58_30  and  C18_33 
REMARK   13  A    between atoms: N20_31  and  C19_32 
REMARK       I    between atoms: N20_31  and  C21_38 
REMARK   14  A    between atoms: C19_32  and  C18_33 
REMARK   15  A    between atoms: C19_32  and  C62_35 
REMARK       I    between atoms: C21_38  and  N74_39 
REMARK   16  A    between atoms: N74_39  and  C75_40 
REMARK   17  A    between atoms: C75_40  and  C77_42 
REMARK   18  A    between atoms: C82_45  and  C85@A_47 
REMARK   19  A    between atoms: C82_45  and  C85@B_48 
ROOT
HETATM    1  C15   D T1001       7.169  -5.374   3.372  1.00  8.25     0.113 C 
ENDROOT
BRANCH   1   2
HETATM    2  C14   D T1001       6.689  -4.034   3.973  1.00  7.75     0.060 C 
BRANCH   2   3
HETATM    3  C13   D T1001       5.496  -3.413   3.245  1.00  7.71     0.177 C 
HETATM    4  O41   D T1001       5.798  -2.088   2.799  1.00  8.53    -0.221 OA
BRANCH   3   5
HETATM    5  C12   D T1001       4.189  -3.408   4.073  1.00  8.17     0.143 C 
BRANCH   5   6
HETATM    6  N11   D T1001       4.002  -2.069   4.721  1.00  8.56    -0.211 NA
HETATM    7  C10   D T1001       3.991  -2.019   6.088  1.00  9.54     0.384 C 
HETATM    8  O24   D T1001       4.274  -2.892   6.888  1.00 10.40    -0.236 OA
BRANCH   7   9
HETATM    9  O7    D T1001       3.579  -0.785   6.485  1.00 13.31    -0.278 OA
BRANCH   9  10
HETATM   10  C6    D T1001       4.379  -0.284   7.587  1.00 21.32     0.188 C 
BRANCH  10  11
HETATM   11  C2    D T1001       5.117   0.940   7.237  1.00 19.63     0.058 A 
HETATM   12  C1    D T1001       5.080   2.176   7.872  1.00 18.64     0.104 A 
HETATM   13  N5    D T1001       5.890   3.162   7.318  1.00 24.03    -0.235 NA
HETATM   14  C4    D T1001       6.542   2.692   6.265  1.00 26.08     0.134 A 
HETATM   15  S3    D T1001       6.194   1.049   5.927  1.00 24.78    -0.066 SA
ENDBRANCH  10  11
ENDBRANCH   9  10
ENDBRANCH   7   9
ENDBRANCH   5   6
BRANCH   5  16
HETATM   16  C26   D T1001       2.941  -3.739   3.199  1.00  9.89     0.053 C 
BRANCH  16  17
HETATM   17  C28   D T1001       2.598  -5.208   3.183  1.00 10.53    -0.020 A 
HETATM   18  C31   D T1001       3.263  -6.077   4.068  1.00 10.31    -0.004 A 
HETATM   19  C32   D T1001       2.938  -7.455   4.065  1.00 11.41    -0.000 A 
HETATM   20  C33   D T1001       1.962  -7.946   3.191  1.00 13.64    -0.000 A 
HETATM   21  C34   D T1001       1.302  -7.079   2.326  1.00 13.54    -0.000 A 
HETATM   22  C35   D T1001       1.623  -5.709   2.308  1.00 13.00    -0.004 A 
ENDBRANCH  16  17
ENDBRANCH   5  16
ENDBRANCH   3   5
ENDBRANCH   2   3
ENDBRANCH   1   2
BRANCH   1  23
HETATM   23  C44   D T1001       6.636  -5.621   1.944  1.00  9.33     0.051 C 
BRANCH  23  24
HETATM   24  C45   D T1001       5.916  -6.931   1.674  1.00  9.99    -0.020 A 
HETATM   25  C48   D T1001       6.324  -8.138   2.224  1.00 10.42    -0.004 A 
HETATM   26  C49   D T1001       5.661  -9.334   1.943  1.00 12.60    -0.000 A 
HETATM   27  C50   D T1001       4.562  -9.305   1.069  1.00 12.24    -0.000 A 
HETATM   28  C51   D T1001       4.129  -8.121   0.513  1.00 13.41    -0.000 A 
HETATM   29  C52   D T1001       4.805  -6.940   0.819  1.00 11.46    -0.004 A 
ENDBRANCH  23  24
ENDBRANCH   1  23
BRANCH   1  30
HETATM   30  N58   D T1001       6.754  -6.419   4.324  1.00  8.28    -0.238 NA
HETATM   31  C18   D T1001       7.634  -6.784   5.311  1.00  8.88     0.274 C 
HETATM   32  O61   D T1001       8.744  -6.279   5.404  1.00 11.15    -0.268 OA
BRANCH  31  33
HETATM   33  C19   D T1001       7.093  -7.908   6.224  1.00  8.22     0.188 C 
BRANCH  33  34
HETATM   34  N20   D T1001       5.842  -7.362   6.807  1.00  9.06    -0.211 NA
HETATM   35  C21   D T1001       5.621  -7.560   8.160  1.00  7.77     0.343 C 
HETATM   36  N74   D T1001       4.405  -7.066   8.637  1.00  9.58    -0.294 N 
HETATM   37  O76   D T1001       6.396  -8.218   8.849  1.00  8.28    -0.245 OA
HETATM   38  C95   D T1001       3.409  -6.405   7.802  1.00 12.13     0.131 C 
BRANCH  36  39
HETATM   39  C75   D T1001       4.062  -7.334  10.032  1.00 11.33     0.152 C 
BRANCH  39  40
HETATM   40  C77   D T1001       2.743  -8.019  10.192  1.00 11.34     0.083 A 
HETATM   41  C80   D T1001       1.665  -7.470  10.845  1.00 12.89     0.049 A 
HETATM   42  S81   D T1001       0.355  -8.564  10.794  1.00 18.25    -0.091 SA
HETATM   43  C82   D T1001       1.301  -9.684   9.912  1.00 17.46     0.127 A 
HETATM   44  N83   D T1001       2.513  -9.285   9.687  1.00 15.61    -0.266 NA
BRANCH  43  45
HETATM   45  C85A  D T1001       0.652 -10.988   9.507  0.65 20.47     0.030 C 
HETATM   46  C86A  D T1001       1.374 -12.182  10.097  0.65 21.84     0.003 C 
HETATM   47  C90A  D T1001      -0.846 -10.981   9.834  0.65 25.77     0.003 C 
ENDBRANCH  43  45
BRANCH  43  48
HETATM   48  C85B  D T1001       0.710 -11.001   9.482  0.35 20.27     0.030 C 
HETATM   49  C86B  D T1001       1.528 -12.196   9.951  0.35 19.26     0.003 C 
HETATM   50  C90B  D T1001      -0.781 -11.144   9.697  0.35 21.00     0.003 C 
ENDBRANCH  43  48
ENDBRANCH  39  40
ENDBRANCH  36  39
ENDBRANCH  33  34
BRANCH  33  51
HETATM   51  C62   D T1001       6.824  -9.145   5.330  1.00  9.40     0.032 C 
HETATM   52  C64   D T1001       7.825 -10.248   5.657  1.00 11.21     0.003 C 
HETATM   53  C68   D T1001       5.384  -9.639   5.587  1.00 11.67     0.003 C 
ENDBRANCH  33  51
ENDBRANCH  31  33
ENDBRANCH   1  30
TORSDOF 19
ENDMDL
MODEL 5
REMARK VINA RESULT:    -8.451      2.669      8.765
REMARK INTER + INTRA:         -21.538
REMARK INTER:                 -17.934
REMARK INTRA:                  -3.605
REMARK UNBOUND:                -4.195
REMARK  19 active torsions:
REMARK  status: ('A' for Active; 'I' for Inactive)
REMARK    1  A    between atoms: C2_2  and  C6_6 
REMARK    2  A    between atoms: C6_6  and  O7_7 
REMARK    3  A    between atoms: O7_7  and  C10_8 
REMARK       I    between atoms: C10_8  and  N11_10 
REMARK    4  A    between atoms: N11_10  and  C12_11 
REMARK    5  A    between atoms: C12_11  and  C13_12 
REMARK    6  A    between atoms: C12_11  and  C26_15 
REMARK    7  A    between atoms: C13_12  and  C14_13 
REMARK    8  A    between atoms: C14_13  and  C15_14 
REMARK    9  A    between atoms: C15_14  and  C44_23 
REMARK   10  A    between atoms: C15_14  and  N58_30 
REMARK   11  A    between atoms: C26_15  and  C28_16 
REMARK   12  A    between atoms: C44_23  and  C45_24 
REMARK       I    between atoms: N58_30  and  C18_33 
REMARK   13  A    between atoms: N20_31  and  C19_32 
REMARK       I    between atoms: N20_31  and  C21_38 
REMARK   14  A    between atoms: C19_32  and  C18_33 
REMARK   15  A    between atoms: C19_32  and  C62_35 
REMARK       I    between atoms: C21_38  and  N74_39 
REMARK   16  A    between atoms: N74_39  and  C75_40 
REMARK   17  A    between atoms: C75_40  and  C77_42 
REMARK   18  A    between atoms: C82_45  and  C85@A_47 
REMARK   19  A    between atoms: C82_45  and  C85@B_48 
ROOT
HETATM    1  C15   D T1001       6.257  -2.371   5.890  1.00  8.25     0.113 C 
ENDROOT
BRANCH   1   2
HETATM    2  C14   D T1001       7.521  -2.289   5.006  1.00  7.75     0.060 C 
BRANCH   2   3
HETATM    3  C13   D T1001       7.390  -1.341   3.813  1.00  7.71     0.177 C 
HETATM    4  O41   D T1001       7.493   0.024   4.226  1.00  8.53    -0.221 OA
BRANCH   3   5
HETATM    5  C12   D T1001       6.099  -1.549   2.986  1.00  8.17     0.143 C 
BRANCH   5   6
HETATM    6  N11   D T1001       6.157  -2.868   2.276  1.00  8.56    -0.211 NA
HETATM    7  C10   D T1001       6.180  -2.853   0.908  1.00  9.54     0.384 C 
HETATM    8  O24   D T1001       6.325  -1.908   0.154  1.00 10.40    -0.236 OA
BRANCH   7   9
HETATM    9  O7    D T1001       5.994  -4.119   0.446  1.00 13.31    -0.278 OA
BRANCH   9  10
HETATM   10  C6    D T1001       5.779  -5.058   1.532  1.00 21.32     0.188 C 
BRANCH  10  11
HETATM   11  C2    D T1001       4.379  -5.500   1.625  1.00 19.63     0.058 A 
HETATM   12  C1    D T1001       3.724  -6.448   0.847  1.00 18.64     0.104 A 
HETATM   13  N5    D T1001       2.386  -6.667   1.163  1.00 24.03    -0.235 NA
HETATM   14  C4    D T1001       2.014  -5.894   2.173  1.00 26.08     0.134 A 
HETATM   15  S3    D T1001       3.272  -4.893   2.763  1.00 24.78    -0.066 SA
ENDBRANCH  10  11
ENDBRANCH   9  10
ENDBRANCH   7   9
ENDBRANCH   5   6
BRANCH   5  16
HETATM   16  C26   D T1001       4.819  -1.495   3.874  1.00  9.89     0.053 C 
BRANCH  16  17
HETATM   17  C28   D T1001       3.952  -0.291   3.597  1.00 10.53    -0.020 A 
HETATM   18  C31   D T1001       2.577  -0.357   3.888  1.00 10.31    -0.004 A 
HETATM   19  C32   D T1001       1.759   0.772   3.640  1.00 11.41    -0.000 A 
HETATM   20  C33   D T1001       2.317   1.943   3.113  1.00 13.64    -0.000 A 
HETATM   21  C34   D T1001       3.679   2.002   2.837  1.00 13.54    -0.000 A 
HETATM   22  C35   D T1001       4.502   0.884   3.066  1.00 13.00    -0.004 A 
ENDBRANCH  16  17
ENDBRANCH   5  16
ENDBRANCH   3   5
ENDBRANCH   2   3
ENDBRANCH   1   2
BRANCH   1  23
HETATM   23  C44   D T1001       6.269  -1.361   7.058  1.00  9.33     0.051 C 
BRANCH  23  24
HETATM   24  C45   D T1001       5.207  -0.276   7.066  1.00  9.99    -0.020 A 
HETATM   25  C48   D T1001       3.884  -0.523   7.404  1.00 10.42    -0.004 A 
HETATM   26  C49   D T1001       2.919   0.486   7.381  1.00 12.60    -0.000 A 
HETATM   27  C50   D T1001       3.306   1.778   6.991  1.00 12.24    -0.000 A 
HETATM   28  C51   D T1001       4.613   2.056   6.656  1.00 13.41    -0.000 A 
HETATM   29  C52   D T1001       5.558   1.031   6.697  1.00 11.46    -0.004 A 
ENDBRANCH  23  24
ENDBRANCH   1  23
BRANCH   1  30
HETATM   30  N58   D T1001       6.169  -3.769   6.347  1.00  8.28    -0.238 NA
HETATM   31  C18   D T1001       4.931  -4.355   6.404  1.00  8.88     0.274 C 
HETATM   32  O61   D T1001       3.913  -3.745   6.106  1.00 11.15    -0.268 OA
BRANCH  31  33
HETATM   33  C19   D T1001       4.970  -5.811   6.926  1.00  8.22     0.188 C 
BRANCH  33  34
HETATM   34  N20   D T1001       6.294  -6.334   6.507  1.00  9.06    -0.211 NA
HETATM   35  C21   D T1001       6.388  -6.924   5.257  1.00  7.77     0.343 C 
HETATM   36  N74   D T1001       7.647  -7.439   4.943  1.00  9.58    -0.294 N 
HETATM   37  O76   D T1001       5.402  -7.072   4.540  1.00  8.28    -0.245 OA
HETATM   38  C95   D T1001       8.794  -7.397   5.842  1.00 12.13     0.131 C 
BRANCH  36  39
HETATM   39  C75   D T1001       7.789  -8.169   3.684  1.00 11.33     0.152 C 
BRANCH  39  40
HETATM   40  C77   D T1001       6.997  -9.437   3.647  1.00 11.34     0.083 A 
HETATM   41  C80   D T1001       7.208 -10.500   4.492  1.00 12.89     0.049 A 
HETATM   42  S81   D T1001       6.091 -11.739   4.131  1.00 18.25    -0.091 SA
HETATM   43  C82   D T1001       5.406 -10.786   2.887  1.00 17.46     0.127 A 
HETATM   44  N83   D T1001       5.979  -9.633   2.733  1.00 15.61    -0.266 NA
BRANCH  43  45
HETATM   45  C85A  D T1001       4.248 -11.369   2.110  0.65 20.47     0.030 C 
HETATM   46  C86A  D T1001       3.096 -10.391   2.001  0.65 21.84     0.003 C 
HETATM   47  C90A  D T1001       4.710 -11.894   0.745  0.65 25.77     0.003 C 
ENDBRANCH  43  45
BRANCH  43  48
HETATM   48  C85B  D T1001       4.250 -11.313   2.077  0.35 20.27     0.030 C 
HETATM   49  C86B  D T1001       3.988 -12.793   2.319  0.35 19.26     0.003 C 
HETATM   50  C90B  D T1001       3.007 -10.452   2.084  0.35 21.00     0.003 C 
ENDBRANCH  43  48
ENDBRANCH  39  40
ENDBRANCH  36  39
ENDBRANCH  33  34
BRANCH  33  51
HETATM   51  C62   D T1001       4.830  -5.756   8.468  1.00  9.40     0.032 C 
HETATM   52  C64   D T1001       3.354  -5.724   8.853  1.00 11.21     0.003 C 
HETATM   53  C68   D T1001       5.511  -7.003   9.072  1.00 11.67     0.003 C 
ENDBRANCH  33  51
ENDBRANCH  31  33
ENDBRANCH   1  30
TORSDOF 19
ENDMDL
MODEL 6
REMARK VINA RESULT:    -8.356      1.929      7.731
REMARK INTER + INTRA:         -21.344
REMARK INTER:                 -17.149
REMARK INTRA:                  -4.195
REMARK UNBOUND:                -4.195
REMARK  19 active torsions:
REMARK  status: ('A' for Active; 'I' for Inactive)
REMARK    1  A    between atoms: C2_2  and  C6_6 
REMARK    2  A    between atoms: C6_6  and  O7_7 
REMARK    3  A    between atoms: O7_7  and  C10_8 
REMARK       I    between atoms: C10_8  and  N11_10 
REMARK    4  A    between atoms: N11_10  and  C12_11 
REMARK    5  A    between atoms: C12_11  and  C13_12 
REMARK    6  A    between atoms: C12_11  and  C26_15 
REMARK    7  A    between atoms: C13_12  and  C14_13 
REMARK    8  A    between atoms: C14_13  and  C15_14 
REMARK    9  A    between atoms: C15_14  and  C44_23 
REMARK   10  A    between atoms: C15_14  and  N58_30 
REMARK   11  A    between atoms: C26_15  and  C28_16 
REMARK   12  A    between atoms: C44_23  and  C45_24 
REMARK       I    between atoms: N58_30  and  C18_33 
REMARK   13  A    between atoms: N20_31  and  C19_32 
REMARK       I    between atoms: N20_31  and  C21_38 
REMARK   14  A    between atoms: C19_32  and  C18_33 
REMARK   15  A    between atoms: C19_32  and  C62_35 
REMARK       I    between atoms: C21_38  and  N74_39 
REMARK   16  A    between atoms: N74_39  and  C75_40 
REMARK   17  A    between atoms: C75_40  and  C77_42 
REMARK   18  A    between atoms: C82_45  and  C85@A_47 
REMARK   19  A    between atoms: C82_45  and  C85@B_48 
ROOT
HETATM    1  C15   D T1001       5.056  -6.378   1.348  1.00  8.25     0.113 C 
ENDROOT
BRANCH   1   2
HETATM    2  C14   D T1001       4.330  -5.026   1.528  1.00  7.75     0.060 C 
BRANCH   2   3
HETATM    3  C13   D T1001       3.576  -4.893   2.851  1.00  7.71     0.177 C 
HETATM    4  O41   D T1001       2.185  -5.180   2.683  1.00  8.53    -0.221 OA
BRANCH   3   5
HETATM    5  C12   D T1001       3.754  -3.518   3.539  1.00  8.17     0.143 C 
BRANCH   5   6
HETATM    6  N11   D T1001       4.928  -3.563   4.470  1.00  8.56    -0.211 NA
HETATM    7  C10   D T1001       4.773  -3.021   5.716  1.00  9.54     0.384 C 
HETATM    8  O24   D T1001       3.755  -2.636   6.263  1.00 10.40    -0.236 OA
BRANCH   7   9
HETATM    9  O7    D T1001       5.988  -2.940   6.321  1.00 13.31    -0.278 OA
BRANCH   9  10
HETATM   10  C6    D T1001       6.318  -1.572   6.677  1.00 21.32     0.188 C 
BRANCH  10  11
HETATM   11  C2    D T1001       7.109  -0.895   5.639  1.00 19.63     0.058 A 
HETATM   12  C1    D T1001       7.181   0.466   5.364  1.00 18.64     0.104 A 
HETATM   13  N5    D T1001       8.020   0.826   4.314  1.00 24.03    -0.235 NA
HETATM   14  C4    D T1001       8.586  -0.248   3.782  1.00 26.08     0.134 A 
HETATM   15  S3    D T1001       8.122  -1.710   4.544  1.00 24.78    -0.066 SA
ENDBRANCH  10  11
ENDBRANCH   9  10
ENDBRANCH   7   9
ENDBRANCH   5   6
BRANCH   5  16
HETATM   16  C26   D T1001       3.957  -2.368   2.506  1.00  9.89     0.053 C 
BRANCH  16  17
HETATM   17  C28   D T1001       3.504  -1.022   3.016  1.00 10.53    -0.020 A 
HETATM   18  C31   D T1001       4.418   0.047   3.030  1.00 10.31    -0.004 A 
HETATM   19  C32   D T1001       3.996   1.316   3.497  1.00 11.41    -0.000 A 
HETATM   20  C33   D T1001       2.681   1.502   3.937  1.00 13.64    -0.000 A 
HETATM   21  C34   D T1001       1.781   0.441   3.911  1.00 13.54    -0.000 A 
HETATM   22  C35   D T1001       2.189  -0.828   3.462  1.00 13.00    -0.004 A 
ENDBRANCH  16  17
ENDBRANCH   5  16
ENDBRANCH   3   5
ENDBRANCH   2   3
ENDBRANCH   1   2
BRANCH   1  23
HETATM   23  C44   D T1001       4.260  -7.382   0.484  1.00  9.33     0.051 C 
BRANCH  23  24
HETATM   24  C45   D T1001       4.074  -8.788   1.025  1.00  9.99    -0.020 A 
HETATM   25  C48   D T1001       4.975  -9.814   0.775  1.00 10.42    -0.004 A 
HETATM   26  C49   D T1001       4.771 -11.106   1.263  1.00 12.60    -0.000 A 
HETATM   27  C50   D T1001       3.613 -11.366   2.015  1.00 12.24    -0.000 A 
HETATM   28  C51   D T1001       2.705 -10.367   2.286  1.00 13.41    -0.000 A 
HETATM   29  C52   D T1001       2.939  -9.084   1.793  1.00 11.46    -0.004 A 
ENDBRANCH  23  24
ENDBRANCH   1  23
BRANCH   1  30
HETATM   30  N58   D T1001       5.323  -6.882   2.706  1.00  8.28    -0.238 NA
HETATM   31  C18   D T1001       6.601  -7.276   3.011  1.00  8.88     0.274 C 
HETATM   32  O61   D T1001       7.503  -7.236   2.186  1.00 11.15    -0.268 OA
BRANCH  31  33
HETATM   33  C19   D T1001       6.744  -7.811   4.456  1.00  8.22     0.188 C 
BRANCH  33  34
HETATM   34  N20   D T1001       5.582  -7.252   5.190  1.00  9.06    -0.211 NA
HETATM   35  C21   D T1001       5.814  -6.701   6.440  1.00  7.77     0.343 C 
HETATM   36  N74   D T1001       4.674  -6.237   7.099  1.00  9.58    -0.294 N 
HETATM   37  O76   D T1001       6.927  -6.728   6.959  1.00  8.28    -0.245 OA
HETATM   38  C95   D T1001       3.324  -6.326   6.556  1.00 12.13     0.131 C 
BRANCH  36  39
HETATM   39  C75   D T1001       4.832  -5.741   8.465  1.00 11.33     0.152 C 
BRANCH  39  40
HETATM   40  C77   D T1001       3.968  -6.455   9.454  1.00 11.34     0.083 A 
HETATM   41  C80   D T1001       3.400  -5.855  10.553  1.00 12.89     0.049 A 
HETATM   42  S81   D T1001       2.481  -7.007  11.414  1.00 18.25    -0.091 SA
HETATM   43  C82   D T1001       2.895  -8.216  10.277  1.00 17.46     0.127 A 
HETATM   44  N83   D T1001       3.679  -7.801   9.332  1.00 15.61    -0.266 NA
BRANCH  43  45
HETATM   45  C85A  D T1001       2.333  -9.603  10.488  0.65 20.47     0.030 C 
HETATM   46  C86A  D T1001       1.306  -9.960   9.433  0.65 21.84     0.003 C 
HETATM   47  C90A  D T1001       3.457 -10.641  10.596  0.65 25.77     0.003 C 
ENDBRANCH  43  45
BRANCH  43  48
HETATM   48  C85B  D T1001       2.366  -9.618  10.435  0.35 20.27     0.030 C 
HETATM   49  C86B  D T1001       1.278  -9.954   9.424  0.35 19.26     0.003 C 
HETATM   50  C90B  D T1001       3.417 -10.693  10.600  0.35 21.00     0.003 C 
ENDBRANCH  43  48
ENDBRANCH  39  40
ENDBRANCH  36  39
ENDBRANCH  33  34
BRANCH  33  51
HETATM   51  C62   D T1001       6.695  -9.358   4.386  1.00  9.40     0.032 C 
HETATM   52  C64   D T1001       7.808  -9.951   5.244  1.00 11.21     0.003 C 
HETATM   53  C68   D T1001       5.318  -9.834   4.896  1.00 11.67     0.003 C 
ENDBRANCH  33  51
ENDBRANCH  31  33
ENDBRANCH   1  30
TORSDOF 19
ENDMDL
MODEL 7
REMARK VINA RESULT:    -8.307      3.673     10.224
REMARK INTER + INTRA:         -21.243
REMARK INTER:                 -19.327
REMARK INTRA:                  -1.916
REMARK UNBOUND:                -4.195
REMARK  19 active torsions:
REMARK  status: ('A' for Active; 'I' for Inactive)
REMARK    1  A    between atoms: C2_2  and  C6_6 
REMARK    2  A    between atoms: C6_6  and  O7_7 
REMARK    3  A    between atoms: O7_7  and  C10_8 
REMARK       I    between atoms: C10_8  and  N11_10 
REMARK    4  A    between atoms: N11_10  and  C12_11 
REMARK    5  A    between atoms: C12_11  and  C13_12 
REMARK    6  A    between atoms: C12_11  and  C26_15 
REMARK    7  A    between atoms: C13_12  and  C14_13 
REMARK    8  A    between atoms: C14_13  and  C15_14 
REMARK    9  A    between atoms: C15_14  and  C44_23 
REMARK   10  A    between atoms: C15_14  and  N58_30 
REMARK   11  A    between atoms: C26_15  and  C28_16 
REMARK   12  A    between atoms: C44_23  and  C45_24 
REMARK       I    between atoms: N58_30  and  C18_33 
REMARK   13  A    between atoms: N20_31  and  C19_32 
REMARK       I    between atoms: N20_31  and  C21_38 
REMARK   14  A    between atoms: C19_32  and  C18_33 
REMARK   15  A    between atoms: C19_32  and  C62_35 
REMARK       I    between atoms: C21_38  and  N74_39 
REMARK   16  A    between atoms: N74_39  and  C75_40 
REMARK   17  A    between atoms: C75_40  and  C77_42 
REMARK   18  A    between atoms: C82_45  and  C85@A_47 
REMARK   19  A    between atoms: C82_45  and  C85@B_48 
ROOT
HETATM    1  C15   D T1001       5.248  -1.357   3.836  1.00  8.25     0.113 C 
ENDROOT
BRANCH   1   2
HETATM    2  C14   D T1001       6.611  -1.085   4.510  1.00  7.75     0.060 C 
BRANCH   2   3
HETATM    3  C13   D T1001       7.259   0.238   4.099  1.00  7.71     0.177 C 
HETATM    4  O41   D T1001       8.497   0.015   3.419  1.00  8.53    -0.221 OA
BRANCH   3   5
HETATM    5  C12   D T1001       7.469   1.225   5.272  1.00  8.17     0.143 C 
BRANCH   5   6
HETATM    6  N11   D T1001       8.598   2.160   4.954  1.00  8.56    -0.211 NA
HETATM    7  C10   D T1001       8.279   3.434   4.571  1.00  9.54     0.384 C 
HETATM    8  O24   D T1001       7.199   3.995   4.600  1.00 10.40    -0.236 OA
BRANCH   7   9
HETATM    9  O7    D T1001       9.397   4.050   4.102  1.00 13.31    -0.278 OA
BRANCH   9  10
HETATM   10  C6    D T1001       9.070   5.212   3.296  1.00 21.32     0.188 C 
BRANCH  10  11
HETATM   11  C2    D T1001      10.211   6.125   3.135  1.00 19.63     0.058 A 
HETATM   12  C1    D T1001      10.378   7.133   2.192  1.00 18.64     0.104 A 
HETATM   13  N5    D T1001      11.570   7.847   2.277  1.00 24.03    -0.235 NA
HETATM   14  C4    D T1001      12.315   7.391   3.274  1.00 26.08     0.134 A 
HETATM   15  S3    D T1001      11.589   6.097   4.130  1.00 24.78    -0.066 SA
ENDBRANCH  10  11
ENDBRANCH   9  10
ENDBRANCH   7   9
ENDBRANCH   5   6
BRANCH   5  16
HETATM   16  C26   D T1001       6.183   2.052   5.579  1.00  9.89     0.053 C 
BRANCH  16  17
HETATM   17  C28   D T1001       5.815   2.059   7.042  1.00 10.53    -0.020 A 
HETATM   18  C31   D T1001       5.297   0.888   7.624  1.00 10.31    -0.004 A 
HETATM   19  C32   D T1001       4.960   0.885   8.999  1.00 11.41    -0.000 A 
HETATM   20  C33   D T1001       5.143   2.037   9.771  1.00 13.64    -0.000 A 
HETATM   21  C34   D T1001       5.664   3.189   9.190  1.00 13.54    -0.000 A 
HETATM   22  C35   D T1001       5.992   3.211   7.822  1.00 13.00    -0.004 A 
ENDBRANCH  16  17
ENDBRANCH   5  16
ENDBRANCH   3   5
ENDBRANCH   2   3
ENDBRANCH   1   2
BRANCH   1  23
HETATM   23  C44   D T1001       4.048  -1.121   4.779  1.00  9.33     0.051 C 
BRANCH  23  24
HETATM   24  C45   D T1001       3.236   0.147   4.586  1.00  9.99    -0.020 A 
HETATM   25  C48   D T1001       2.442   0.690   5.587  1.00 10.42    -0.004 A 
HETATM   26  C49   D T1001       1.684   1.844   5.379  1.00 12.60    -0.000 A 
HETATM   27  C50   D T1001       1.724   2.456   4.116  1.00 12.24    -0.000 A 
HETATM   28  C51   D T1001       2.508   1.946   3.105  1.00 13.41    -0.000 A 
HETATM   29  C52   D T1001       3.261   0.797   3.343  1.00 11.46    -0.004 A 
ENDBRANCH  23  24
ENDBRANCH   1  23
BRANCH   1  30
HETATM   30  N58   D T1001       5.312  -2.739   3.331  1.00  8.28    -0.238 NA
HETATM   31  C18   D T1001       5.024  -2.960   2.008  1.00  8.88     0.274 C 
HETATM   32  O61   D T1001       4.703  -2.050   1.256  1.00 11.15    -0.268 OA
BRANCH  31  33
HETATM   33  C19   D T1001       5.098  -4.453   1.610  1.00  8.22     0.188 C 
BRANCH  33  34
HETATM   34  N20   D T1001       5.887  -5.100   2.688  1.00  9.06    -0.211 NA
HETATM   35  C21   D T1001       6.680  -6.183   2.345  1.00  7.77     0.343 C 
HETATM   36  N74   D T1001       7.358  -6.777   3.411  1.00  9.58    -0.294 N 
HETATM   37  O76   D T1001       6.688  -6.640   1.205  1.00  8.28    -0.245 OA
HETATM   38  C95   D T1001       7.249  -6.334   4.796  1.00 12.13     0.131 C 
BRANCH  36  39
HETATM   39  C75   D T1001       8.128  -7.989   3.137  1.00 11.33     0.152 C 
BRANCH  39  40
HETATM   40  C77   D T1001       7.340  -9.244   3.331  1.00 11.34     0.083 A 
HETATM   41  C80   D T1001       7.706 -10.258   4.184  1.00 12.89     0.049 A 
HETATM   42  S81   D T1001       6.535 -11.499   4.121  1.00 18.25    -0.091 SA
HETATM   43  C82   D T1001       5.627 -10.611   2.975  1.00 17.46     0.127 A 
HETATM   44  N83   D T1001       6.163  -9.479   2.644  1.00 15.61    -0.266 NA
BRANCH  43  45
HETATM   45  C85A  D T1001       4.338 -11.221   2.473  0.65 20.47     0.030 C 
HETATM   46  C86A  D T1001       3.239 -10.187   2.347  0.65 21.84     0.003 C 
HETATM   47  C90A  D T1001       4.569 -12.002   1.174  0.65 25.77     0.003 C 
ENDBRANCH  43  45
BRANCH  43  48
HETATM   48  C85B  D T1001       4.335 -11.168   2.437  0.35 20.27     0.030 C 
HETATM   49  C86B  D T1001       3.294 -10.089   2.170  0.35 19.26     0.003 C 
HETATM   50  C90B  D T1001       4.478 -12.182   1.325  0.35 21.00     0.003 C 
ENDBRANCH  43  48
ENDBRANCH  39  40
ENDBRANCH  36  39
ENDBRANCH  33  34
BRANCH  33  51
HETATM   51  C62   D T1001       3.646  -4.991   1.552  1.00  9.40     0.032 C 
HETATM   52  C64   D T1001       3.541  -6.083   0.492  1.00 11.21     0.003 C 
HETATM   53  C68   D T1001       3.271  -5.557   2.938  1.00 11.67     0.003 C 
ENDBRANCH  33  51
ENDBRANCH  31  33
ENDBRANCH   1  30
TORSDOF 19
ENDMDL
MODEL 8
REMARK VINA RESULT:    -8.253      2.253      7.646
REMARK INTER + INTRA:         -21.132
REMARK INTER:                 -18.118
REMARK INTRA:                  -3.014
REMARK UNBOUND:                -4.195
REMARK  19 active torsions:
REMARK  status: ('A' for Active; 'I' for Inactive)
REMARK    1  A    between atoms: C2_2  and  C6_6 
REMARK    2  A    between atoms: C6_6  and  O7_7 
REMARK    3  A    between atoms: O7_7  and  C10_8 
REMARK       I    between atoms: C10_8  and  N11_10 
REMARK    4  A    between atoms: N11_10  and  C12_11 
REMARK    5  A    between atoms: C12_11  and  C13_12 
REMARK    6  A    between atoms: C12_11  and  C26_15 
REMARK    7  A    between atoms: C13_12  and  C14_13 
REMARK    8  A    between atoms: C14_13  and  C15_14 
REMARK    9  A    between atoms: C15_14  and  C44_23 
REMARK   10  A    between atoms: C15_14  and  N58_30 
REMARK   11  A    between atoms: C26_15  and  C28_16 
REMARK   12  A    between atoms: C44_23  and  C45_24 
REMARK       I    between atoms: N58_30  and  C18_33 
REMARK   13  A    between atoms: N20_31  and  C19_32 
REMARK       I    between atoms: N20_31  and  C21_38 
REMARK   14  A    between atoms: C19_32  and  C18_33 
REMARK   15  A    between atoms: C19_32  and  C62_35 
REMARK       I    between atoms: C21_38  and  N74_39 
REMARK   16  A    between atoms: N74_39  and  C75_40 
REMARK   17  A    between atoms: C75_40  and  C77_42 
REMARK   18  A    between atoms: C82_45  and  C85@A_47 
REMARK   19  A    between atoms: C82_45  and  C85@B_48 
ROOT
HETATM    1  C15   D T1001       3.951  -5.711   2.294  1.00  8.25     0.113 C 
ENDROOT
BRANCH   1   2
HETATM    2  C14   D T1001       3.045  -4.996   3.321  1.00  7.75     0.060 C 
BRANCH   2   3
HETATM    3  C13   D T1001       3.788  -4.460   4.545  1.00  7.71     0.177 C 
HETATM    4  O41   D T1001       3.277  -5.036   5.751  1.00  8.53    -0.221 OA
BRANCH   3   5
HETATM    5  C12   D T1001       3.789  -2.916   4.653  1.00  8.17     0.143 C 
BRANCH   5   6
HETATM    6  N11   D T1001       5.059  -2.453   5.303  1.00  8.56    -0.211 NA
HETATM    7  C10   D T1001       4.962  -1.839   6.521  1.00  9.54     0.384 C 
HETATM    8  O24   D T1001       3.997  -1.747   7.259  1.00 10.40    -0.236 OA
BRANCH   7   9
HETATM    9  O7    D T1001       6.164  -1.286   6.837  1.00 13.31    -0.278 OA
BRANCH   9  10
HETATM   10  C6    D T1001       6.741  -0.581   5.708  1.00 21.32     0.188 C 
BRANCH  10  11
HETATM   11  C2    D T1001       6.682   0.881   5.867  1.00 19.63     0.058 A 
HETATM   12  C1    D T1001       7.492   1.842   5.273  1.00 18.64     0.104 A 
HETATM   13  N5    D T1001       7.205   3.162   5.608  1.00 24.03    -0.235 NA
HETATM   14  C4    D T1001       6.186   3.216   6.454  1.00 26.08     0.134 A 
HETATM   15  S3    D T1001       5.552   1.677   6.855  1.00 24.78    -0.066 SA
ENDBRANCH  10  11
ENDBRANCH   9  10
ENDBRANCH   7   9
ENDBRANCH   5   6
BRANCH   5  16
HETATM   16  C26   D T1001       3.640  -2.232   3.261  1.00  9.89     0.053 C 
BRANCH  16  17
HETATM   17  C28   D T1001       3.337  -0.756   3.352  1.00 10.53    -0.020 A 
HETATM   18  C31   D T1001       4.343   0.170   3.022  1.00 10.31    -0.004 A 
HETATM   19  C32   D T1001       4.062   1.556   3.095  1.00 11.41    -0.000 A 
HETATM   20  C33   D T1001       2.794   1.998   3.489  1.00 13.64    -0.000 A 
HETATM   21  C34   D T1001       1.802   1.074   3.805  1.00 13.54    -0.000 A 
HETATM   22  C35   D T1001       2.070  -0.306   3.749  1.00 13.00    -0.004 A 
ENDBRANCH  16  17
ENDBRANCH   5  16
ENDBRANCH   3   5
ENDBRANCH   2   3
ENDBRANCH   1   2
BRANCH   1  23
HETATM   23  C44   D T1001       3.170  -6.651   1.350  1.00  9.33     0.051 C 
BRANCH  23  24
HETATM   24  C45   D T1001       3.508  -8.131   1.386  1.00  9.99    -0.020 A 
HETATM   25  C48   D T1001       2.954  -9.005   2.311  1.00 10.42    -0.004 A 
HETATM   26  C49   D T1001       3.298 -10.357   2.340  1.00 12.60    -0.000 A 
HETATM   27  C50   D T1001       4.241 -10.832   1.414  1.00 12.24    -0.000 A 
HETATM   28  C51   D T1001       4.802  -9.991   0.479  1.00 13.41    -0.000 A 
HETATM   29  C52   D T1001       4.433  -8.646   0.467  1.00 11.46    -0.004 A 
ENDBRANCH  23  24
ENDBRANCH   1  23
BRANCH   1  30
HETATM   30  N58   D T1001       4.978  -6.418   3.080  1.00  8.28    -0.238 NA
HETATM   31  C18   D T1001       6.290  -6.273   2.709  1.00  8.88     0.274 C 
HETATM   32  O61   D T1001       6.618  -5.595   1.745  1.00 11.15    -0.268 OA
BRANCH  31  33
HETATM   33  C19   D T1001       7.265  -7.086   3.593  1.00  8.22     0.188 C 
BRANCH  33  34
HETATM   34  N20   D T1001       6.452  -7.536   4.750  1.00  9.06    -0.211 NA
HETATM   35  C21   D T1001       6.903  -7.212   6.019  1.00  7.77     0.343 C 
HETATM   36  N74   D T1001       6.120  -7.705   7.065  1.00  9.58    -0.294 N 
HETATM   37  O76   D T1001       7.970  -6.629   6.194  1.00  8.28    -0.245 OA
HETATM   38  C95   D T1001       4.926  -8.520   6.877  1.00 12.13     0.131 C 
BRANCH  36  39
HETATM   39  C75   D T1001       6.596  -7.491   8.431  1.00 11.33     0.152 C 
BRANCH  39  40
HETATM   40  C77   D T1001       5.714  -8.113   9.465  1.00 11.34     0.083 A 
HETATM   41  C80   D T1001       6.033  -9.255  10.162  1.00 12.89     0.049 A 
HETATM   42  S81   D T1001       4.772  -9.623  11.252  1.00 18.25    -0.091 SA
HETATM   43  C82   D T1001       3.895  -8.250  10.730  1.00 17.46     0.127 A 
HETATM   44  N83   D T1001       4.485  -7.573   9.796  1.00 15.61    -0.266 NA
BRANCH  43  45
HETATM   45  C85A  D T1001       2.558  -7.979  11.382  0.65 20.47     0.030 C 
HETATM   46  C86A  D T1001       2.391  -6.516  11.736  0.65 21.84     0.003 C 
HETATM   47  C90A  D T1001       1.408  -8.516  10.521  0.65 25.77     0.003 C 
ENDBRANCH  43  45
BRANCH  43  48
HETATM   48  C85B  D T1001       2.556  -7.929  11.342  0.35 20.27     0.030 C 
HETATM   49  C86B  D T1001       2.416  -6.460  11.717  0.35 19.26     0.003 C 
HETATM   50  C90B  D T1001       1.358  -8.504  10.620  0.35 21.00     0.003 C 
ENDBRANCH  43  48
ENDBRANCH  39  40
ENDBRANCH  36  39
ENDBRANCH  33  34
BRANCH  33  51
HETATM   51  C62   D T1001       7.776  -8.279   2.745  1.00  9.40     0.032 C 
HETATM   52  C64   D T1001       9.296  -8.373   2.847  1.00 11.21     0.003 C 
HETATM   53  C68   D T1001       7.126  -9.576   3.272  1.00 11.67     0.003 C 
ENDBRANCH  33  51
ENDBRANCH  31  33
ENDBRANCH   1  30
TORSDOF 19
ENDMDL
MODEL 9
REMARK VINA RESULT:    -8.142      2.359      3.436
REMARK INTER + INTRA:         -20.904
REMARK INTER:                 -17.107
REMARK INTRA:                  -3.797
REMARK UNBOUND:                -4.195
REMARK  19 active torsions:
REMARK  status: ('A' for Active; 'I' for Inactive)
REMARK    1  A    between atoms: C2_2  and  C6_6 
REMARK    2  A    between atoms: C6_6  and  O7_7 
REMARK    3  A    between atoms: O7_7  and  C10_8 
REMARK       I    between atoms: C10_8  and  N11_10 
REMARK    4  A    between atoms: N11_10  and  C12_11 
REMARK    5  A    between atoms: C12_11  and  C13_12 
REMARK    6  A    between atoms: C12_11  and  C26_15 
REMARK    7  A    between atoms: C13_12  and  C14_13 
REMARK    8  A    between atoms: C14_13  and  C15_14 
REMARK    9  A    between atoms: C15_14  and  C44_23 
REMARK   10  A    between atoms: C15_14  and  N58_30 
REMARK   11  A    between atoms: C26_15  and  C28_16 
REMARK   12  A    between atoms: C44_23  and  C45_24 
REMARK       I    between atoms: N58_30  and  C18_33 
REMARK   13  A    between atoms: N20_31  and  C19_32 
REMARK       I    between atoms: N20_31  and  C21_38 
REMARK   14  A    between atoms: C19_32  and  C18_33 
REMARK   15  A    between atoms: C19_32  and  C62_35 
REMARK       I    between atoms: C21_38  and  N74_39 
REMARK   16  A    between atoms: N74_39  and  C75_40 
REMARK   17  A    between atoms: C75_40  and  C77_42 
REMARK   18  A    between atoms: C82_45  and  C85@A_47 
REMARK   19  A    between atoms: C82_45  and  C85@B_48 
ROOT
HETATM    1  C15   D T1001       5.805  -8.532   4.384  1.00  8.25     0.113 C 
ENDROOT
BRANCH   1   2
HETATM    2  C14   D T1001       6.857  -7.809   5.253  1.00  7.75     0.060 C 
BRANCH   2   3
HETATM    3  C13   D T1001       6.982  -8.361   6.673  1.00  7.71     0.177 C 
HETATM    4  O41   D T1001       7.167  -9.779   6.660  1.00  8.53    -0.221 OA
BRANCH   3   5
HETATM    5  C12   D T1001       5.799  -7.989   7.598  1.00  8.17     0.143 C 
BRANCH   5   6
HETATM    6  N11   D T1001       5.634  -9.036   8.659  1.00  8.56    -0.211 NA
HETATM    7  C10   D T1001       4.369  -9.278   9.122  1.00  9.54     0.384 C 
HETATM    8  O24   D T1001       3.304  -8.879   8.686  1.00 10.40    -0.236 OA
BRANCH   7   9
HETATM    9  O7    D T1001       4.444 -10.070  10.225  1.00 13.31    -0.278 OA
BRANCH   9  10
HETATM   10  C6    D T1001       5.714  -9.916  10.909  1.00 21.32     0.188 C 
BRANCH  10  11
HETATM   11  C2    D T1001       5.556  -9.437  12.291  1.00 19.63     0.058 A 
HETATM   12  C1    D T1001       6.511  -9.397  13.301  1.00 18.64     0.104 A 
HETATM   13  N5    D T1001       6.076  -8.889  14.521  1.00 24.03    -0.235 NA
HETATM   14  C4    D T1001       4.798  -8.544  14.453  1.00 26.08     0.134 A 
HETATM   15  S3    D T1001       4.100  -8.822  12.914  1.00 24.78    -0.066 SA
ENDBRANCH  10  11
ENDBRANCH   9  10
ENDBRANCH   7   9
ENDBRANCH   5   6
BRANCH   5  16
HETATM   16  C26   D T1001       5.997  -6.597   8.271  1.00  9.89     0.053 C 
BRANCH  16  17
HETATM   17  C28   D T1001       5.197  -5.499   7.615  1.00 10.53    -0.020 A 
HETATM   18  C31   D T1001       3.805  -5.452   7.817  1.00 10.31    -0.004 A 
HETATM   19  C32   D T1001       3.050  -4.418   7.213  1.00 11.41    -0.000 A 
HETATM   20  C33   D T1001       3.684  -3.450   6.426  1.00 13.64    -0.000 A 
HETATM   21  C34   D T1001       5.062  -3.498   6.240  1.00 13.54    -0.000 A 
HETATM   22  C35   D T1001       5.824  -4.528   6.823  1.00 13.00    -0.004 A 
ENDBRANCH  16  17
ENDBRANCH   5  16
ENDBRANCH   3   5
ENDBRANCH   2   3
ENDBRANCH   1   2
BRANCH   1  23
HETATM   23  C44   D T1001       6.425  -9.558   3.410  1.00  9.33     0.051 C 
BRANCH  23  24
HETATM   24  C45   D T1001       5.594 -10.772   3.038  1.00  9.99    -0.020 A 
HETATM   25  C48   D T1001       5.752 -12.007   3.651  1.00 10.42    -0.004 A 
HETATM   26  C49   D T1001       4.992 -13.116   3.275  1.00 12.60    -0.000 A 
HETATM   27  C50   D T1001       4.055 -12.971   2.239  1.00 12.24    -0.000 A 
HETATM   28  C51   D T1001       3.871 -11.756   1.616  1.00 13.41    -0.000 A 
HETATM   29  C52   D T1001       4.638 -10.663   2.018  1.00 11.46    -0.004 A 
ENDBRANCH  23  24
ENDBRANCH   1  23
BRANCH   1  30
HETATM   30  N58   D T1001       5.051  -7.473   3.690  1.00  8.28    -0.238 NA
HETATM   31  C18   D T1001       3.798  -7.161   4.152  1.00  8.88     0.274 C 
HETATM   32  O61   D T1001       3.295  -7.747   5.101  1.00 11.15    -0.268 OA
BRANCH  31  33
HETATM   33  C19   D T1001       3.101  -6.056   3.323  1.00  8.22     0.188 C 
BRANCH  33  34
HETATM   34  N20   D T1001       4.192  -5.138   2.911  1.00  9.06    -0.211 NA
HETATM   35  C21   D T1001       3.915  -3.781   2.879  1.00  7.77     0.343 C 
HETATM   36  N74   D T1001       4.967  -2.976   2.437  1.00  9.58    -0.294 N 
HETATM   37  O76   D T1001       2.790  -3.348   3.118  1.00  8.28    -0.245 OA
HETATM   38  C95   D T1001       6.265  -3.488   2.014  1.00 12.13     0.131 C 
BRANCH  36  39
HETATM   39  C75   D T1001       4.708  -1.546   2.278  1.00 11.33     0.152 C 
BRANCH  39  40
HETATM   40  C77   D T1001       5.123  -0.737   3.464  1.00 11.34     0.083 A 
HETATM   41  C80   D T1001       6.391  -0.242   3.652  1.00 12.89     0.049 A 
HETATM   42  S81   D T1001       6.445   0.633   5.117  1.00 18.25    -0.091 SA
HETATM   43  C82   D T1001       4.792   0.299   5.400  1.00 17.46     0.127 A 
HETATM   44  N83   D T1001       4.239  -0.430   4.482  1.00 15.61    -0.266 NA
BRANCH  43  45
HETATM   45  C85A  D T1001       4.166   0.859   6.657  0.65 20.47     0.030 C 
HETATM   46  C86A  D T1001       2.655   0.902   6.561  0.65 21.84     0.003 C 
HETATM   47  C90A  D T1001       4.660   0.107   7.899  0.65 25.77     0.003 C 
ENDBRANCH  43  45
BRANCH  43  48
HETATM   48  C85B  D T1001       4.113   0.829   6.636  0.35 20.27     0.030 C 
HETATM   49  C86B  D T1001       3.685  -0.276   7.593  0.35 19.26     0.003 C 
HETATM   50  C90B  D T1001       4.801   1.998   7.303  0.35 21.00     0.003 C 
ENDBRANCH  43  48
ENDBRANCH  39  40
ENDBRANCH  36  39
ENDBRANCH  33  34
BRANCH  33  51
HETATM   51  C62   D T1001       2.431  -6.742   2.106  1.00  9.40     0.032 C 
HETATM   52  C64   D T1001       0.991  -6.257   1.967  1.00 11.21     0.003 C 
HETATM   53  C68   D T1001       3.235  -6.393   0.835  1.00 11.67     0.003 C 
ENDBRANCH  33  51
ENDBRANCH  31  33
ENDBRANCH   1  30
TORSDOF 19
ENDMDL
