MODEL 1
REMARK VINA RESULT:      -9.1      0.000      0.000
REMARK  19 active torsions:
REMARK  status: ('A' for Active; 'I' for Inactive)
REMARK    1  A    between atoms: C2_2  and  C6_6 
REMARK    2  A    between atoms: C6_6  and  O7_7 
REMARK    3  A    between atoms: O7_7  and  C10_8 
REMARK       I    between atoms: C10_8  and  N11_10 
REMARK    4  A    between atoms: N11_10  and  C12_11 
REMARK    5  A    between atoms: C12_11  and  C13_12 
REMARK    6  A    between atoms: C12_11  and  C26_15 
REMARK    7  A    between atoms: C13_12  and  C14_13 
REMARK    8  A    between atoms: C14_13  and  C15_14 
REMARK    9  A    between atoms: C15_14  and  C44_23 
REMARK   10  A    between atoms: C15_14  and  N58_30 
REMARK   11  A    between atoms: C26_15  and  C28_16 
REMARK   12  A    between atoms: C44_23  and  C45_24 
REMARK       I    between atoms: N58_30  and  C18_33 
REMARK   13  A    between atoms: N20_31  and  C19_32 
REMARK       I    between atoms: N20_31  and  C21_38 
REMARK   14  A    between atoms: C19_32  and  C18_33 
REMARK   15  A    between atoms: C19_32  and  C62_35 
REMARK       I    between atoms: C21_38  and  N74_39 
REMARK   16  A    between atoms: N74_39  and  C75_40 
REMARK   17  A    between atoms: C75_40  and  C77_42 
REMARK   18  A    between atoms: C82_45  and  C85@A_47 
REMARK   19  A    between atoms: C82_45  and  C85@B_48 
ROOT
HETATM    1  C15   D T1001      -0.787   7.905   6.810  1.00  8.25     0.113 C 
ENDROOT
BRANCH   1   2
HETATM    2  C14   D T1001      -0.970   7.074   8.099  1.00  7.75     0.060 C 
BRANCH   2   3
HETATM    3  C13   D T1001      -0.536   5.613   7.968  1.00  7.71     0.177 C 
HETATM    4  O41   D T1001      -1.578   4.815   7.399  1.00  8.53    -0.221 OA
BRANCH   3   5
HETATM    5  C12   D T1001      -0.048   4.982   9.293  1.00  8.17     0.143 C 
BRANCH   5   6
HETATM    6  N11   D T1001       0.587   6.033  10.153  1.00  8.56    -0.211 NA
HETATM    7  C10   D T1001       1.946   6.173  10.088  1.00  9.54     0.384 C 
HETATM    8  O24   D T1001       2.731   5.673   9.302  1.00 10.40    -0.236 OA
BRANCH   7   9
HETATM    9  O7    D T1001       2.359   6.992  11.093  1.00 13.31    -0.278 OA
BRANCH   9  10
HETATM   10  C6    D T1001       2.270   6.339  12.386  1.00 21.32     0.188 C 
BRANCH  10  11
HETATM   11  C2    D T1001       2.926   7.112  13.452  1.00 19.63     0.058 A 
HETATM   12  C1    D T1001       3.898   6.683  14.349  1.00 18.64     0.104 A 
HETATM   13  N5    D T1001       4.342   7.638  15.258  1.00 24.03    -0.235 NA
HETATM   14  C4    D T1001       3.716   8.790  15.066  1.00 26.08     0.134 A 
HETATM   15  S3    D T1001       2.584   8.743  13.781  1.00 24.78    -0.066 SA
ENDBRANCH  10  11
ENDBRANCH   9  10
ENDBRANCH   7   9
ENDBRANCH   5   6
BRANCH   5  16
HETATM   16  C26   D T1001      -1.208   4.301  10.080  1.00  9.89     0.053 C 
BRANCH  16  17
HETATM   17  C28   D T1001      -1.089   2.798  10.136  1.00 10.53    -0.020 A 
HETATM   18  C31   D T1001      -0.060   2.165   9.416  1.00 10.31    -0.004 A 
HETATM   19  C32   D T1001       0.064   0.756   9.474  1.00 11.41    -0.000 A 
HETATM   20  C33   D T1001      -0.830   0.001  10.243  1.00 13.64    -0.000 A 
HETATM   21  C34   D T1001      -1.839   0.636  10.959  1.00 13.54    -0.000 A 
HETATM   22  C35   D T1001      -1.982   2.036  10.902  1.00 13.00    -0.004 A 
ENDBRANCH  16  17
ENDBRANCH   5  16
ENDBRANCH   3   5
ENDBRANCH   2   3
ENDBRANCH   1   2
BRANCH   1  23
HETATM   23  C44   D T1001      -0.096   9.264   7.059  1.00  9.33     0.051 C 
BRANCH  23  24
HETATM   24  C45   D T1001       1.420   9.285   7.124  1.00  9.99    -0.020 A 
HETATM   25  C48   D T1001       2.139  10.409   7.510  1.00 10.42    -0.004 A 
HETATM   26  C49   D T1001       3.535  10.413   7.540  1.00 12.60    -0.000 A 
HETATM   27  C50   D T1001       4.219   9.247   7.156  1.00 12.24    -0.000 A 
HETATM   28  C51   D T1001       3.534   8.115   6.776  1.00 13.41    -0.000 A 
HETATM   29  C52   D T1001       2.140   8.137   6.763  1.00 11.46    -0.004 A 
ENDBRANCH  23  24
ENDBRANCH   1  23
BRANCH   1  30
HETATM   30  N58   D T1001      -2.131   8.049   6.223  1.00  8.28    -0.238 NA
HETATM   31  C18   D T1001      -2.247   8.022   4.856  1.00  8.88     0.274 C 
HETATM   32  O61   D T1001      -1.272   7.902   4.128  1.00 11.15    -0.268 OA
BRANCH  31  33
HETATM   33  C19   D T1001      -3.702   8.212   4.366  1.00  8.22     0.188 C 
BRANCH  33  34
HETATM   34  N20   D T1001      -4.425   7.000   4.825  1.00  9.06    -0.211 NA
HETATM   35  C21   D T1001      -4.262   5.836   4.093  1.00  7.77     0.343 C 
HETATM   36  N74   D T1001      -5.005   4.745   4.548  1.00  9.58    -0.294 N 
HETATM   37  O76   D T1001      -3.595   5.812   3.060  1.00  8.28    -0.245 OA
HETATM   38  C95   D T1001      -5.912   4.795   5.689  1.00 12.13     0.131 C 
BRANCH  36  39
HETATM   39  C75   D T1001      -4.963   3.516   3.760  1.00 11.33     0.152 C 
BRANCH  39  40
HETATM   40  C77   D T1001      -4.952   2.278   4.599  1.00 11.34     0.083 A 
HETATM   41  C80   D T1001      -5.842   1.242   4.453  1.00 12.89     0.049 A 
HETATM   42  S81   D T1001      -5.482   0.021   5.590  1.00 18.25    -0.091 SA
HETATM   43  C82   D T1001      -4.174   0.944   6.194  1.00 17.46     0.127 A 
HETATM   44  N83   D T1001      -4.025   2.090   5.608  1.00 15.61    -0.266 NA
BRANCH  43  45
HETATM   45  C85A  D T1001      -3.357   0.353   7.321  0.65 20.47     0.030 C 
HETATM   46  C86A  D T1001      -4.230  -0.359   8.333  0.65 21.84     0.003 C 
HETATM   47  C90A  D T1001      -2.233  -0.537   6.778  0.65 25.77     0.003 C 
ENDBRANCH  43  45
BRANCH  43  48
HETATM   48  C85B  D T1001      -3.325   0.409   7.317  0.35 20.27     0.030 C 
HETATM   49  C86B  D T1001      -4.151  -0.168   8.459  0.35 19.26     0.003 C 
HETATM   50  C90B  D T1001      -2.159  -0.457   6.892  0.35 21.00     0.003 C 
ENDBRANCH  43  48
ENDBRANCH  39  40
ENDBRANCH  36  39
ENDBRANCH  33  34
BRANCH  33  51
HETATM   51  C62   D T1001      -4.251   9.501   5.028  1.00  9.40     0.032 C 
HETATM   52  C64   D T1001      -4.371  10.607   3.985  1.00 11.21     0.003 C 
HETATM   53  C68   D T1001      -5.634   9.193   5.639  1.00 11.67     0.003 C 
ENDBRANCH  33  51
ENDBRANCH  31  33
ENDBRANCH   1  30
TORSDOF 19
ENDMDL
MODEL 2
REMARK VINA RESULT:      -8.8      1.792      5.229
REMARK  19 active torsions:
REMARK  status: ('A' for Active; 'I' for Inactive)
REMARK    1  A    between atoms: C2_2  and  C6_6 
REMARK    2  A    between atoms: C6_6  and  O7_7 
REMARK    3  A    between atoms: O7_7  and  C10_8 
REMARK       I    between atoms: C10_8  and  N11_10 
REMARK    4  A    between atoms: N11_10  and  C12_11 
REMARK    5  A    between atoms: C12_11  and  C13_12 
REMARK    6  A    between atoms: C12_11  and  C26_15 
REMARK    7  A    between atoms: C13_12  and  C14_13 
REMARK    8  A    between atoms: C14_13  and  C15_14 
REMARK    9  A    between atoms: C15_14  and  C44_23 
REMARK   10  A    between atoms: C15_14  and  N58_30 
REMARK   11  A    between atoms: C26_15  and  C28_16 
REMARK   12  A    between atoms: C44_23  and  C45_24 
REMARK       I    between atoms: N58_30  and  C18_33 
REMARK   13  A    between atoms: N20_31  and  C19_32 
REMARK       I    between atoms: N20_31  and  C21_38 
REMARK   14  A    between atoms: C19_32  and  C18_33 
REMARK   15  A    between atoms: C19_32  and  C62_35 
REMARK       I    between atoms: C21_38  and  N74_39 
REMARK   16  A    between atoms: N74_39  and  C75_40 
REMARK   17  A    between atoms: C75_40  and  C77_42 
REMARK   18  A    between atoms: C82_45  and  C85@A_47 
REMARK   19  A    between atoms: C82_45  and  C85@B_48 
ROOT
HETATM    1  C15   D T1001      -0.267   5.350   8.244  1.00  8.25     0.113 C 
ENDROOT
BRANCH   1   2
HETATM    2  C14   D T1001       0.822   6.423   8.469  1.00  7.75     0.060 C 
BRANCH   2   3
HETATM    3  C13   D T1001       1.279   6.554   9.923  1.00  7.71     0.177 C 
HETATM    4  O41   D T1001       0.209   6.259  10.827  1.00  8.53    -0.221 OA
BRANCH   3   5
HETATM    5  C12   D T1001       1.897   7.930  10.265  1.00  8.17     0.143 C 
BRANCH   5   6
HETATM    6  N11   D T1001       3.004   7.756  11.262  1.00  8.56    -0.211 NA
HETATM    7  C10   D T1001       2.730   8.037  12.572  1.00  9.54     0.384 C 
HETATM    8  O24   D T1001       1.654   8.259  13.099  1.00 10.40    -0.236 OA
BRANCH   7   9
HETATM    9  O7    D T1001       3.892   8.053  13.278  1.00 13.31    -0.278 OA
BRANCH   9  10
HETATM   10  C6    D T1001       3.705   7.560  14.629  1.00 21.32     0.188 C 
BRANCH  10  11
HETATM   11  C2    D T1001       4.344   8.422  15.636  1.00 19.63     0.058 A 
HETATM   12  C1    D T1001       4.659   8.114  16.955  1.00 18.64     0.104 A 
HETATM   13  N5    D T1001       5.265   9.134  17.683  1.00 24.03    -0.235 NA
HETATM   14  C4    D T1001       5.411  10.217  16.934  1.00 26.08     0.134 A 
HETATM   15  S3    D T1001       4.826  10.024  15.336  1.00 24.78    -0.066 SA
ENDBRANCH  10  11
ENDBRANCH   9  10
ENDBRANCH   7   9
ENDBRANCH   5   6
BRANCH   5  16
HETATM   16  C26   D T1001       2.449   8.655   9.001  1.00  9.89     0.053 C 
BRANCH  16  17
HETATM   17  C28   D T1001       1.644   9.870   8.610  1.00 10.53    -0.020 A 
HETATM   18  C31   D T1001       1.765  11.046   9.373  1.00 10.31    -0.004 A 
HETATM   19  C32   D T1001       1.021  12.193   9.005  1.00 11.41    -0.000 A 
HETATM   20  C33   D T1001       0.175  12.155   7.891  1.00 13.64    -0.000 A 
HETATM   21  C34   D T1001       0.068  10.991   7.137  1.00 13.54    -0.000 A 
HETATM   22  C35   D T1001       0.792   9.839   7.497  1.00 13.00    -0.004 A 
ENDBRANCH  16  17
ENDBRANCH   5  16
ENDBRANCH   3   5
ENDBRANCH   2   3
ENDBRANCH   1   2
BRANCH   1  23
HETATM   23  C44   D T1001       0.283   3.908   8.300  1.00  9.33     0.051 C 
BRANCH  23  24
HETATM   24  C45   D T1001      -0.282   2.977   9.356  1.00  9.99    -0.020 A 
HETATM   25  C48   D T1001      -1.409   3.288  10.107  1.00 10.42    -0.004 A 
HETATM   26  C49   D T1001      -1.897   2.425  11.090  1.00 12.60    -0.000 A 
HETATM   27  C50   D T1001      -1.215   1.220  11.326  1.00 12.24    -0.000 A 
HETATM   28  C51   D T1001      -0.101   0.880  10.593  1.00 13.41    -0.000 A 
HETATM   29  C52   D T1001       0.360   1.757   9.612  1.00 11.46    -0.004 A 
ENDBRANCH  23  24
ENDBRANCH   1  23
BRANCH   1  30
HETATM   30  N58   D T1001      -0.893   5.671   6.950  1.00  8.28    -0.238 NA
HETATM   31  C18   D T1001      -2.213   6.045   6.944  1.00  8.88     0.274 C 
HETATM   32  O61   D T1001      -2.874   6.099   7.972  1.00 11.15    -0.268 OA
BRANCH  31  33
HETATM   33  C19   D T1001      -2.759   6.326   5.524  1.00  8.22     0.188 C 
BRANCH  33  34
HETATM   34  N20   D T1001      -4.095   5.679   5.490  1.00  9.06    -0.211 NA
HETATM   35  C21   D T1001      -4.159   4.354   5.094  1.00  7.77     0.343 C 
HETATM   36  N74   D T1001      -5.447   3.818   5.036  1.00  9.58    -0.294 N 
HETATM   37  O76   D T1001      -3.159   3.744   4.720  1.00  8.28    -0.245 OA
HETATM   38  C95   D T1001      -6.658   4.572   5.340  1.00 12.13     0.131 C 
BRANCH  36  39
HETATM   39  C75   D T1001      -5.596   2.458   4.524  1.00 11.33     0.152 C 
BRANCH  39  40
HETATM   40  C77   D T1001      -5.637   1.424   5.604  1.00 11.34     0.083 A 
HETATM   41  C80   D T1001      -6.762   0.715   5.947  1.00 12.89     0.049 A 
HETATM   42  S81   D T1001      -6.385  -0.370   7.211  1.00 18.25    -0.091 SA
HETATM   43  C82   D T1001      -4.762   0.172   7.215  1.00 17.46     0.127 A 
HETATM   44  N83   D T1001      -4.518   1.108   6.353  1.00 15.61    -0.266 NA
BRANCH  43  45
HETATM   45  C85A  D T1001      -3.809  -0.468   8.200  0.65 20.47     0.030 C 
HETATM   46  C86A  D T1001      -2.363  -0.194   7.840  0.65 21.84     0.003 C 
HETATM   47  C90A  D T1001      -4.150  -0.062   9.638  0.65 25.77     0.003 C 
ENDBRANCH  43  45
BRANCH  43  48
HETATM   48  C85B  D T1001      -3.766  -0.427   8.174  0.35 20.27     0.030 C 
HETATM   49  C86B  D T1001      -2.327  -0.063   7.835  0.35 19.26     0.003 C 
HETATM   50  C90B  D T1001      -4.114  -0.289   9.640  0.35 21.00     0.003 C 
ENDBRANCH  43  48
ENDBRANCH  39  40
ENDBRANCH  36  39
ENDBRANCH  33  34
BRANCH  33  51
HETATM   51  C62   D T1001      -2.856   7.864   5.359  1.00  9.40     0.032 C 
HETATM   52  C64   D T1001      -1.562   8.402   4.756  1.00 11.21     0.003 C 
HETATM   53  C68   D T1001      -4.049   8.190   4.436  1.00 11.67     0.003 C 
ENDBRANCH  33  51
ENDBRANCH  31  33
ENDBRANCH   1  30
TORSDOF 19
ENDMDL
MODEL 3
REMARK VINA RESULT:      -8.7      2.522      6.628
REMARK  19 active torsions:
REMARK  status: ('A' for Active; 'I' for Inactive)
REMARK    1  A    between atoms: C2_2  and  C6_6 
REMARK    2  A    between atoms: C6_6  and  O7_7 
REMARK    3  A    between atoms: O7_7  and  C10_8 
REMARK       I    between atoms: C10_8  and  N11_10 
REMARK    4  A    between atoms: N11_10  and  C12_11 
REMARK    5  A    between atoms: C12_11  and  C13_12 
REMARK    6  A    between atoms: C12_11  and  C26_15 
REMARK    7  A    between atoms: C13_12  and  C14_13 
REMARK    8  A    between atoms: C14_13  and  C15_14 
REMARK    9  A    between atoms: C15_14  and  C44_23 
REMARK   10  A    between atoms: C15_14  and  N58_30 
REMARK   11  A    between atoms: C26_15  and  C28_16 
REMARK   12  A    between atoms: C44_23  and  C45_24 
REMARK       I    between atoms: N58_30  and  C18_33 
REMARK   13  A    between atoms: N20_31  and  C19_32 
REMARK       I    between atoms: N20_31  and  C21_38 
REMARK   14  A    between atoms: C19_32  and  C18_33 
REMARK   15  A    between atoms: C19_32  and  C62_35 
REMARK       I    between atoms: C21_38  and  N74_39 
REMARK   16  A    between atoms: N74_39  and  C75_40 
REMARK   17  A    between atoms: C75_40  and  C77_42 
REMARK   18  A    between atoms: C82_45  and  C85@A_47 
REMARK   19  A    between atoms: C82_45  and  C85@B_48 
ROOT
HETATM    1  C15   D T1001      -4.867   6.736   6.101  1.00  8.25     0.113 C 
ENDROOT
BRANCH   1   2
HETATM    2  C14   D T1001      -3.734   6.394   7.094  1.00  7.75     0.060 C 
BRANCH   2   3
HETATM    3  C13   D T1001      -2.368   6.189   6.437  1.00  7.71     0.177 C 
HETATM    4  O41   D T1001      -1.941   4.828   6.551  1.00  8.53    -0.221 OA
BRANCH   3   5
HETATM    5  C12   D T1001      -1.267   7.136   6.969  1.00  8.17     0.143 C 
BRANCH   5   6
HETATM    6  N11   D T1001      -0.041   6.345   7.317  1.00  8.56    -0.211 NA
HETATM    7  C10   D T1001       0.397   6.388   8.612  1.00  9.54     0.384 C 
HETATM    8  O24   D T1001      -0.156   6.852   9.593  1.00 10.40    -0.236 OA
BRANCH   7   9
HETATM    9  O7    D T1001       1.629   5.818   8.685  1.00 13.31    -0.278 OA
BRANCH   9  10
HETATM   10  C6    D T1001       2.597   6.711   9.296  1.00 21.32     0.188 C 
BRANCH  10  11
HETATM   11  C2    D T1001       2.991   7.810   8.402  1.00 19.63     0.058 A 
HETATM   12  C1    D T1001       3.764   7.744   7.248  1.00 18.64     0.104 A 
HETATM   13  N5    D T1001       3.978   8.955   6.596  1.00 24.03    -0.235 NA
HETATM   14  C4    D T1001       3.379   9.944   7.243  1.00 26.08     0.134 A 
HETATM   15  S3    D T1001       2.541   9.431   8.646  1.00 24.78    -0.066 SA
ENDBRANCH  10  11
ENDBRANCH   9  10
ENDBRANCH   7   9
ENDBRANCH   5   6
BRANCH   5  16
HETATM   16  C26   D T1001      -0.894   8.241   5.935  1.00  9.89     0.053 C 
BRANCH  16  17
HETATM   17  C28   D T1001      -2.082   9.038   5.458  1.00 10.53    -0.020 A 
HETATM   18  C31   D T1001      -2.708   9.932   6.346  1.00 10.31    -0.004 A 
HETATM   19  C32   D T1001      -3.816  10.692   5.901  1.00 11.41    -0.000 A 
HETATM   20  C33   D T1001      -4.283  10.555   4.589  1.00 13.64    -0.000 A 
HETATM   21  C34   D T1001      -3.653   9.675   3.714  1.00 13.54    -0.000 A 
HETATM   22  C35   D T1001      -2.557   8.904   4.146  1.00 13.00    -0.004 A 
ENDBRANCH  16  17
ENDBRANCH   5  16
ENDBRANCH   3   5
ENDBRANCH   2   3
ENDBRANCH   1   2
BRANCH   1  23
HETATM   23  C44   D T1001      -5.971   7.618   6.724  1.00  9.33     0.051 C 
BRANCH  23  24
HETATM   24  C45   D T1001      -6.801   8.478   5.789  1.00  9.99    -0.020 A 
HETATM   25  C48   D T1001      -6.993   8.162   4.450  1.00 10.42    -0.004 A 
HETATM   26  C49   D T1001      -7.742   8.980   3.602  1.00 12.60    -0.000 A 
HETATM   27  C50   D T1001      -8.300  10.158   4.125  1.00 12.24    -0.000 A 
HETATM   28  C51   D T1001      -8.134  10.495   5.450  1.00 13.41    -0.000 A 
HETATM   29  C52   D T1001      -7.388   9.655   6.276  1.00 11.46    -0.004 A 
ENDBRANCH  23  24
ENDBRANCH   1  23
BRANCH   1  30
HETATM   30  N58   D T1001      -5.380   5.447   5.607  1.00  8.28    -0.238 NA
HETATM   31  C18   D T1001      -5.062   5.071   4.326  1.00  8.88     0.274 C 
HETATM   32  O61   D T1001      -4.389   5.782   3.593  1.00 11.15    -0.268 OA
BRANCH  31  33
HETATM   33  C19   D T1001      -5.684   3.714   3.919  1.00  8.22     0.188 C 
BRANCH  33  34
HETATM   34  N20   D T1001      -5.770   2.935   5.179  1.00  9.06    -0.211 NA
HETATM   35  C21   D T1001      -4.871   1.897   5.357  1.00  7.77     0.343 C 
HETATM   36  N74   D T1001      -5.035   1.173   6.540  1.00  9.58    -0.294 N 
HETATM   37  O76   D T1001      -4.068   1.583   4.481  1.00  8.28    -0.245 OA
HETATM   38  C95   D T1001      -6.075   1.445   7.525  1.00 12.13     0.131 C 
BRANCH  36  39
HETATM   39  C75   D T1001      -4.189  -0.001   6.742  1.00 11.33     0.152 C 
BRANCH  39  40
HETATM   40  C77   D T1001      -2.998   0.273   7.604  1.00 11.34     0.083 A 
HETATM   41  C80   D T1001      -1.799  -0.389   7.491  1.00 12.89     0.049 A 
HETATM   42  S81   D T1001      -0.702   0.227   8.646  1.00 18.25    -0.091 SA
HETATM   43  C82   D T1001      -1.886   1.325   9.211  1.00 17.46     0.127 A 
HETATM   44  N83   D T1001      -3.025   1.230   8.601  1.00 15.61    -0.266 NA
BRANCH  43  45
HETATM   45  C85A  D T1001      -1.498   2.259  10.336  0.65 20.47     0.030 C 
HETATM   46  C86A  D T1001      -1.698   3.711   9.954  0.65 21.84     0.003 C 
HETATM   47  C90A  D T1001      -2.220   1.883  11.636  0.65 25.77     0.003 C 
ENDBRANCH  43  45
BRANCH  43  48
HETATM   48  C85B  D T1001      -1.560   2.279  10.331  0.35 20.27     0.030 C 
HETATM   49  C86B  D T1001      -2.024   1.774  11.690  0.35 19.26     0.003 C 
HETATM   50  C90B  D T1001      -0.152   2.835  10.320  0.35 21.00     0.003 C 
ENDBRANCH  43  48
ENDBRANCH  39  40
ENDBRANCH  36  39
ENDBRANCH  33  34
BRANCH  33  51
HETATM   51  C62   D T1001      -7.083   4.005   3.320  1.00  9.40     0.032 C 
HETATM   52  C64   D T1001      -6.948   4.391   1.851  1.00 11.21     0.003 C 
HETATM   53  C68   D T1001      -7.955   2.740   3.460  1.00 11.67     0.003 C 
ENDBRANCH  33  51
ENDBRANCH  31  33
ENDBRANCH   1  30
TORSDOF 19
ENDMDL
MODEL 4
REMARK VINA RESULT:      -8.4      2.392      6.256
REMARK  19 active torsions:
REMARK  status: ('A' for Active; 'I' for Inactive)
REMARK    1  A    between atoms: C2_2  and  C6_6 
REMARK    2  A    between atoms: C6_6  and  O7_7 
REMARK    3  A    between atoms: O7_7  and  C10_8 
REMARK       I    between atoms: C10_8  and  N11_10 
REMARK    4  A    between atoms: N11_10  and  C12_11 
REMARK    5  A    between atoms: C12_11  and  C13_12 
REMARK    6  A    between atoms: C12_11  and  C26_15 
REMARK    7  A    between atoms: C13_12  and  C14_13 
REMARK    8  A    between atoms: C14_13  and  C15_14 
REMARK    9  A    between atoms: C15_14  and  C44_23 
REMARK   10  A    between atoms: C15_14  and  N58_30 
REMARK   11  A    between atoms: C26_15  and  C28_16 
REMARK   12  A    between atoms: C44_23  and  C45_24 
REMARK       I    between atoms: N58_30  and  C18_33 
REMARK   13  A    between atoms: N20_31  and  C19_32 
REMARK       I    between atoms: N20_31  and  C21_38 
REMARK   14  A    between atoms: C19_32  and  C18_33 
REMARK   15  A    between atoms: C19_32  and  C62_35 
REMARK       I    between atoms: C21_38  and  N74_39 
REMARK   16  A    between atoms: N74_39  and  C75_40 
REMARK   17  A    between atoms: C75_40  and  C77_42 
REMARK   18  A    between atoms: C82_45  and  C85@A_47 
REMARK   19  A    between atoms: C82_45  and  C85@B_48 
ROOT
HETATM    1  C15   D T1001      -5.284   6.650   6.003  1.00  8.25     0.113 C 
ENDROOT
BRANCH   1   2
HETATM    2  C14   D T1001      -4.276   6.201   7.084  1.00  7.75     0.060 C 
BRANCH   2   3
HETATM    3  C13   D T1001      -2.904   5.805   6.535  1.00  7.71     0.177 C 
HETATM    4  O41   D T1001      -2.666   4.405   6.707  1.00  8.53    -0.221 OA
BRANCH   3   5
HETATM    5  C12   D T1001      -1.731   6.619   7.128  1.00  8.17     0.143 C 
BRANCH   5   6
HETATM    6  N11   D T1001      -0.671   5.687   7.636  1.00  8.56    -0.211 NA
HETATM    7  C10   D T1001      -0.699   5.354   8.962  1.00  9.54     0.384 C 
HETATM    8  O24   D T1001      -1.566   5.572   9.789  1.00 10.40    -0.236 OA
BRANCH   7   9
HETATM    9  O7    D T1001       0.453   4.707   9.284  1.00 13.31    -0.278 OA
BRANCH   9  10
HETATM   10  C6    D T1001       1.599   5.597   9.233  1.00 21.32     0.188 C 
BRANCH  10  11
HETATM   11  C2    D T1001       1.701   6.450  10.427  1.00 19.63     0.058 A 
HETATM   12  C1    D T1001       1.699   6.062  11.762  1.00 18.64     0.104 A 
HETATM   13  N5    D T1001       1.811   7.094  12.689  1.00 24.03    -0.235 NA
HETATM   14  C4    D T1001       1.894   8.265  12.074  1.00 26.08     0.134 A 
HETATM   15  S3    D T1001       1.846   8.142  10.366  1.00 24.78    -0.066 SA
ENDBRANCH  10  11
ENDBRANCH   9  10
ENDBRANCH   7   9
ENDBRANCH   5   6
BRANCH   5  16
HETATM   16  C26   D T1001      -1.106   7.594   6.085  1.00  9.89     0.053 C 
BRANCH  16  17
HETATM   17  C28   D T1001      -2.106   8.557   5.495  1.00 10.53    -0.020 A 
HETATM   18  C31   D T1001      -2.459   8.433   4.139  1.00 10.31    -0.004 A 
HETATM   19  C32   D T1001      -3.406   9.326   3.582  1.00 11.41    -0.000 A 
HETATM   20  C33   D T1001      -3.985  10.323   4.376  1.00 13.64    -0.000 A 
HETATM   21  C34   D T1001      -3.637  10.434   5.719  1.00 13.54    -0.000 A 
HETATM   22  C35   D T1001      -2.688   9.560   6.283  1.00 13.00    -0.004 A 
ENDBRANCH  16  17
ENDBRANCH   5  16
ENDBRANCH   3   5
ENDBRANCH   2   3
ENDBRANCH   1   2
BRANCH   1  23
HETATM   23  C44   D T1001      -6.351   7.628   6.539  1.00  9.33     0.051 C 
BRANCH  23  24
HETATM   24  C45   D T1001      -6.946   8.630   5.567  1.00  9.99    -0.020 A 
HETATM   25  C48   D T1001      -7.369   9.894   5.956  1.00 10.42    -0.004 A 
HETATM   26  C49   D T1001      -7.935  10.791   5.048  1.00 12.60    -0.000 A 
HETATM   27  C50   D T1001      -8.087  10.388   3.710  1.00 12.24    -0.000 A 
HETATM   28  C51   D T1001      -7.669   9.144   3.293  1.00 13.41    -0.000 A 
HETATM   29  C52   D T1001      -7.100   8.272   4.220  1.00 11.46    -0.004 A 
ENDBRANCH  23  24
ENDBRANCH   1  23
BRANCH   1  30
HETATM   30  N58   D T1001      -5.868   5.415   5.453  1.00  8.28    -0.238 NA
HETATM   31  C18   D T1001      -5.494   5.026   4.192  1.00  8.88     0.274 C 
HETATM   32  O61   D T1001      -4.712   5.684   3.519  1.00 11.15    -0.268 OA
BRANCH  31  33
HETATM   33  C19   D T1001      -6.198   3.733   3.719  1.00  8.22     0.188 C 
BRANCH  33  34
HETATM   34  N20   D T1001      -6.317   2.892   4.936  1.00  9.06    -0.211 NA
HETATM   35  C21   D T1001      -5.373   1.896   5.126  1.00  7.77     0.343 C 
HETATM   36  N74   D T1001      -5.567   1.109   6.263  1.00  9.58    -0.294 N 
HETATM   37  O76   D T1001      -4.501   1.667   4.290  1.00  8.28    -0.245 OA
HETATM   38  C95   D T1001      -6.680   1.278   7.191  1.00 12.13     0.131 C 
BRANCH  36  39
HETATM   39  C75   D T1001      -4.670  -0.025   6.468  1.00 11.33     0.152 C 
BRANCH  39  40
HETATM   40  C77   D T1001      -3.956   0.018   7.781  1.00 11.34     0.083 A 
HETATM   41  C80   D T1001      -4.209  -0.841   8.822  1.00 12.89     0.049 A 
HETATM   42  S81   D T1001      -3.176  -0.468  10.129  1.00 18.25    -0.091 SA
HETATM   43  C82   D T1001      -2.465   0.801   9.228  1.00 17.46     0.127 A 
HETATM   44  N83   D T1001      -2.972   0.953   8.045  1.00 15.61    -0.266 NA
BRANCH  43  45
HETATM   45  C85A  D T1001      -1.360   1.597   9.885  0.65 20.47     0.030 C 
HETATM   46  C86A  D T1001      -1.809   2.200  11.199  0.65 21.84     0.003 C 
HETATM   47  C90A  D T1001      -0.084   0.757  10.023  0.65 25.77     0.003 C 
ENDBRANCH  43  45
BRANCH  43  48
HETATM   48  C85B  D T1001      -1.360   1.630   9.829  0.35 20.27     0.030 C 
HETATM   49  C86B  D T1001      -1.721   2.190  11.198  0.35 19.26     0.003 C 
HETATM   50  C90B  D T1001       0.023   1.023   9.749  0.35 21.00     0.003 C 
ENDBRANCH  43  48
ENDBRANCH  39  40
ENDBRANCH  36  39
ENDBRANCH  33  34
BRANCH  33  51
HETATM   51  C62   D T1001      -7.585   4.137   3.157  1.00  9.40     0.032 C 
HETATM   52  C64   D T1001      -7.438   4.624   1.719  1.00 11.21     0.003 C 
HETATM   53  C68   D T1001      -8.519   2.910   3.211  1.00 11.67     0.003 C 
ENDBRANCH  33  51
ENDBRANCH  31  33
ENDBRANCH   1  30
TORSDOF 19
ENDMDL
MODEL 5
REMARK VINA RESULT:      -8.3      1.498      5.187
REMARK  19 active torsions:
REMARK  status: ('A' for Active; 'I' for Inactive)
REMARK    1  A    between atoms: C2_2  and  C6_6 
REMARK    2  A    between atoms: C6_6  and  O7_7 
REMARK    3  A    between atoms: O7_7  and  C10_8 
REMARK       I    between atoms: C10_8  and  N11_10 
REMARK    4  A    between atoms: N11_10  and  C12_11 
REMARK    5  A    between atoms: C12_11  and  C13_12 
REMARK    6  A    between atoms: C12_11  and  C26_15 
REMARK    7  A    between atoms: C13_12  and  C14_13 
REMARK    8  A    between atoms: C14_13  and  C15_14 
REMARK    9  A    between atoms: C15_14  and  C44_23 
REMARK   10  A    between atoms: C15_14  and  N58_30 
REMARK   11  A    between atoms: C26_15  and  C28_16 
REMARK   12  A    between atoms: C44_23  and  C45_24 
REMARK       I    between atoms: N58_30  and  C18_33 
REMARK   13  A    between atoms: N20_31  and  C19_32 
REMARK       I    between atoms: N20_31  and  C21_38 
REMARK   14  A    between atoms: C19_32  and  C18_33 
REMARK   15  A    between atoms: C19_32  and  C62_35 
REMARK       I    between atoms: C21_38  and  N74_39 
REMARK   16  A    between atoms: N74_39  and  C75_40 
REMARK   17  A    between atoms: C75_40  and  C77_42 
REMARK   18  A    between atoms: C82_45  and  C85@A_47 
REMARK   19  A    between atoms: C82_45  and  C85@B_48 
ROOT
HETATM    1  C15   D T1001      -1.538   4.948   9.252  1.00  8.25     0.113 C 
ENDROOT
BRANCH   1   2
HETATM    2  C14   D T1001      -0.643   5.864  10.117  1.00  7.75     0.060 C 
BRANCH   2   3
HETATM    3  C13   D T1001       0.838   5.482  10.106  1.00  7.71     0.177 C 
HETATM    4  O41   D T1001       1.139   4.558  11.156  1.00  8.53    -0.221 OA
BRANCH   3   5
HETATM    5  C12   D T1001       1.798   6.693  10.175  1.00  8.17     0.143 C 
BRANCH   5   6
HETATM    6  N11   D T1001       2.455   6.745  11.522  1.00  8.56    -0.211 NA
HETATM    7  C10   D T1001       2.003   7.678  12.414  1.00  9.54     0.384 C 
HETATM    8  O24   D T1001       1.016   8.388  12.346  1.00 10.40    -0.236 OA
BRANCH   7   9
HETATM    9  O7    D T1001       2.858   7.736  13.470  1.00 13.31    -0.278 OA
BRANCH   9  10
HETATM   10  C6    D T1001       2.729   8.987  14.195  1.00 21.32     0.188 C 
BRANCH  10  11
HETATM   11  C2    D T1001       3.730   9.123  15.264  1.00 19.63     0.058 A 
HETATM   12  C1    D T1001       3.830   8.395  16.444  1.00 18.64     0.104 A 
HETATM   13  N5    D T1001       4.888   8.743  17.279  1.00 24.03    -0.235 NA
HETATM   14  C4    D T1001       5.593   9.732  16.749  1.00 26.08     0.134 A 
HETATM   15  S3    D T1001       4.996  10.256  15.231  1.00 24.78    -0.066 SA
ENDBRANCH  10  11
ENDBRANCH   9  10
ENDBRANCH   7   9
ENDBRANCH   5   6
BRANCH   5  16
HETATM   16  C26   D T1001       2.894   6.636   9.067  1.00  9.89     0.053 C 
BRANCH  16  17
HETATM   17  C28   D T1001       3.073   7.944   8.338  1.00 10.53    -0.020 A 
HETATM   18  C31   D T1001       2.558   9.122   8.908  1.00 10.31    -0.004 A 
HETATM   19  C32   D T1001       2.734  10.355   8.234  1.00 11.41    -0.000 A 
HETATM   20  C33   D T1001       3.416  10.399   7.013  1.00 13.64    -0.000 A 
HETATM   21  C34   D T1001       3.931   9.230   6.460  1.00 13.54    -0.000 A 
HETATM   22  C35   D T1001       3.754   7.995   7.113  1.00 13.00    -0.004 A 
ENDBRANCH  16  17
ENDBRANCH   5  16
ENDBRANCH   3   5
ENDBRANCH   2   3
ENDBRANCH   1   2
BRANCH   1  23
HETATM   23  C44   D T1001      -0.789   3.713   8.705  1.00  9.33     0.051 C 
BRANCH  23  24
HETATM   24  C45   D T1001      -1.046   2.376   9.374  1.00  9.99    -0.020 A 
HETATM   25  C48   D T1001      -0.202   1.284   9.220  1.00 10.42    -0.004 A 
HETATM   26  C49   D T1001      -0.471   0.056   9.826  1.00 12.60    -0.000 A 
HETATM   27  C50   D T1001      -1.636  -0.071  10.601  1.00 12.24    -0.000 A 
HETATM   28  C51   D T1001      -2.489   0.996  10.779  1.00 13.41    -0.000 A 
HETATM   29  C52   D T1001      -2.191   2.213  10.168  1.00 11.46    -0.004 A 
ENDBRANCH  23  24
ENDBRANCH   1  23
BRANCH   1  30
HETATM   30  N58   D T1001      -2.084   5.802   8.184  1.00  8.28    -0.238 NA
HETATM   31  C18   D T1001      -1.290   6.066   7.096  1.00  8.88     0.274 C 
HETATM   32  O61   D T1001      -0.152   5.628   7.006  1.00 11.15    -0.268 OA
BRANCH  31  33
HETATM   33  C19   D T1001      -1.966   6.997   6.062  1.00  8.22     0.188 C 
BRANCH  33  34
HETATM   34  N20   D T1001      -3.352   6.482   5.928  1.00  9.06    -0.211 NA
HETATM   35  C21   D T1001      -3.558   5.398   5.091  1.00  7.77     0.343 C 
HETATM   36  N74   D T1001      -4.889   4.992   4.970  1.00  9.58    -0.294 N 
HETATM   37  O76   D T1001      -2.644   4.912   4.429  1.00  8.28    -0.245 OA
HETATM   38  C95   D T1001      -6.006   5.649   5.641  1.00 12.13     0.131 C 
BRANCH  36  39
HETATM   39  C75   D T1001      -5.192   3.923   4.023  1.00 11.33     0.152 C 
BRANCH  39  40
HETATM   40  C77   D T1001      -5.132   2.560   4.635  1.00 11.34     0.083 A 
HETATM   41  C80   D T1001      -5.812   1.469   4.150  1.00 12.89     0.049 A 
HETATM   42  S81   D T1001      -5.466   0.108   5.122  1.00 18.25    -0.091 SA
HETATM   43  C82   D T1001      -4.442   1.054   6.113  1.00 17.46     0.127 A 
HETATM   44  N83   D T1001      -4.375   2.300   5.762  1.00 15.61    -0.266 NA
BRANCH  43  45
HETATM   45  C85A  D T1001      -3.749   0.365   7.268  0.65 20.47     0.030 C 
HETATM   46  C86A  D T1001      -4.717  -0.456   8.094  0.65 21.84     0.003 C 
HETATM   47  C90A  D T1001      -2.546  -0.450   6.780  0.65 25.77     0.003 C 
ENDBRANCH  43  45
BRANCH  43  48
HETATM   48  C85B  D T1001      -3.725   0.425   7.279  0.35 20.27     0.030 C 
HETATM   49  C86B  D T1001      -4.672  -0.272   8.248  0.35 19.26     0.003 C 
HETATM   50  C90B  D T1001      -2.494  -0.380   6.926  0.35 21.00     0.003 C 
ENDBRANCH  43  48
ENDBRANCH  39  40
ENDBRANCH  36  39
ENDBRANCH  33  34
BRANCH  33  51
HETATM   51  C62   D T1001      -1.936   8.435   6.640  1.00  9.40     0.032 C 
HETATM   52  C64   D T1001      -0.506   8.966   6.628  1.00 11.21     0.003 C 
HETATM   53  C68   D T1001      -2.845   9.335   5.778  1.00 11.67     0.003 C 
ENDBRANCH  33  51
ENDBRANCH  31  33
ENDBRANCH   1  30
TORSDOF 19
ENDMDL
MODEL 6
REMARK VINA RESULT:      -8.2      2.256      7.208
REMARK  19 active torsions:
REMARK  status: ('A' for Active; 'I' for Inactive)
REMARK    1  A    between atoms: C2_2  and  C6_6 
REMARK    2  A    between atoms: C6_6  and  O7_7 
REMARK    3  A    between atoms: O7_7  and  C10_8 
REMARK       I    between atoms: C10_8  and  N11_10 
REMARK    4  A    between atoms: N11_10  and  C12_11 
REMARK    5  A    between atoms: C12_11  and  C13_12 
REMARK    6  A    between atoms: C12_11  and  C26_15 
REMARK    7  A    between atoms: C13_12  and  C14_13 
REMARK    8  A    between atoms: C14_13  and  C15_14 
REMARK    9  A    between atoms: C15_14  and  C44_23 
REMARK   10  A    between atoms: C15_14  and  N58_30 
REMARK   11  A    between atoms: C26_15  and  C28_16 
REMARK   12  A    between atoms: C44_23  and  C45_24 
REMARK       I    between atoms: N58_30  and  C18_33 
REMARK   13  A    between atoms: N20_31  and  C19_32 
REMARK       I    between atoms: N20_31  and  C21_38 
REMARK   14  A    between atoms: C19_32  and  C18_33 
REMARK   15  A    between atoms: C19_32  and  C62_35 
REMARK       I    between atoms: C21_38  and  N74_39 
REMARK   16  A    between atoms: N74_39  and  C75_40 
REMARK   17  A    between atoms: C75_40  and  C77_42 
REMARK   18  A    between atoms: C82_45  and  C85@A_47 
REMARK   19  A    between atoms: C82_45  and  C85@B_48 
ROOT
HETATM    1  C15   D T1001      -3.401   3.428   7.458  1.00  8.25     0.113 C 
ENDROOT
BRANCH   1   2
HETATM    2  C14   D T1001      -2.058   4.059   7.887  1.00  7.75     0.060 C 
BRANCH   2   3
HETATM    3  C13   D T1001      -1.813   4.042   9.397  1.00  7.71     0.177 C 
HETATM    4  O41   D T1001      -2.104   5.316   9.980  1.00  8.53    -0.221 OA
BRANCH   3   5
HETATM    5  C12   D T1001      -0.389   3.589   9.797  1.00  8.17     0.143 C 
BRANCH   5   6
HETATM    6  N11   D T1001       0.358   4.738  10.406  1.00  8.56    -0.211 NA
HETATM    7  C10   D T1001       1.608   5.012   9.923  1.00  9.54     0.384 C 
HETATM    8  O24   D T1001       2.165   4.559   8.939  1.00 10.40    -0.236 OA
BRANCH   7   9
HETATM    9  O7    D T1001       2.214   5.914  10.740  1.00 13.31    -0.278 OA
BRANCH   9  10
HETATM   10  C6    D T1001       1.250   6.634  11.552  1.00 21.32     0.188 C 
BRANCH  10  11
HETATM   11  C2    D T1001       1.889   7.427  12.613  1.00 19.63     0.058 A 
HETATM   12  C1    D T1001       1.682   8.765  12.927  1.00 18.64     0.104 A 
HETATM   13  N5    D T1001       2.432   9.256  13.992  1.00 24.03    -0.235 NA
HETATM   14  C4    D T1001       3.211   8.307  14.490  1.00 26.08     0.134 A 
HETATM   15  S3    D T1001       3.049   6.803  13.687  1.00 24.78    -0.066 SA
ENDBRANCH  10  11
ENDBRANCH   9  10
ENDBRANCH   7   9
ENDBRANCH   5   6
BRANCH   5  16
HETATM   16  C26   D T1001      -0.414   2.398  10.802  1.00  9.89     0.053 C 
BRANCH  16  17
HETATM   17  C28   D T1001      -1.405   1.323  10.429  1.00 10.53    -0.020 A 
HETATM   18  C31   D T1001      -2.648   1.281  11.087  1.00 10.31    -0.004 A 
HETATM   19  C32   D T1001      -3.587   0.282  10.733  1.00 11.41    -0.000 A 
HETATM   20  C33   D T1001      -3.281  -0.652   9.738  1.00 13.64    -0.000 A 
HETATM   21  C34   D T1001      -2.053  -0.597   9.086  1.00 13.54    -0.000 A 
HETATM   22  C35   D T1001      -1.104   0.383   9.435  1.00 13.00    -0.004 A 
ENDBRANCH  16  17
ENDBRANCH   5  16
ENDBRANCH   3   5
ENDBRANCH   2   3
ENDBRANCH   1   2
BRANCH   1  23
HETATM   23  C44   D T1001      -3.273   1.937   7.076  1.00  9.33     0.051 C 
BRANCH  23  24
HETATM   24  C45   D T1001      -4.525   1.216   6.611  1.00  9.99    -0.020 A 
HETATM   25  C48   D T1001      -5.648   1.067   7.414  1.00 10.42    -0.004 A 
HETATM   26  C49   D T1001      -6.781   0.380   6.973  1.00 12.60    -0.000 A 
HETATM   27  C50   D T1001      -6.766  -0.184   5.687  1.00 12.24    -0.000 A 
HETATM   28  C51   D T1001      -5.671  -0.046   4.864  1.00 13.41    -0.000 A 
HETATM   29  C52   D T1001      -4.557   0.653   5.327  1.00 11.46    -0.004 A 
ENDBRANCH  23  24
ENDBRANCH   1  23
BRANCH   1  30
HETATM   30  N58   D T1001      -3.906   4.258   6.351  1.00  8.28    -0.238 NA
HETATM   31  C18   D T1001      -5.175   4.769   6.452  1.00  8.88     0.274 C 
HETATM   32  O61   D T1001      -5.889   4.539   7.419  1.00 11.15    -0.268 OA
BRANCH  31  33
HETATM   33  C19   D T1001      -5.598   5.597   5.216  1.00  8.22     0.188 C 
BRANCH  33  34
HETATM   34  N20   D T1001      -4.374   6.329   4.805  1.00  9.06    -0.211 NA
HETATM   35  C21   D T1001      -3.969   7.397   5.588  1.00  7.77     0.343 C 
HETATM   36  N74   D T1001      -2.840   8.074   5.122  1.00  9.58    -0.294 N 
HETATM   37  O76   D T1001      -4.627   7.773   6.555  1.00  8.28    -0.245 OA
HETATM   38  C95   D T1001      -2.128   7.726   3.897  1.00 12.13     0.131 C 
BRANCH  36  39
HETATM   39  C75   D T1001      -2.420   9.273   5.841  1.00 11.33     0.152 C 
BRANCH  39  40
HETATM   40  C77   D T1001      -1.140   9.093   6.592  1.00 11.34     0.083 A 
HETATM   41  C80   D T1001      -0.749   7.910   7.172  1.00 12.89     0.049 A 
HETATM   42  S81   D T1001       0.773   8.121   7.917  1.00 18.25    -0.091 SA
HETATM   43  C82   D T1001       0.811   9.757   7.419  1.00 17.46     0.127 A 
HETATM   44  N83   D T1001      -0.242  10.131   6.763  1.00 15.61    -0.266 NA
BRANCH  43  45
HETATM   45  C85A  D T1001       2.025  10.578   7.792  0.65 20.47     0.030 C 
HETATM   46  C86A  D T1001       2.142  10.757   9.291  0.65 21.84     0.003 C 
HETATM   47  C90A  D T1001       3.296   9.996   7.164  0.65 25.77     0.003 C 
ENDBRANCH  43  45
BRANCH  43  48
HETATM   48  C85B  D T1001       1.993  10.625   7.762  0.35 20.27     0.030 C 
HETATM   49  C86B  D T1001       2.046  10.994   9.239  0.35 19.26     0.003 C 
HETATM   50  C90B  D T1001       3.317  10.176   7.184  0.35 21.00     0.003 C 
ENDBRANCH  43  48
ENDBRANCH  39  40
ENDBRANCH  36  39
ENDBRANCH  33  34
BRANCH  33  51
HETATM   51  C62   D T1001      -6.069   4.599   4.128  1.00  9.40     0.032 C 
HETATM   52  C64   D T1001      -4.860   3.947   3.465  1.00 11.21     0.003 C 
HETATM   53  C68   D T1001      -6.956   3.524   4.791  1.00 11.67     0.003 C 
ENDBRANCH  33  51
ENDBRANCH  31  33
ENDBRANCH   1  30
TORSDOF 19
ENDMDL
MODEL 7
REMARK VINA RESULT:      -8.1      2.449      5.109
REMARK  19 active torsions:
REMARK  status: ('A' for Active; 'I' for Inactive)
REMARK    1  A    between atoms: C2_2  and  C6_6 
REMARK    2  A    between atoms: C6_6  and  O7_7 
REMARK    3  A    between atoms: O7_7  and  C10_8 
REMARK       I    between atoms: C10_8  and  N11_10 
REMARK    4  A    between atoms: N11_10  and  C12_11 
REMARK    5  A    between atoms: C12_11  and  C13_12 
REMARK    6  A    between atoms: C12_11  and  C26_15 
REMARK    7  A    between atoms: C13_12  and  C14_13 
REMARK    8  A    between atoms: C14_13  and  C15_14 
REMARK    9  A    between atoms: C15_14  and  C44_23 
REMARK   10  A    between atoms: C15_14  and  N58_30 
REMARK   11  A    between atoms: C26_15  and  C28_16 
REMARK   12  A    between atoms: C44_23  and  C45_24 
REMARK       I    between atoms: N58_30  and  C18_33 
REMARK   13  A    between atoms: N20_31  and  C19_32 
REMARK       I    between atoms: N20_31  and  C21_38 
REMARK   14  A    between atoms: C19_32  and  C18_33 
REMARK   15  A    between atoms: C19_32  and  C62_35 
REMARK       I    between atoms: C21_38  and  N74_39 
REMARK   16  A    between atoms: N74_39  and  C75_40 
REMARK   17  A    between atoms: C75_40  and  C77_42 
REMARK   18  A    between atoms: C82_45  and  C85@A_47 
REMARK   19  A    between atoms: C82_45  and  C85@B_48 
ROOT
HETATM    1  C15   D T1001      -0.531   8.566   6.618  1.00  8.25     0.113 C 
ENDROOT
BRANCH   1   2
HETATM    2  C14   D T1001      -0.346   7.705   7.888  1.00  7.75     0.060 C 
BRANCH   2   3
HETATM    3  C13   D T1001       0.222   6.310   7.620  1.00  7.71     0.177 C 
HETATM    4  O41   D T1001      -0.731   5.489   6.939  1.00  8.53    -0.221 OA
BRANCH   3   5
HETATM    5  C12   D T1001       0.735   5.587   8.887  1.00  8.17     0.143 C 
BRANCH   5   6
HETATM    6  N11   D T1001       0.790   4.109   8.642  1.00  8.56    -0.211 NA
HETATM    7  C10   D T1001       0.112   3.294   9.507  1.00  9.54     0.384 C 
HETATM    8  O24   D T1001      -0.684   3.596  10.378  1.00 10.40    -0.236 OA
BRANCH   7   9
HETATM    9  O7    D T1001       0.467   2.002   9.274  1.00 13.31    -0.278 OA
BRANCH   9  10
HETATM   10  C6    D T1001      -0.519   1.074   9.795  1.00 21.32     0.188 C 
BRANCH  10  11
HETATM   11  C2    D T1001      -1.437   0.585   8.755  1.00 19.63     0.058 A 
HETATM   12  C1    D T1001      -1.189  -0.360   7.766  1.00 18.64     0.104 A 
HETATM   13  N5    D T1001      -2.253  -0.630   6.911  1.00 24.03    -0.235 NA
HETATM   14  C4    D T1001      -3.308   0.103   7.234  1.00 26.08     0.134 A 
HETATM   15  S3    D T1001      -3.039   1.126   8.582  1.00 24.78    -0.066 SA
ENDBRANCH  10  11
ENDBRANCH   9  10
ENDBRANCH   7   9
ENDBRANCH   5   6
BRANCH   5  16
HETATM   16  C26   D T1001       2.144   6.093   9.321  1.00  9.89     0.053 C 
BRANCH  16  17
HETATM   17  C28   D T1001       2.118   6.927  10.578  1.00 10.53    -0.020 A 
HETATM   18  C31   D T1001       2.049   8.328  10.469  1.00 10.31    -0.004 A 
HETATM   19  C32   D T1001       2.012   9.115  11.646  1.00 11.41    -0.000 A 
HETATM   20  C33   D T1001       2.043   8.503  12.904  1.00 13.64    -0.000 A 
HETATM   21  C34   D T1001       2.102   7.116  13.003  1.00 13.54    -0.000 A 
HETATM   22  C35   D T1001       2.151   6.321  11.842  1.00 13.00    -0.004 A 
ENDBRANCH  16  17
ENDBRANCH   5  16
ENDBRANCH   3   5
ENDBRANCH   2   3
ENDBRANCH   1   2
BRANCH   1  23
HETATM   23  C44   D T1001      -0.318  10.074   6.874  1.00  9.33     0.051 C 
BRANCH  23  24
HETATM   24  C45   D T1001       0.997  10.508   7.493  1.00  9.99    -0.020 A 
HETATM   25  C48   D T1001       1.075  11.472   8.491  1.00 10.42    -0.004 A 
HETATM   26  C49   D T1001       2.299  11.873   9.031  1.00 12.60    -0.000 A 
HETATM   27  C50   D T1001       3.476  11.289   8.534  1.00 12.24    -0.000 A 
HETATM   28  C51   D T1001       3.431  10.326   7.551  1.00 13.41    -0.000 A 
HETATM   29  C52   D T1001       2.194   9.939   7.036  1.00 11.46    -0.004 A 
ENDBRANCH  23  24
ENDBRANCH   1  23
BRANCH   1  30
HETATM   30  N58   D T1001      -1.878   8.259   6.110  1.00  8.28    -0.238 NA
HETATM   31  C18   D T1001      -2.019   7.984   4.773  1.00  8.88     0.274 C 
HETATM   32  O61   D T1001      -1.067   8.007   4.005  1.00 11.15    -0.268 OA
BRANCH  31  33
HETATM   33  C19   D T1001      -3.484   7.707   4.360  1.00  8.22     0.188 C 
BRANCH  33  34
HETATM   34  N20   D T1001      -3.884   6.509   5.139  1.00  9.06    -0.211 NA
HETATM   35  C21   D T1001      -3.839   5.281   4.501  1.00  7.77     0.343 C 
HETATM   36  N74   D T1001      -4.273   4.200   5.272  1.00  9.58    -0.294 N 
HETATM   37  O76   D T1001      -3.541   5.183   3.313  1.00  8.28    -0.245 OA
HETATM   38  C95   D T1001      -4.765   4.320   6.640  1.00 12.13     0.131 C 
BRANCH  36  39
HETATM   39  C75   D T1001      -4.351   2.892   4.627  1.00 11.33     0.152 C 
BRANCH  39  40
HETATM   40  C77   D T1001      -5.730   2.313   4.635  1.00 11.34     0.083 A 
HETATM   41  C80   D T1001      -6.724   2.683   3.762  1.00 12.89     0.049 A 
HETATM   42  S81   D T1001      -8.135   1.780   4.095  1.00 18.25    -0.091 SA
HETATM   43  C82   D T1001      -7.334   0.963   5.366  1.00 17.46     0.127 A 
HETATM   44  N83   D T1001      -6.109   1.346   5.547  1.00 15.61    -0.266 NA
BRANCH  43  45
HETATM   45  C85A  D T1001      -8.113  -0.083   6.131  0.65 20.47     0.030 C 
HETATM   46  C86A  D T1001      -8.723  -1.116   5.207  0.65 21.84     0.003 C 
HETATM   47  C90A  D T1001      -7.254  -0.710   7.236  0.65 25.77     0.003 C 
ENDBRANCH  43  45
BRANCH  43  48
HETATM   48  C85B  D T1001      -8.058  -0.088   6.165  0.35 20.27     0.030 C 
HETATM   49  C86B  D T1001      -8.917  -1.000   5.300  0.35 19.26     0.003 C 
HETATM   50  C90B  D T1001      -7.218  -0.815   7.193  0.35 21.00     0.003 C 
ENDBRANCH  43  48
ENDBRANCH  39  40
ENDBRANCH  36  39
ENDBRANCH  33  34
BRANCH  33  51
HETATM   51  C62   D T1001      -4.320   8.955   4.745  1.00  9.40     0.032 C 
HETATM   52  C64   D T1001      -3.981  10.112   3.811  1.00 11.21     0.003 C 
HETATM   53  C68   D T1001      -5.818   8.602   4.634  1.00 11.67     0.003 C 
ENDBRANCH  33  51
ENDBRANCH  31  33
ENDBRANCH   1  30
TORSDOF 19
ENDMDL
MODEL 8
REMARK VINA RESULT:      -8.1      2.415      6.078
REMARK  19 active torsions:
REMARK  status: ('A' for Active; 'I' for Inactive)
REMARK    1  A    between atoms: C2_2  and  C6_6 
REMARK    2  A    between atoms: C6_6  and  O7_7 
REMARK    3  A    between atoms: O7_7  and  C10_8 
REMARK       I    between atoms: C10_8  and  N11_10 
REMARK    4  A    between atoms: N11_10  and  C12_11 
REMARK    5  A    between atoms: C12_11  and  C13_12 
REMARK    6  A    between atoms: C12_11  and  C26_15 
REMARK    7  A    between atoms: C13_12  and  C14_13 
REMARK    8  A    between atoms: C14_13  and  C15_14 
REMARK    9  A    between atoms: C15_14  and  C44_23 
REMARK   10  A    between atoms: C15_14  and  N58_30 
REMARK   11  A    between atoms: C26_15  and  C28_16 
REMARK   12  A    between atoms: C44_23  and  C45_24 
REMARK       I    between atoms: N58_30  and  C18_33 
REMARK   13  A    between atoms: N20_31  and  C19_32 
REMARK       I    between atoms: N20_31  and  C21_38 
REMARK   14  A    between atoms: C19_32  and  C18_33 
REMARK   15  A    between atoms: C19_32  and  C62_35 
REMARK       I    between atoms: C21_38  and  N74_39 
REMARK   16  A    between atoms: N74_39  and  C75_40 
REMARK   17  A    between atoms: C75_40  and  C77_42 
REMARK   18  A    between atoms: C82_45  and  C85@A_47 
REMARK   19  A    between atoms: C82_45  and  C85@B_48 
ROOT
HETATM    1  C15   D T1001      -1.582   3.953   9.578  1.00  8.25     0.113 C 
ENDROOT
BRANCH   1   2
HETATM    2  C14   D T1001      -0.644   5.045  10.138  1.00  7.75     0.060 C 
BRANCH   2   3
HETATM    3  C13   D T1001       0.586   5.317   9.272  1.00  7.71     0.177 C 
HETATM    4  O41   D T1001       1.327   4.116   9.037  1.00  8.53    -0.221 OA
BRANCH   3   5
HETATM    5  C12   D T1001       1.521   6.414   9.834  1.00  8.17     0.143 C 
BRANCH   5   6
HETATM    6  N11   D T1001       1.840   6.122  11.270  1.00  8.56    -0.211 NA
HETATM    7  C10   D T1001       1.624   7.116  12.185  1.00  9.54     0.384 C 
HETATM    8  O24   D T1001       1.047   8.178  12.040  1.00 10.40    -0.236 OA
BRANCH   7   9
HETATM    9  O7    D T1001       2.185   6.759  13.372  1.00 13.31    -0.278 OA
BRANCH   9  10
HETATM   10  C6    D T1001       3.553   7.231  13.481  1.00 21.32     0.188 C 
BRANCH  10  11
HETATM   11  C2    D T1001       3.806   7.931  14.749  1.00 19.63     0.058 A 
HETATM   12  C1    D T1001       4.616   7.529  15.805  1.00 18.64     0.104 A 
HETATM   13  N5    D T1001       4.668   8.399  16.890  1.00 24.03    -0.235 NA
HETATM   14  C4    D T1001       3.903   9.459  16.674  1.00 26.08     0.134 A 
HETATM   15  S3    D T1001       3.112   9.429  15.155  1.00 24.78    -0.066 SA
ENDBRANCH  10  11
ENDBRANCH   9  10
ENDBRANCH   7   9
ENDBRANCH   5   6
BRANCH   5  16
HETATM   16  C26   D T1001       2.846   6.529   9.023  1.00  9.89     0.053 C 
BRANCH  16  17
HETATM   17  C28   D T1001       3.042   7.884   8.388  1.00 10.53    -0.020 A 
HETATM   18  C31   D T1001       3.739   7.974   7.169  1.00 10.31    -0.004 A 
HETATM   19  C32   D T1001       3.915   9.241   6.563  1.00 11.41    -0.000 A 
HETATM   20  C33   D T1001       3.399  10.391   7.171  1.00 13.64    -0.000 A 
HETATM   21  C34   D T1001       2.703  10.292   8.371  1.00 13.54    -0.000 A 
HETATM   22  C35   D T1001       2.530   9.040   8.993  1.00 13.00    -0.004 A 
ENDBRANCH  16  17
ENDBRANCH   5  16
ENDBRANCH   3   5
ENDBRANCH   2   3
ENDBRANCH   1   2
BRANCH   1  23
HETATM   23  C44   D T1001      -1.066   2.521   9.836  1.00  9.33     0.051 C 
BRANCH  23  24
HETATM   24  C45   D T1001      -2.045   1.374   9.666  1.00  9.99    -0.020 A 
HETATM   25  C48   D T1001      -2.179   0.672   8.475  1.00 10.42    -0.004 A 
HETATM   26  C49   D T1001      -3.104  -0.365   8.334  1.00 12.60    -0.000 A 
HETATM   27  C50   D T1001      -3.923  -0.688   9.428  1.00 12.24    -0.000 A 
HETATM   28  C51   D T1001      -3.808  -0.016  10.624  1.00 13.41    -0.000 A 
HETATM   29  C52   D T1001      -2.870   1.010  10.739  1.00 11.46    -0.004 A 
ENDBRANCH  23  24
ENDBRANCH   1  23
BRANCH   1  30
HETATM   30  N58   D T1001      -1.744   4.251   8.145  1.00  8.28    -0.238 NA
HETATM   31  C18   D T1001      -2.718   5.144   7.774  1.00  8.88     0.274 C 
HETATM   32  O61   D T1001      -3.454   5.674   8.596  1.00 11.15    -0.268 OA
BRANCH  31  33
HETATM   33  C19   D T1001      -2.806   5.348   6.244  1.00  8.22     0.188 C 
BRANCH  33  34
HETATM   34  N20   D T1001      -4.204   4.997   5.888  1.00  9.06    -0.211 NA
HETATM   35  C21   D T1001      -4.436   3.741   5.352  1.00  7.77     0.343 C 
HETATM   36  N74   D T1001      -5.763   3.490   4.994  1.00  9.58    -0.294 N 
HETATM   37  O76   D T1001      -3.517   2.961   5.117  1.00  8.28    -0.245 OA
HETATM   38  C95   D T1001      -6.843   4.460   5.136  1.00 12.13     0.131 C 
BRANCH  36  39
HETATM   39  C75   D T1001      -6.060   2.226   4.326  1.00 11.33     0.152 C 
BRANCH  39  40
HETATM   40  C77   D T1001      -6.611   1.187   5.250  1.00 11.34     0.083 A 
HETATM   41  C80   D T1001      -5.861   0.512   6.183  1.00 12.89     0.049 A 
HETATM   42  S81   D T1001      -6.865  -0.572   7.039  1.00 18.25    -0.091 SA
HETATM   43  C82   D T1001      -8.219  -0.073   6.120  1.00 17.46     0.127 A 
HETATM   44  N83   D T1001      -7.944   0.822   5.224  1.00 15.61    -0.266 NA
BRANCH  43  45
HETATM   45  C85A  D T1001      -9.553  -0.713   6.429  0.65 20.47     0.030 C 
HETATM   46  C86A  D T1001     -10.408   0.171   7.313  0.65 21.84     0.003 C 
HETATM   47  C90A  D T1001     -10.272  -1.136   5.142  0.65 25.77     0.003 C 
ENDBRANCH  43  45
BRANCH  43  48
HETATM   48  C85B  D T1001      -9.574  -0.675   6.380  0.35 20.27     0.030 C 
HETATM   49  C86B  D T1001      -9.786  -1.992   5.645  0.35 19.26     0.003 C 
HETATM   50  C90B  D T1001     -10.007  -0.696   7.830  0.35 21.00     0.003 C 
ENDBRANCH  43  48
ENDBRANCH  39  40
ENDBRANCH  36  39
ENDBRANCH  33  34
BRANCH  33  51
HETATM   51  C62   D T1001      -2.490   6.837   5.954  1.00  9.40     0.032 C 
HETATM   52  C64   D T1001      -1.103   7.184   6.483  1.00 11.21     0.003 C 
HETATM   53  C68   D T1001      -2.553   7.070   4.430  1.00 11.67     0.003 C 
ENDBRANCH  33  51
ENDBRANCH  31  33
ENDBRANCH   1  30
TORSDOF 19
ENDMDL
MODEL 9
REMARK VINA RESULT:      -8.1      2.131      5.817
REMARK  19 active torsions:
REMARK  status: ('A' for Active; 'I' for Inactive)
REMARK    1  A    between atoms: C2_2  and  C6_6 
REMARK    2  A    between atoms: C6_6  and  O7_7 
REMARK    3  A    between atoms: O7_7  and  C10_8 
REMARK       I    between atoms: C10_8  and  N11_10 
REMARK    4  A    between atoms: N11_10  and  C12_11 
REMARK    5  A    between atoms: C12_11  and  C13_12 
REMARK    6  A    between atoms: C12_11  and  C26_15 
REMARK    7  A    between atoms: C13_12  and  C14_13 
REMARK    8  A    between atoms: C14_13  and  C15_14 
REMARK    9  A    between atoms: C15_14  and  C44_23 
REMARK   10  A    between atoms: C15_14  and  N58_30 
REMARK   11  A    between atoms: C26_15  and  C28_16 
REMARK   12  A    between atoms: C44_23  and  C45_24 
REMARK       I    between atoms: N58_30  and  C18_33 
REMARK   13  A    between atoms: N20_31  and  C19_32 
REMARK       I    between atoms: N20_31  and  C21_38 
REMARK   14  A    between atoms: C19_32  and  C18_33 
REMARK   15  A    between atoms: C19_32  and  C62_35 
REMARK       I    between atoms: C21_38  and  N74_39 
REMARK   16  A    between atoms: N74_39  and  C75_40 
REMARK   17  A    between atoms: C75_40  and  C77_42 
REMARK   18  A    between atoms: C82_45  and  C85@A_47 
REMARK   19  A    between atoms: C82_45  and  C85@B_48 
ROOT
HETATM    1  C15   D T1001      -4.242   6.624   5.923  1.00  8.25     0.113 C 
ENDROOT
BRANCH   1   2
HETATM    2  C14   D T1001      -3.309   6.103   7.039  1.00  7.75     0.060 C 
BRANCH   2   3
HETATM    3  C13   D T1001      -1.834   6.033   6.640  1.00  7.71     0.177 C 
HETATM    4  O41   D T1001      -1.252   4.788   7.040  1.00  8.53    -0.221 OA
BRANCH   3   5
HETATM    5  C12   D T1001      -0.984   7.211   7.169  1.00  8.17     0.143 C 
BRANCH   5   6
HETATM    6  N11   D T1001       0.365   6.713   7.596  1.00  8.56    -0.211 NA
HETATM    7  C10   D T1001       0.555   6.451   8.925  1.00  9.54     0.384 C 
HETATM    8  O24   D T1001      -0.268   6.404   9.821  1.00 10.40    -0.236 OA
BRANCH   7   9
HETATM    9  O7    D T1001       1.879   6.244   9.153  1.00 13.31    -0.278 OA
BRANCH   9  10
HETATM   10  C6    D T1001       2.623   7.490   9.159  1.00 21.32     0.188 C 
BRANCH  10  11
HETATM   11  C2    D T1001       2.347   8.304  10.353  1.00 19.63     0.058 A 
HETATM   12  C1    D T1001       1.881   9.613  10.410  1.00 18.64     0.104 A 
HETATM   13  N5    D T1001       1.710  10.135  11.689  1.00 24.03    -0.235 NA
HETATM   14  C4    D T1001       2.043   9.240  12.607  1.00 26.08     0.134 A 
HETATM   15  S3    D T1001       2.564   7.748  11.944  1.00 24.78    -0.066 SA
ENDBRANCH  10  11
ENDBRANCH   9  10
ENDBRANCH   7   9
ENDBRANCH   5   6
BRANCH   5  16
HETATM   16  C26   D T1001      -0.807   8.332   6.101  1.00  9.89     0.053 C 
BRANCH  16  17
HETATM   17  C28   D T1001      -0.836   9.723   6.685  1.00 10.53    -0.020 A 
HETATM   18  C31   D T1001      -2.071  10.387   6.811  1.00 10.31    -0.004 A 
HETATM   19  C32   D T1001      -2.106  11.687   7.370  1.00 11.41    -0.000 A 
HETATM   20  C33   D T1001      -0.924  12.304   7.793  1.00 13.64    -0.000 A 
HETATM   21  C34   D T1001       0.291  11.637   7.673  1.00 13.54    -0.000 A 
HETATM   22  C35   D T1001       0.344  10.348   7.109  1.00 13.00    -0.004 A 
ENDBRANCH  16  17
ENDBRANCH   5  16
ENDBRANCH   3   5
ENDBRANCH   2   3
ENDBRANCH   1   2
BRANCH   1  23
HETATM   23  C44   D T1001      -5.143   7.791   6.383  1.00  9.33     0.051 C 
BRANCH  23  24
HETATM   24  C45   D T1001      -5.081   9.086   5.595  1.00  9.99    -0.020 A 
HETATM   25  C48   D T1001      -4.343   9.219   4.426  1.00 10.42    -0.004 A 
HETATM   26  C49   D T1001      -4.283  10.428   3.730  1.00 12.60    -0.000 A 
HETATM   27  C50   D T1001      -4.979  11.535   4.242  1.00 12.24    -0.000 A 
HETATM   28  C51   D T1001      -5.726  11.432   5.395  1.00 13.41    -0.000 A 
HETATM   29  C52   D T1001      -5.775  10.210   6.065  1.00 11.46    -0.004 A 
ENDBRANCH  23  24
ENDBRANCH   1  23
BRANCH   1  30
HETATM   30  N58   D T1001      -5.012   5.459   5.457  1.00  8.28    -0.238 NA
HETATM   31  C18   D T1001      -4.905   5.096   4.138  1.00  8.88     0.274 C 
HETATM   32  O61   D T1001      -4.210   5.723   3.351  1.00 11.15    -0.268 OA
BRANCH  31  33
HETATM   33  C19   D T1001      -5.784   3.878   3.769  1.00  8.22     0.188 C 
BRANCH  33  34
HETATM   34  N20   D T1001      -6.011   3.164   5.050  1.00  9.06    -0.211 NA
HETATM   35  C21   D T1001      -5.284   2.008   5.281  1.00  7.77     0.343 C 
HETATM   36  N74   D T1001      -5.578   1.358   6.482  1.00  9.58    -0.294 N 
HETATM   37  O76   D T1001      -4.521   1.547   4.435  1.00  8.28    -0.245 OA
HETATM   38  C95   D T1001      -6.583   1.817   7.434  1.00 12.13     0.131 C 
BRANCH  36  39
HETATM   39  C75   D T1001      -4.924   0.077   6.740  1.00 11.33     0.152 C 
BRANCH  39  40
HETATM   40  C77   D T1001      -4.027   0.104   7.935  1.00 11.34     0.083 A 
HETATM   41  C80   D T1001      -4.164  -0.729   9.019  1.00 12.89     0.049 A 
HETATM   42  S81   D T1001      -2.938  -0.387  10.156  1.00 18.25    -0.091 SA
HETATM   43  C82   D T1001      -2.311   0.837   9.139  1.00 17.46     0.127 A 
HETATM   44  N83   D T1001      -2.976   0.997   8.038  1.00 15.61    -0.266 NA
BRANCH  43  45
HETATM   45  C85A  D T1001      -1.089   1.590   9.615  0.65 20.47     0.030 C 
HETATM   46  C86A  D T1001      -1.232   2.036  11.055  0.65 21.84     0.003 C 
HETATM   47  C90A  D T1001       0.188   0.778   9.370  0.65 25.77     0.003 C 
ENDBRANCH  43  45
BRANCH  43  48
HETATM   48  C85B  D T1001      -1.096   1.622   9.559  0.35 20.27     0.030 C 
HETATM   49  C86B  D T1001      -1.451   2.932  10.250  0.35 19.26     0.003 C 
HETATM   50  C90B  D T1001      -0.017   0.824  10.256  0.35 21.00     0.003 C 
ENDBRANCH  43  48
ENDBRANCH  39  40
ENDBRANCH  36  39
ENDBRANCH  33  34
BRANCH  33  51
HETATM   51  C62   D T1001      -7.104   4.422   3.167  1.00  9.40     0.032 C 
HETATM   52  C64   D T1001      -7.042   4.362   1.644  1.00 11.21     0.003 C 
HETATM   53  C68   D T1001      -8.277   3.563   3.685  1.00 11.67     0.003 C 
ENDBRANCH  33  51
ENDBRANCH  31  33
ENDBRANCH   1  30
TORSDOF 19
ENDMDL
