MODEL 1
REMARK VINA RESULT:    -9.256      0.000      0.000
REMARK INTER + INTRA:         -22.002
REMARK INTER:                 -18.996
REMARK INTRA:                  -3.006
REMARK UNBOUND:                -3.006
REMARK  19 active torsions:
REMARK  status: ('A' for Active; 'I' for Inactive)
REMARK    1  A    between atoms: C2_2  and  C6_6 
REMARK    2  A    between atoms: C6_6  and  O7_7 
REMARK    3  A    between atoms: O7_7  and  C10_8 
REMARK       I    between atoms: C10_8  and  N11_10 
REMARK    4  A    between atoms: N11_10  and  C12_11 
REMARK    5  A    between atoms: C12_11  and  C13_12 
REMARK    6  A    between atoms: C12_11  and  C26_15 
REMARK    7  A    between atoms: C13_12  and  C14_13 
REMARK    8  A    between atoms: C14_13  and  C15_14 
REMARK    9  A    between atoms: C15_14  and  C44_23 
REMARK   10  A    between atoms: C15_14  and  N58_30 
REMARK   11  A    between atoms: C26_15  and  C28_16 
REMARK   12  A    between atoms: C44_23  and  C45_24 
REMARK       I    between atoms: N58_30  and  C18_33 
REMARK   13  A    between atoms: N20_31  and  C19_32 
REMARK       I    between atoms: N20_31  and  C21_38 
REMARK   14  A    between atoms: C19_32  and  C18_33 
REMARK   15  A    between atoms: C19_32  and  C62_35 
REMARK       I    between atoms: C21_38  and  N74_39 
REMARK   16  A    between atoms: N74_39  and  C75_40 
REMARK   17  A    between atoms: C75_40  and  C77_42 
REMARK   18  A    between atoms: C82_45  and  C85@A_47 
REMARK   19  A    between atoms: C82_45  and  C85@B_48 
ROOT
HETATM    1  C15   D T1001      -4.878   4.814  -4.423  1.00  8.25     0.113 C 
ENDROOT
BRANCH   1   2
HETATM    2  C14   D T1001      -4.191   4.128  -3.221  1.00  7.75     0.060 C 
BRANCH   2   3
HETATM    3  C13   D T1001      -4.330   4.889  -1.903  1.00  7.71     0.177 C 
HETATM    4  O41   D T1001      -5.385   5.855  -1.975  1.00  8.53    -0.221 OA
BRANCH   3   5
HETATM    5  C12   D T1001      -3.024   5.567  -1.428  1.00  8.17     0.143 C 
BRANCH   5   6
HETATM    6  N11   D T1001      -1.890   5.172  -2.326  1.00  8.56    -0.211 NA
HETATM    7  C10   D T1001      -0.828   4.521  -1.760  1.00  9.54     0.384 C 
HETATM    8  O24   D T1001      -0.723   4.055  -0.640  1.00 10.40    -0.236 OA
BRANCH   7   9
HETATM    9  O7    D T1001       0.188   4.458  -2.663  1.00 13.31    -0.278 OA
BRANCH   9  10
HETATM   10  C6    D T1001       1.455   4.159  -2.022  1.00 21.32     0.188 C 
BRANCH  10  11
HETATM   11  C2    D T1001       2.461   5.209  -2.248  1.00 19.63     0.058 A 
HETATM   12  C1    D T1001       3.816   5.055  -2.518  1.00 18.64     0.104 A 
HETATM   13  N5    D T1001       4.533   6.236  -2.689  1.00 24.03    -0.235 NA
HETATM   14  C4    D T1001       3.739   7.288  -2.548  1.00 26.08     0.134 A 
HETATM   15  S3    D T1001       2.112   6.871  -2.213  1.00 24.78    -0.066 SA
ENDBRANCH  10  11
ENDBRANCH   9  10
ENDBRANCH   7   9
ENDBRANCH   5   6
BRANCH   5  16
HETATM   16  C26   D T1001      -3.146   7.121  -1.401  1.00  9.89     0.053 C 
BRANCH  16  17
HETATM   17  C28   D T1001      -1.957   7.802  -0.767  1.00 10.53    -0.020 A 
HETATM   18  C31   D T1001      -1.402   8.932  -1.392  1.00 10.31    -0.004 A 
HETATM   19  C32   D T1001      -0.294   9.582  -0.796  1.00 11.41    -0.000 A 
HETATM   20  C33   D T1001       0.239   9.103   0.406  1.00 13.64    -0.000 A 
HETATM   21  C34   D T1001      -0.321   7.991   1.023  1.00 13.54    -0.000 A 
HETATM   22  C35   D T1001      -1.415   7.326   0.436  1.00 13.00    -0.004 A 
ENDBRANCH  16  17
ENDBRANCH   5  16
ENDBRANCH   3   5
ENDBRANCH   2   3
ENDBRANCH   1   2
BRANCH   1  23
HETATM   23  C44   D T1001      -5.995   3.954  -5.053  1.00  9.33     0.051 C 
BRANCH  23  24
HETATM   24  C45   D T1001      -7.192   4.674  -5.645  1.00  9.99    -0.020 A 
HETATM   25  C48   D T1001      -8.411   4.045  -5.872  1.00 10.42    -0.004 A 
HETATM   26  C49   D T1001      -9.492   4.722  -6.439  1.00 12.60    -0.000 A 
HETATM   27  C50   D T1001      -9.328   6.069  -6.800  1.00 12.24    -0.000 A 
HETATM   28  C51   D T1001      -8.135   6.722  -6.581  1.00 13.41    -0.000 A 
HETATM   29  C52   D T1001      -7.075   6.025  -6.004  1.00 11.46    -0.004 A 
ENDBRANCH  23  24
ENDBRANCH   1  23
BRANCH   1  30
HETATM   30  N58   D T1001      -3.802   5.138  -5.376  1.00  8.28    -0.238 NA
HETATM   31  C18   D T1001      -3.405   6.447  -5.483  1.00  8.88     0.274 C 
HETATM   32  O61   D T1001      -3.929   7.337  -4.826  1.00 11.15    -0.268 OA
BRANCH  31  33
HETATM   33  C19   D T1001      -2.292   6.661  -6.535  1.00  8.22     0.188 C 
BRANCH  33  34
HETATM   34  N20   D T1001      -2.396   8.092  -6.920  1.00  9.06    -0.211 NA
HETATM   35  C21   D T1001      -3.051   8.394  -8.103  1.00  7.77     0.343 C 
HETATM   36  N74   D T1001      -3.073   9.751  -8.432  1.00  9.58    -0.294 N 
HETATM   37  O76   D T1001      -3.479   7.515  -8.846  1.00  8.28    -0.245 OA
HETATM   38  C95   D T1001      -2.446  10.796  -7.630  1.00 12.13     0.131 C 
BRANCH  36  39
HETATM   39  C75   D T1001      -3.654  10.130  -9.717  1.00 11.33     0.152 C 
BRANCH  39  40
HETATM   40  C77   D T1001      -2.636  10.291 -10.800  1.00 11.34     0.083 A 
HETATM   41  C80   D T1001      -2.100  11.498 -11.179  1.00 12.89     0.049 A 
HETATM   42  S81   D T1001      -0.970  11.247 -12.434  1.00 18.25    -0.091 SA
HETATM   43  C82   D T1001      -1.265   9.563 -12.388  1.00 17.46     0.127 A 
HETATM   44  N83   D T1001      -2.157   9.209 -11.516  1.00 15.61    -0.266 NA
BRANCH  43  45
HETATM   45  C85A  D T1001      -0.489   8.686 -13.344  0.65 20.47     0.030 C 
HETATM   46  C86A  D T1001      -1.259   8.434 -14.624  0.65 21.84     0.003 C 
HETATM   47  C90A  D T1001       0.912   9.255 -13.599  0.65 25.77     0.003 C 
ENDBRANCH  43  45
BRANCH  43  48
HETATM   48  C85B  D T1001      -0.523   8.638 -13.317  0.35 20.27     0.030 C 
HETATM   49  C86B  D T1001      -1.363   8.204 -14.512  0.35 19.26     0.003 C 
HETATM   50  C90B  D T1001       0.885   9.066 -13.668  0.35 21.00     0.003 C 
ENDBRANCH  43  48
ENDBRANCH  39  40
ENDBRANCH  36  39
ENDBRANCH  33  34
BRANCH  33  51
HETATM   51  C62   D T1001      -0.938   6.342  -5.853  1.00  9.40     0.032 C 
HETATM   52  C64   D T1001       0.172   6.311  -6.897  1.00 11.21     0.003 C 
HETATM   53  C68   D T1001      -0.646   7.429  -4.798  1.00 11.67     0.003 C 
ENDBRANCH  33  51
ENDBRANCH  31  33
ENDBRANCH   1  30
TORSDOF 19
ENDMDL
MODEL 2
REMARK VINA RESULT:    -9.138      3.084      5.524
REMARK INTER + INTRA:         -21.759
REMARK INTER:                 -16.932
REMARK INTRA:                  -4.827
REMARK UNBOUND:                -3.006
REMARK  19 active torsions:
REMARK  status: ('A' for Active; 'I' for Inactive)
REMARK    1  A    between atoms: C2_2  and  C6_6 
REMARK    2  A    between atoms: C6_6  and  O7_7 
REMARK    3  A    between atoms: O7_7  and  C10_8 
REMARK       I    between atoms: C10_8  and  N11_10 
REMARK    4  A    between atoms: N11_10  and  C12_11 
REMARK    5  A    between atoms: C12_11  and  C13_12 
REMARK    6  A    between atoms: C12_11  and  C26_15 
REMARK    7  A    between atoms: C13_12  and  C14_13 
REMARK    8  A    between atoms: C14_13  and  C15_14 
REMARK    9  A    between atoms: C15_14  and  C44_23 
REMARK   10  A    between atoms: C15_14  and  N58_30 
REMARK   11  A    between atoms: C26_15  and  C28_16 
REMARK   12  A    between atoms: C44_23  and  C45_24 
REMARK       I    between atoms: N58_30  and  C18_33 
REMARK   13  A    between atoms: N20_31  and  C19_32 
REMARK       I    between atoms: N20_31  and  C21_38 
REMARK   14  A    between atoms: C19_32  and  C18_33 
REMARK   15  A    between atoms: C19_32  and  C62_35 
REMARK       I    between atoms: C21_38  and  N74_39 
REMARK   16  A    between atoms: N74_39  and  C75_40 
REMARK   17  A    between atoms: C75_40  and  C77_42 
REMARK   18  A    between atoms: C82_45  and  C85@A_47 
REMARK   19  A    between atoms: C82_45  and  C85@B_48 
ROOT
HETATM    1  C15   D T1001      -4.067   7.107  -1.856  1.00  8.25     0.113 C 
ENDROOT
BRANCH   1   2
HETATM    2  C14   D T1001      -2.754   7.627  -1.227  1.00  7.75     0.060 C 
BRANCH   2   3
HETATM    3  C13   D T1001      -1.998   6.583  -0.406  1.00  7.71     0.177 C 
HETATM    4  O41   D T1001      -1.904   6.977   0.967  1.00  8.53    -0.221 OA
BRANCH   3   5
HETATM    5  C12   D T1001      -0.593   6.246  -0.958  1.00  8.17     0.143 C 
BRANCH   5   6
HETATM    6  N11   D T1001       0.455   6.922  -0.126  1.00  8.56    -0.211 NA
HETATM    7  C10   D T1001       0.952   8.115  -0.574  1.00  9.54     0.384 C 
HETATM    8  O24   D T1001       0.553   8.817  -1.486  1.00 10.40    -0.236 OA
BRANCH   7   9
HETATM    9  O7    D T1001       2.041   8.452   0.168  1.00 13.31    -0.278 OA
BRANCH   9  10
HETATM   10  C6    D T1001       3.030   7.392   0.181  1.00 21.32     0.188 C 
BRANCH  10  11
HETATM   11  C2    D T1001       4.043   7.554  -0.874  1.00 19.63     0.058 A 
HETATM   12  C1    D T1001       3.865   7.495  -2.252  1.00 18.64     0.104 A 
HETATM   13  N5    D T1001       5.013   7.688  -3.015  1.00 24.03    -0.235 NA
HETATM   14  C4    D T1001       6.064   7.890  -2.233  1.00 26.08     0.134 A 
HETATM   15  S3    D T1001       5.686   7.856  -0.563  1.00 24.78    -0.066 SA
ENDBRANCH  10  11
ENDBRANCH   9  10
ENDBRANCH   7   9
ENDBRANCH   5   6
BRANCH   5  16
HETATM   16  C26   D T1001      -0.325   4.711  -0.982  1.00  9.89     0.053 C 
BRANCH  16  17
HETATM   17  C28   D T1001       1.143   4.362  -1.006  1.00 10.53    -0.020 A 
HETATM   18  C31   D T1001       1.775   3.975   0.189  1.00 10.31    -0.004 A 
HETATM   19  C32   D T1001       3.150   3.635   0.170  1.00 11.41    -0.000 A 
HETATM   20  C33   D T1001       3.870   3.683  -1.029  1.00 13.64    -0.000 A 
HETATM   21  C34   D T1001       3.236   4.059  -2.208  1.00 13.54    -0.000 A 
HETATM   22  C35   D T1001       1.873   4.412  -2.203  1.00 13.00    -0.004 A 
ENDBRANCH  16  17
ENDBRANCH   5  16
ENDBRANCH   3   5
ENDBRANCH   2   3
ENDBRANCH   1   2
BRANCH   1  23
HETATM   23  C44   D T1001      -3.903   5.741  -2.557  1.00  9.33     0.051 C 
BRANCH  23  24
HETATM   24  C45   D T1001      -5.084   5.203  -3.342  1.00  9.99    -0.020 A 
HETATM   25  C48   D T1001      -6.336   5.002  -2.773  1.00 10.42    -0.004 A 
HETATM   26  C49   D T1001      -7.403   4.485  -3.510  1.00 12.60    -0.000 A 
HETATM   27  C50   D T1001      -7.190   4.148  -4.857  1.00 12.24    -0.000 A 
HETATM   28  C51   D T1001      -5.963   4.343  -5.451  1.00 13.41    -0.000 A 
HETATM   29  C52   D T1001      -4.917   4.870  -4.695  1.00 11.46    -0.004 A 
ENDBRANCH  23  24
ENDBRANCH   1  23
BRANCH   1  30
HETATM   30  N58   D T1001      -4.527   8.166  -2.771  1.00  8.28    -0.238 NA
HETATM   31  C18   D T1001      -5.757   8.729  -2.543  1.00  8.88     0.274 C 
HETATM   32  O61   D T1001      -6.474   8.364  -1.621  1.00 11.15    -0.268 OA
BRANCH  31  33
HETATM   33  C19   D T1001      -6.137   9.804  -3.587  1.00  8.22     0.188 C 
BRANCH  33  34
HETATM   34  N20   D T1001      -5.812   9.197  -4.902  1.00  9.06    -0.211 NA
HETATM   35  C21   D T1001      -4.642   9.600  -5.526  1.00  7.77     0.343 C 
HETATM   36  N74   D T1001      -4.419   9.029  -6.780  1.00  9.58    -0.294 N 
HETATM   37  O76   D T1001      -3.925  10.474  -5.047  1.00  8.28    -0.245 OA
HETATM   38  C95   D T1001      -5.333   8.094  -7.426  1.00 12.13     0.131 C 
BRANCH  36  39
HETATM   39  C75   D T1001      -3.259   9.488  -7.540  1.00 11.33     0.152 C 
BRANCH  39  40
HETATM   40  C77   D T1001      -2.100   8.545  -7.475  1.00 11.34     0.083 A 
HETATM   41  C80   D T1001      -1.268   8.275  -8.535  1.00 12.89     0.049 A 
HETATM   42  S81   D T1001      -0.070   7.162  -8.045  1.00 18.25    -0.091 SA
HETATM   43  C82   D T1001      -0.731   7.117  -6.468  1.00 17.46     0.127 A 
HETATM   44  N83   D T1001      -1.783   7.860  -6.318  1.00 15.61    -0.266 NA
BRANCH  43  45
HETATM   45  C85A  D T1001      -0.050   6.236  -5.445  0.65 20.47     0.030 C 
HETATM   46  C86A  D T1001       0.777   7.046  -4.468  0.65 21.84     0.003 C 
HETATM   47  C90A  D T1001      -1.062   5.320  -4.747  0.65 25.77     0.003 C 
ENDBRANCH  43  45
BRANCH  43  48
HETATM   48  C85B  D T1001      -0.098   6.256  -5.406  0.35 20.27     0.030 C 
HETATM   49  C86B  D T1001       0.846   7.036  -4.501  0.35 19.26     0.003 C 
HETATM   50  C90B  D T1001      -1.044   5.333  -4.671  0.35 21.00     0.003 C 
ENDBRANCH  43  48
ENDBRANCH  39  40
ENDBRANCH  36  39
ENDBRANCH  33  34
BRANCH  33  51
HETATM   51  C62   D T1001      -7.654  10.084  -3.437  1.00  9.40     0.032 C 
HETATM   52  C64   D T1001      -7.870  11.300  -2.543  1.00 11.21     0.003 C 
HETATM   53  C68   D T1001      -8.252  10.339  -4.836  1.00 11.67     0.003 C 
ENDBRANCH  33  51
ENDBRANCH  31  33
ENDBRANCH   1  30
TORSDOF 19
ENDMDL
MODEL 3
REMARK VINA RESULT:    -9.085      1.576      2.159
REMARK INTER + INTRA:         -21.650
REMARK INTER:                 -19.446
REMARK INTRA:                  -2.204
REMARK UNBOUND:                -3.006
REMARK  19 active torsions:
REMARK  status: ('A' for Active; 'I' for Inactive)
REMARK    1  A    between atoms: C2_2  and  C6_6 
REMARK    2  A    between atoms: C6_6  and  O7_7 
REMARK    3  A    between atoms: O7_7  and  C10_8 
REMARK       I    between atoms: C10_8  and  N11_10 
REMARK    4  A    between atoms: N11_10  and  C12_11 
REMARK    5  A    between atoms: C12_11  and  C13_12 
REMARK    6  A    between atoms: C12_11  and  C26_15 
REMARK    7  A    between atoms: C13_12  and  C14_13 
REMARK    8  A    between atoms: C14_13  and  C15_14 
REMARK    9  A    between atoms: C15_14  and  C44_23 
REMARK   10  A    between atoms: C15_14  and  N58_30 
REMARK   11  A    between atoms: C26_15  and  C28_16 
REMARK   12  A    between atoms: C44_23  and  C45_24 
REMARK       I    between atoms: N58_30  and  C18_33 
REMARK   13  A    between atoms: N20_31  and  C19_32 
REMARK       I    between atoms: N20_31  and  C21_38 
REMARK   14  A    between atoms: C19_32  and  C18_33 
REMARK   15  A    between atoms: C19_32  and  C62_35 
REMARK       I    between atoms: C21_38  and  N74_39 
REMARK   16  A    between atoms: N74_39  and  C75_40 
REMARK   17  A    between atoms: C75_40  and  C77_42 
REMARK   18  A    between atoms: C82_45  and  C85@A_47 
REMARK   19  A    between atoms: C82_45  and  C85@B_48 
ROOT
HETATM    1  C15   D T1001      -4.073   4.796  -3.167  1.00  8.25     0.113 C 
ENDROOT
BRANCH   1   2
HETATM    2  C14   D T1001      -3.120   4.453  -2.000  1.00  7.75     0.060 C 
BRANCH   2   3
HETATM    3  C13   D T1001      -1.654   4.311  -2.411  1.00  7.71     0.177 C 
HETATM    4  O41   D T1001      -1.432   3.080  -3.107  1.00  8.53    -0.221 OA
BRANCH   3   5
HETATM    5  C12   D T1001      -0.657   4.442  -1.237  1.00  8.17     0.143 C 
BRANCH   5   6
HETATM    6  N11   D T1001       0.635   5.021  -1.730  1.00  8.56    -0.211 NA
HETATM    7  C10   D T1001       1.701   4.175  -1.865  1.00  9.54     0.384 C 
HETATM    8  O24   D T1001       1.728   2.959  -1.800  1.00 10.40    -0.236 OA
BRANCH   7   9
HETATM    9  O7    D T1001       2.826   4.907  -2.088  1.00 13.31    -0.278 OA
BRANCH   9  10
HETATM   10  C6    D T1001       2.579   6.328  -1.937  1.00 21.32     0.188 C 
BRANCH  10  11
HETATM   11  C2    D T1001       3.739   7.046  -1.386  1.00 19.63     0.058 A 
HETATM   12  C1    D T1001       3.904   7.555  -0.103  1.00 18.64     0.104 A 
HETATM   13  N5    D T1001       5.118   8.193   0.140  1.00 24.03    -0.235 NA
HETATM   14  C4    D T1001       5.877   8.179  -0.946  1.00 26.08     0.134 A 
HETATM   15  S3    D T1001       5.144   7.390  -2.278  1.00 24.78    -0.066 SA
ENDBRANCH  10  11
ENDBRANCH   9  10
ENDBRANCH   7   9
ENDBRANCH   5   6
BRANCH   5  16
HETATM   16  C26   D T1001      -1.218   5.332  -0.087  1.00  9.89     0.053 C 
BRANCH  16  17
HETATM   17  C28   D T1001      -0.913   6.799  -0.265  1.00 10.53    -0.020 A 
HETATM   18  C31   D T1001      -1.665   7.548  -1.187  1.00 10.31    -0.004 A 
HETATM   19  C32   D T1001      -1.390   8.928  -1.350  1.00 11.41    -0.000 A 
HETATM   20  C33   D T1001      -0.381   9.538  -0.597  1.00 13.64    -0.000 A 
HETATM   21  C34   D T1001       0.352   8.793   0.319  1.00 13.54    -0.000 A 
HETATM   22  C35   D T1001       0.100   7.417   0.484  1.00 13.00    -0.004 A 
ENDBRANCH  16  17
ENDBRANCH   5  16
ENDBRANCH   3   5
ENDBRANCH   2   3
ENDBRANCH   1   2
BRANCH   1  23
HETATM   23  C44   D T1001      -5.153   3.718  -3.403  1.00  9.33     0.051 C 
BRANCH  23  24
HETATM   24  C45   D T1001      -6.471   4.159  -4.011  1.00  9.99    -0.020 A 
HETATM   25  C48   D T1001      -7.612   4.384  -3.250  1.00 10.42    -0.004 A 
HETATM   26  C49   D T1001      -8.820   4.767  -3.834  1.00 12.60    -0.000 A 
HETATM   27  C50   D T1001      -8.877   4.912  -5.230  1.00 12.24    -0.000 A 
HETATM   28  C51   D T1001      -7.762   4.703  -6.011  1.00 13.41    -0.000 A 
HETATM   29  C52   D T1001      -6.565   4.331  -5.401  1.00 11.46    -0.004 A 
ENDBRANCH  23  24
ENDBRANCH   1  23
BRANCH   1  30
HETATM   30  N58   D T1001      -3.214   5.010  -4.345  1.00  8.28    -0.238 NA
HETATM   31  C18   D T1001      -3.105   6.283  -4.843  1.00  8.88     0.274 C 
HETATM   32  O61   D T1001      -3.709   7.225  -4.348  1.00 11.15    -0.268 OA
BRANCH  31  33
HETATM   33  C19   D T1001      -2.201   6.372  -6.094  1.00  8.22     0.188 C 
BRANCH  33  34
HETATM   34  N20   D T1001      -2.422   7.737  -6.635  1.00  9.06    -0.211 NA
HETATM   35  C21   D T1001      -3.276   7.870  -7.717  1.00  7.77     0.343 C 
HETATM   36  N74   D T1001      -3.404   9.172  -8.207  1.00  9.58    -0.294 N 
HETATM   37  O76   D T1001      -3.787   6.894  -8.259  1.00  8.28    -0.245 OA
HETATM   38  C95   D T1001      -2.693  10.323  -7.663  1.00 12.13     0.131 C 
BRANCH  36  39
HETATM   39  C75   D T1001      -4.205   9.369  -9.413  1.00 11.33     0.152 C 
BRANCH  39  40
HETATM   40  C77   D T1001      -3.447   9.105 -10.674  1.00 11.34     0.083 A 
HETATM   41  C80   D T1001      -3.966   9.285 -11.935  1.00 12.89     0.049 A 
HETATM   42  S81   D T1001      -2.780   8.888 -13.096  1.00 18.25    -0.091 SA
HETATM   43  C82   D T1001      -1.665   8.509 -11.855  1.00 17.46     0.127 A 
HETATM   44  N83   D T1001      -2.143   8.647 -10.658  1.00 15.61    -0.266 NA
BRANCH  43  45
HETATM   45  C85A  D T1001      -0.281   8.058 -12.266  0.65 20.47     0.030 C 
HETATM   46  C86A  D T1001       0.535   9.200 -12.836  0.65 21.84     0.003 C 
HETATM   47  C90A  D T1001       0.429   7.339 -11.113  0.65 25.77     0.003 C 
ENDBRANCH  43  45
BRANCH  43  48
HETATM   48  C85B  D T1001      -0.271   8.052 -12.202  0.35 20.27     0.030 C 
HETATM   49  C86B  D T1001       0.528   9.112 -12.949  0.35 19.26     0.003 C 
HETATM   50  C90B  D T1001       0.486   7.376 -11.082  0.35 21.00     0.003 C 
ENDBRANCH  43  48
ENDBRANCH  39  40
ENDBRANCH  36  39
ENDBRANCH  33  34
BRANCH  33  51
HETATM   51  C62   D T1001      -0.738   6.164  -5.627  1.00  9.40     0.032 C 
HETATM   52  C64   D T1001       0.206   6.267  -6.820  1.00 11.21     0.003 C 
HETATM   53  C68   D T1001      -0.392   7.244  -4.582  1.00 11.67     0.003 C 
ENDBRANCH  33  51
ENDBRANCH  31  33
ENDBRANCH   1  30
TORSDOF 19
ENDMDL
MODEL 4
REMARK VINA RESULT:    -9.044      1.806      8.491
REMARK INTER + INTRA:         -21.567
REMARK INTER:                 -17.824
REMARK INTRA:                  -3.743
REMARK UNBOUND:                -3.006
REMARK  19 active torsions:
REMARK  status: ('A' for Active; 'I' for Inactive)
REMARK    1  A    between atoms: C2_2  and  C6_6 
REMARK    2  A    between atoms: C6_6  and  O7_7 
REMARK    3  A    between atoms: O7_7  and  C10_8 
REMARK       I    between atoms: C10_8  and  N11_10 
REMARK    4  A    between atoms: N11_10  and  C12_11 
REMARK    5  A    between atoms: C12_11  and  C13_12 
REMARK    6  A    between atoms: C12_11  and  C26_15 
REMARK    7  A    between atoms: C13_12  and  C14_13 
REMARK    8  A    between atoms: C14_13  and  C15_14 
REMARK    9  A    between atoms: C15_14  and  C44_23 
REMARK   10  A    between atoms: C15_14  and  N58_30 
REMARK   11  A    between atoms: C26_15  and  C28_16 
REMARK   12  A    between atoms: C44_23  and  C45_24 
REMARK       I    between atoms: N58_30  and  C18_33 
REMARK   13  A    between atoms: N20_31  and  C19_32 
REMARK       I    between atoms: N20_31  and  C21_38 
REMARK   14  A    between atoms: C19_32  and  C18_33 
REMARK   15  A    between atoms: C19_32  and  C62_35 
REMARK       I    between atoms: C21_38  and  N74_39 
REMARK   16  A    between atoms: N74_39  and  C75_40 
REMARK   17  A    between atoms: C75_40  and  C77_42 
REMARK   18  A    between atoms: C82_45  and  C85@A_47 
REMARK   19  A    between atoms: C82_45  and  C85@B_48 
ROOT
HETATM    1  C15   D T1001      -5.538   7.573  -4.866  1.00  8.25     0.113 C 
ENDROOT
BRANCH   1   2
HETATM    2  C14   D T1001      -4.788   8.870  -4.491  1.00  7.75     0.060 C 
BRANCH   2   3
HETATM    3  C13   D T1001      -4.415   9.746  -5.687  1.00  7.71     0.177 C 
HETATM    4  O41   D T1001      -5.578  10.341  -6.272  1.00  8.53    -0.221 OA
BRANCH   3   5
HETATM    5  C12   D T1001      -3.595   9.010  -6.773  1.00  8.17     0.143 C 
BRANCH   5   6
HETATM    6  N11   D T1001      -4.064   9.426  -8.134  1.00  8.56    -0.211 NA
HETATM    7  C10   D T1001      -3.825   8.575  -9.177  1.00  9.54     0.384 C 
HETATM    8  O24   D T1001      -3.421   7.426  -9.152  1.00 10.40    -0.236 OA
BRANCH   7   9
HETATM    9  O7    D T1001      -4.100   9.213 -10.347  1.00 13.31    -0.278 OA
BRANCH   9  10
HETATM   10  C6    D T1001      -2.980  10.018 -10.795  1.00 21.32     0.188 C 
BRANCH  10  11
HETATM   11  C2    D T1001      -2.186   9.347 -11.836  1.00 19.63     0.058 A 
HETATM   12  C1    D T1001      -0.836   9.015 -11.806  1.00 18.64     0.104 A 
HETATM   13  N5    D T1001      -0.348   8.379 -12.945  1.00 24.03    -0.235 NA
HETATM   14  C4    D T1001      -1.310   8.228 -13.843  1.00 26.08     0.134 A 
HETATM   15  S3    D T1001      -2.824   8.844 -13.329  1.00 24.78    -0.066 SA
ENDBRANCH  10  11
ENDBRANCH   9  10
ENDBRANCH   7   9
ENDBRANCH   5   6
BRANCH   5  16
HETATM   16  C26   D T1001      -2.067   9.291  -6.644  1.00  9.89     0.053 C 
BRANCH  16  17
HETATM   17  C28   D T1001      -1.300   8.148  -6.025  1.00 10.53    -0.020 A 
HETATM   18  C31   D T1001      -1.203   8.067  -4.624  1.00 10.31    -0.004 A 
HETATM   19  C32   D T1001      -0.495   6.991  -4.038  1.00 11.41    -0.000 A 
HETATM   20  C33   D T1001       0.101   6.017  -4.846  1.00 13.64    -0.000 A 
HETATM   21  C34   D T1001      -0.007   6.098  -6.230  1.00 13.54    -0.000 A 
HETATM   22  C35   D T1001      -0.698   7.169  -6.829  1.00 13.00    -0.004 A 
ENDBRANCH  16  17
ENDBRANCH   5  16
ENDBRANCH   3   5
ENDBRANCH   2   3
ENDBRANCH   1   2
BRANCH   1  23
HETATM   23  C44   D T1001      -7.047   7.631  -4.544  1.00  9.33     0.051 C 
BRANCH  23  24
HETATM   24  C45   D T1001      -7.958   6.638  -5.241  1.00  9.99    -0.020 A 
HETATM   25  C48   D T1001      -8.147   5.340  -4.781  1.00 10.42    -0.004 A 
HETATM   26  C49   D T1001      -8.973   4.436  -5.452  1.00 12.60    -0.000 A 
HETATM   27  C50   D T1001      -9.613   4.856  -6.630  1.00 12.24    -0.000 A 
HETATM   28  C51   D T1001      -9.451   6.138  -7.107  1.00 13.41    -0.000 A 
HETATM   29  C52   D T1001      -8.628   7.023  -6.412  1.00 11.46    -0.004 A 
ENDBRANCH  23  24
ENDBRANCH   1  23
BRANCH   1  30
HETATM   30  N58   D T1001      -4.845   6.482  -4.158  1.00  8.28    -0.238 NA
HETATM   31  C18   D T1001      -4.185   5.542  -4.907  1.00  8.88     0.274 C 
HETATM   32  O61   D T1001      -4.173   5.580  -6.130  1.00 11.15    -0.268 OA
BRANCH  31  33
HETATM   33  C19   D T1001      -3.524   4.436  -4.050  1.00  8.22     0.188 C 
BRANCH  33  34
HETATM   34  N20   D T1001      -3.235   5.081  -2.744  1.00  9.06    -0.211 NA
HETATM   35  C21   D T1001      -2.087   4.692  -2.074  1.00  7.77     0.343 C 
HETATM   36  N74   D T1001      -1.897   5.300  -0.831  1.00  9.58    -0.294 N 
HETATM   37  O76   D T1001      -1.360   3.801  -2.504  1.00  8.28    -0.245 OA
HETATM   38  C95   D T1001      -2.825   6.258  -0.241  1.00 12.13     0.131 C 
BRANCH  36  39
HETATM   39  C75   D T1001      -0.763   4.858  -0.024  1.00 11.33     0.152 C 
BRANCH  39  40
HETATM   40  C77   D T1001       0.512   5.561  -0.364  1.00 11.34     0.083 A 
HETATM   41  C80   D T1001       0.886   6.774   0.163  1.00 12.89     0.049 A 
HETATM   42  S81   D T1001       2.408   7.220  -0.468  1.00 18.25    -0.091 SA
HETATM   43  C82   D T1001       2.468   5.781  -1.390  1.00 17.46     0.127 A 
HETATM   44  N83   D T1001       1.422   5.027  -1.257  1.00 15.61    -0.266 NA
BRANCH  43  45
HETATM   45  C85A  D T1001       3.692   5.545  -2.247  0.65 20.47     0.030 C 
HETATM   46  C86A  D T1001       4.042   4.074  -2.332  0.65 21.84     0.003 C 
HETATM   47  C90A  D T1001       3.533   6.196  -3.626  0.65 25.77     0.003 C 
ENDBRANCH  43  45
BRANCH  43  48
HETATM   48  C85B  D T1001       3.661   5.491  -2.264  0.35 20.27     0.030 C 
HETATM   49  C86B  D T1001       3.998   4.007  -2.328  0.35 19.26     0.003 C 
HETATM   50  C90B  D T1001       3.666   6.189  -3.606  0.35 21.00     0.003 C 
ENDBRANCH  43  48
ENDBRANCH  39  40
ENDBRANCH  36  39
ENDBRANCH  33  34
BRANCH  33  51
HETATM   51  C62   D T1001      -4.548   3.281  -3.911  1.00  9.40     0.032 C 
HETATM   52  C64   D T1001      -5.534   3.595  -2.792  1.00 11.21     0.003 C 
HETATM   53  C68   D T1001      -5.298   3.120  -5.250  1.00 11.67     0.003 C 
ENDBRANCH  33  51
ENDBRANCH  31  33
ENDBRANCH   1  30
TORSDOF 19
ENDMDL
MODEL 5
REMARK VINA RESULT:    -9.035      2.177      3.757
REMARK INTER + INTRA:         -21.548
REMARK INTER:                 -18.597
REMARK INTRA:                  -2.951
REMARK UNBOUND:                -3.006
REMARK  19 active torsions:
REMARK  status: ('A' for Active; 'I' for Inactive)
REMARK    1  A    between atoms: C2_2  and  C6_6 
REMARK    2  A    between atoms: C6_6  and  O7_7 
REMARK    3  A    between atoms: O7_7  and  C10_8 
REMARK       I    between atoms: C10_8  and  N11_10 
REMARK    4  A    between atoms: N11_10  and  C12_11 
REMARK    5  A    between atoms: C12_11  and  C13_12 
REMARK    6  A    between atoms: C12_11  and  C26_15 
REMARK    7  A    between atoms: C13_12  and  C14_13 
REMARK    8  A    between atoms: C14_13  and  C15_14 
REMARK    9  A    between atoms: C15_14  and  C44_23 
REMARK   10  A    between atoms: C15_14  and  N58_30 
REMARK   11  A    between atoms: C26_15  and  C28_16 
REMARK   12  A    between atoms: C44_23  and  C45_24 
REMARK       I    between atoms: N58_30  and  C18_33 
REMARK   13  A    between atoms: N20_31  and  C19_32 
REMARK       I    between atoms: N20_31  and  C21_38 
REMARK   14  A    between atoms: C19_32  and  C18_33 
REMARK   15  A    between atoms: C19_32  and  C62_35 
REMARK       I    between atoms: C21_38  and  N74_39 
REMARK   16  A    between atoms: N74_39  and  C75_40 
REMARK   17  A    between atoms: C75_40  and  C77_42 
REMARK   18  A    between atoms: C82_45  and  C85@A_47 
REMARK   19  A    between atoms: C82_45  and  C85@B_48 
ROOT
HETATM    1  C15   D T1001      -3.953   4.691  -3.045  1.00  8.25     0.113 C 
ENDROOT
BRANCH   1   2
HETATM    2  C14   D T1001      -2.562   4.183  -3.487  1.00  7.75     0.060 C 
BRANCH   2   3
HETATM    3  C13   D T1001      -1.579   5.295  -3.856  1.00  7.71     0.177 C 
HETATM    4  O41   D T1001      -1.270   5.265  -5.254  1.00  8.53    -0.221 OA
BRANCH   3   5
HETATM    5  C12   D T1001      -0.275   5.282  -3.026  1.00  8.17     0.143 C 
BRANCH   5   6
HETATM    6  N11   D T1001       0.165   6.689  -2.750  1.00  8.56    -0.211 NA
HETATM    7  C10   D T1001       1.415   7.057  -3.168  1.00  9.54     0.384 C 
HETATM    8  O24   D T1001       2.190   6.457  -3.891  1.00 10.40    -0.236 OA
BRANCH   7   9
HETATM    9  O7    D T1001       1.726   8.267  -2.631  1.00 13.31    -0.278 OA
BRANCH   9  10
HETATM   10  C6    D T1001       1.327   8.354  -1.239  1.00 21.32     0.188 C 
BRANCH  10  11
HETATM   11  C2    D T1001       2.478   8.386  -0.324  1.00 19.63     0.058 A 
HETATM   12  C1    D T1001       2.558   8.973   0.935  1.00 18.64     0.104 A 
HETATM   13  N5    D T1001       3.785   8.846   1.581  1.00 24.03    -0.235 NA
HETATM   14  C4    D T1001       4.642   8.173   0.825  1.00 26.08     0.134 A 
HETATM   15  S3    D T1001       3.981   7.675  -0.675  1.00 24.78    -0.066 SA
ENDBRANCH  10  11
ENDBRANCH   9  10
ENDBRANCH   7   9
ENDBRANCH   5   6
BRANCH   5  16
HETATM   16  C26   D T1001      -0.446   4.520  -1.677  1.00  9.89     0.053 C 
BRANCH  16  17
HETATM   17  C28   D T1001       0.865   4.096  -1.061  1.00 10.53    -0.020 A 
HETATM   18  C31   D T1001       1.338   4.774   0.076  1.00 10.31    -0.004 A 
HETATM   19  C32   D T1001       2.561   4.373   0.666  1.00 11.41    -0.000 A 
HETATM   20  C33   D T1001       3.290   3.311   0.121  1.00 13.64    -0.000 A 
HETATM   21  C34   D T1001       2.812   2.639  -0.999  1.00 13.54    -0.000 A 
HETATM   22  C35   D T1001       1.603   3.034  -1.604  1.00 13.00    -0.004 A 
ENDBRANCH  16  17
ENDBRANCH   5  16
ENDBRANCH   3   5
ENDBRANCH   2   3
ENDBRANCH   1   2
BRANCH   1  23
HETATM   23  C44   D T1001      -5.040   3.595  -3.090  1.00  9.33     0.051 C 
BRANCH  23  24
HETATM   24  C45   D T1001      -6.329   3.908  -3.826  1.00  9.99    -0.020 A 
HETATM   25  C48   D T1001      -6.496   3.666  -5.184  1.00 10.42    -0.004 A 
HETATM   26  C49   D T1001      -7.684   3.983  -5.845  1.00 12.60    -0.000 A 
HETATM   27  C50   D T1001      -8.725   4.575  -5.111  1.00 12.24    -0.000 A 
HETATM   28  C51   D T1001      -8.593   4.819  -3.762  1.00 13.41    -0.000 A 
HETATM   29  C52   D T1001      -7.399   4.484  -3.125  1.00 11.46    -0.004 A 
ENDBRANCH  23  24
ENDBRANCH   1  23
BRANCH   1  30
HETATM   30  N58   D T1001      -4.263   5.838  -3.915  1.00  8.28    -0.238 NA
HETATM   31  C18   D T1001      -4.639   7.017  -3.323  1.00  8.88     0.274 C 
HETATM   32  O61   D T1001      -4.737   7.128  -2.109  1.00 11.15    -0.268 OA
BRANCH  31  33
HETATM   33  C19   D T1001      -4.966   8.133  -4.343  1.00  8.22     0.188 C 
BRANCH  33  34
HETATM   34  N20   D T1001      -4.403   7.655  -5.632  1.00  9.06    -0.211 NA
HETATM   35  C21   D T1001      -3.211   8.216  -6.060  1.00  7.77     0.343 C 
HETATM   36  N74   D T1001      -2.759   7.759  -7.300  1.00  9.58    -0.294 N 
HETATM   37  O76   D T1001      -2.663   9.121  -5.437  1.00  8.28    -0.245 OA
HETATM   38  C95   D T1001      -3.471   6.786  -8.120  1.00 12.13     0.131 C 
BRANCH  36  39
HETATM   39  C75   D T1001      -1.565   8.385  -7.862  1.00 11.33     0.152 C 
BRANCH  39  40
HETATM   40  C77   D T1001      -1.727   8.788  -9.293  1.00 11.34     0.083 A 
HETATM   41  C80   D T1001      -2.532   9.819  -9.714  1.00 12.89     0.049 A 
HETATM   42  S81   D T1001      -2.427   9.961 -11.412  1.00 18.25    -0.091 SA
HETATM   43  C82   D T1001      -1.326   8.653 -11.472  1.00 17.46     0.127 A 
HETATM   44  N83   D T1001      -1.067   8.131 -10.314  1.00 15.61    -0.266 NA
BRANCH  43  45
HETATM   45  C85A  D T1001      -0.791   8.246 -12.826  0.65 20.47     0.030 C 
HETATM   46  C86A  D T1001      -1.897   8.126 -13.853  0.65 21.84     0.003 C 
HETATM   47  C90A  D T1001       0.337   9.182 -13.277  0.65 25.77     0.003 C 
ENDBRANCH  43  45
BRANCH  43  48
HETATM   48  C85B  D T1001      -0.759   8.200 -12.792  0.35 20.27     0.030 C 
HETATM   49  C86B  D T1001      -1.808   8.140 -13.895  0.35 19.26     0.003 C 
HETATM   50  C90B  D T1001       0.537   8.863 -13.202  0.35 21.00     0.003 C 
ENDBRANCH  43  48
ENDBRANCH  39  40
ENDBRANCH  36  39
ENDBRANCH  33  34
BRANCH  33  51
HETATM   51  C62   D T1001      -6.508   8.273  -4.402  1.00  9.40     0.032 C 
HETATM   52  C64   D T1001      -6.902   9.734  -4.217  1.00 11.21     0.003 C 
HETATM   53  C68   D T1001      -7.001   7.759  -5.771  1.00 11.67     0.003 C 
ENDBRANCH  33  51
ENDBRANCH  31  33
ENDBRANCH   1  30
TORSDOF 19
ENDMDL
MODEL 6
REMARK VINA RESULT:    -8.796      1.698      2.681
REMARK INTER + INTRA:         -21.059
REMARK INTER:                 -17.168
REMARK INTRA:                  -3.891
REMARK UNBOUND:                -3.006
REMARK  19 active torsions:
REMARK  status: ('A' for Active; 'I' for Inactive)
REMARK    1  A    between atoms: C2_2  and  C6_6 
REMARK    2  A    between atoms: C6_6  and  O7_7 
REMARK    3  A    between atoms: O7_7  and  C10_8 
REMARK       I    between atoms: C10_8  and  N11_10 
REMARK    4  A    between atoms: N11_10  and  C12_11 
REMARK    5  A    between atoms: C12_11  and  C13_12 
REMARK    6  A    between atoms: C12_11  and  C26_15 
REMARK    7  A    between atoms: C13_12  and  C14_13 
REMARK    8  A    between atoms: C14_13  and  C15_14 
REMARK    9  A    between atoms: C15_14  and  C44_23 
REMARK   10  A    between atoms: C15_14  and  N58_30 
REMARK   11  A    between atoms: C26_15  and  C28_16 
REMARK   12  A    between atoms: C44_23  and  C45_24 
REMARK       I    between atoms: N58_30  and  C18_33 
REMARK   13  A    between atoms: N20_31  and  C19_32 
REMARK       I    between atoms: N20_31  and  C21_38 
REMARK   14  A    between atoms: C19_32  and  C18_33 
REMARK   15  A    between atoms: C19_32  and  C62_35 
REMARK       I    between atoms: C21_38  and  N74_39 
REMARK   16  A    between atoms: N74_39  and  C75_40 
REMARK   17  A    between atoms: C75_40  and  C77_42 
REMARK   18  A    between atoms: C82_45  and  C85@A_47 
REMARK   19  A    between atoms: C82_45  and  C85@B_48 
ROOT
HETATM    1  C15   D T1001      -3.357   5.407  -4.901  1.00  8.25     0.113 C 
ENDROOT
BRANCH   1   2
HETATM    2  C14   D T1001      -2.202   4.923  -3.996  1.00  7.75     0.060 C 
BRANCH   2   3
HETATM    3  C13   D T1001      -1.386   6.052  -3.366  1.00  7.71     0.177 C 
HETATM    4  O41   D T1001       0.017   5.843  -3.559  1.00  8.53    -0.221 OA
BRANCH   3   5
HETATM    5  C12   D T1001      -1.686   6.283  -1.867  1.00  8.17     0.143 C 
BRANCH   5   6
HETATM    6  N11   D T1001      -0.405   6.291  -1.088  1.00  8.56    -0.211 NA
HETATM    7  C10   D T1001      -0.058   5.147  -0.422  1.00  9.54     0.384 C 
HETATM    8  O24   D T1001      -0.557   4.038  -0.493  1.00 10.40    -0.236 OA
BRANCH   7   9
HETATM    9  O7    D T1001       0.988   5.413   0.406  1.00 13.31    -0.278 OA
BRANCH   9  10
HETATM   10  C6    D T1001       2.154   4.619   0.067  1.00 21.32     0.188 C 
BRANCH  10  11
HETATM   11  C2    D T1001       2.895   5.169  -1.079  1.00 19.63     0.058 A 
HETATM   12  C1    D T1001       3.277   4.518  -2.246  1.00 18.64     0.104 A 
HETATM   13  N5    D T1001       3.976   5.294  -3.167  1.00 24.03    -0.235 NA
HETATM   14  C4    D T1001       4.132   6.529  -2.711  1.00 26.08     0.134 A 
HETATM   15  S3    D T1001       3.435   6.778  -1.167  1.00 24.78    -0.066 SA
ENDBRANCH  10  11
ENDBRANCH   9  10
ENDBRANCH   7   9
ENDBRANCH   5   6
BRANCH   5  16
HETATM   16  C26   D T1001      -2.450   7.618  -1.620  1.00  9.89     0.053 C 
BRANCH  16  17
HETATM   17  C28   D T1001      -3.907   7.553  -2.010  1.00 10.53    -0.020 A 
HETATM   18  C31   D T1001      -4.460   8.600  -2.768  1.00 10.31    -0.004 A 
HETATM   19  C32   D T1001      -5.823   8.539  -3.146  1.00 11.41    -0.000 A 
HETATM   20  C33   D T1001      -6.610   7.445  -2.770  1.00 13.64    -0.000 A 
HETATM   21  C34   D T1001      -6.053   6.409  -2.027  1.00 13.54    -0.000 A 
HETATM   22  C35   D T1001      -4.702   6.461  -1.633  1.00 13.00    -0.004 A 
ENDBRANCH  16  17
ENDBRANCH   5  16
ENDBRANCH   3   5
ENDBRANCH   2   3
ENDBRANCH   1   2
BRANCH   1  23
HETATM   23  C44   D T1001      -4.460   4.344  -5.097  1.00  9.33     0.051 C 
BRANCH  23  24
HETATM   24  C45   D T1001      -5.848   4.826  -5.473  1.00  9.99    -0.020 A 
HETATM   25  C48   D T1001      -6.090   6.092  -5.991  1.00 10.42    -0.004 A 
HETATM   26  C49   D T1001      -7.379   6.523  -6.308  1.00 12.60    -0.000 A 
HETATM   27  C50   D T1001      -8.455   5.649  -6.080  1.00 12.24    -0.000 A 
HETATM   28  C51   D T1001      -8.247   4.384  -5.575  1.00 13.41    -0.000 A 
HETATM   29  C52   D T1001      -6.948   3.977  -5.276  1.00 11.46    -0.004 A 
ENDBRANCH  23  24
ENDBRANCH   1  23
BRANCH   1  30
HETATM   30  N58   D T1001      -2.734   5.822  -6.170  1.00  8.28    -0.238 NA
HETATM   31  C18   D T1001      -2.753   7.155  -6.495  1.00  8.88     0.274 C 
HETATM   32  O61   D T1001      -3.284   7.989  -5.774  1.00 11.15    -0.268 OA
BRANCH  31  33
HETATM   33  C19   D T1001      -2.095   7.457  -7.862  1.00  8.22     0.188 C 
BRANCH  33  34
HETATM   34  N20   D T1001      -2.210   8.928  -8.028  1.00  9.06    -0.211 NA
HETATM   35  C21   D T1001      -2.864   9.400  -9.154  1.00  7.77     0.343 C 
HETATM   36  N74   D T1001      -2.896  10.791  -9.275  1.00  9.58    -0.294 N 
HETATM   37  O76   D T1001      -3.283   8.640 -10.022  1.00  8.28    -0.245 OA
HETATM   38  C95   D T1001      -2.280  11.708  -8.323  1.00 12.13     0.131 C 
BRANCH  36  39
HETATM   39  C75   D T1001      -3.477  11.355 -10.491  1.00 11.33     0.152 C 
BRANCH  39  40
HETATM   40  C77   D T1001      -2.454  11.730 -11.514  1.00 11.34     0.083 A 
HETATM   41  C80   D T1001      -2.090  13.025 -11.799  1.00 12.89     0.049 A 
HETATM   42  S81   D T1001      -0.888  13.021 -13.011  1.00 18.25    -0.091 SA
HETATM   43  C82   D T1001      -0.931  11.312 -13.074  1.00 17.46     0.127 A 
HETATM   44  N83   D T1001      -1.792  10.778 -12.266  1.00 15.61    -0.266 NA
BRANCH  43  45
HETATM   45  C85A  D T1001       0.004  10.621 -14.041  0.65 20.47     0.030 C 
HETATM   46  C86A  D T1001       0.917   9.640 -13.334  0.65 21.84     0.003 C 
HETATM   47  C90A  D T1001      -0.775   9.979 -15.195  0.65 25.77     0.003 C 
ENDBRANCH  43  45
BRANCH  43  48
HETATM   48  C85B  D T1001      -0.024  10.567 -14.019  0.35 20.27     0.030 C 
HETATM   49  C86B  D T1001       0.737   9.437 -13.338  0.35 19.26     0.003 C 
HETATM   50  C90B  D T1001      -0.642  10.189 -15.347  0.35 21.00     0.003 C 
ENDBRANCH  43  48
ENDBRANCH  39  40
ENDBRANCH  36  39
ENDBRANCH  33  34
BRANCH  33  51
HETATM   51  C62   D T1001      -0.618   6.997  -7.779  1.00  9.40     0.032 C 
HETATM   52  C64   D T1001       0.131   7.434  -9.033  1.00 11.21     0.003 C 
HETATM   53  C68   D T1001       0.029   7.626  -6.527  1.00 11.67     0.003 C 
ENDBRANCH  33  51
ENDBRANCH  31  33
ENDBRANCH   1  30
TORSDOF 19
ENDMDL
MODEL 7
REMARK VINA RESULT:    -8.717      1.576      2.982
REMARK INTER + INTRA:         -20.895
REMARK INTER:                 -17.783
REMARK INTRA:                  -3.112
REMARK UNBOUND:                -3.006
REMARK  19 active torsions:
REMARK  status: ('A' for Active; 'I' for Inactive)
REMARK    1  A    between atoms: C2_2  and  C6_6 
REMARK    2  A    between atoms: C6_6  and  O7_7 
REMARK    3  A    between atoms: O7_7  and  C10_8 
REMARK       I    between atoms: C10_8  and  N11_10 
REMARK    4  A    between atoms: N11_10  and  C12_11 
REMARK    5  A    between atoms: C12_11  and  C13_12 
REMARK    6  A    between atoms: C12_11  and  C26_15 
REMARK    7  A    between atoms: C13_12  and  C14_13 
REMARK    8  A    between atoms: C14_13  and  C15_14 
REMARK    9  A    between atoms: C15_14  and  C44_23 
REMARK   10  A    between atoms: C15_14  and  N58_30 
REMARK   11  A    between atoms: C26_15  and  C28_16 
REMARK   12  A    between atoms: C44_23  and  C45_24 
REMARK       I    between atoms: N58_30  and  C18_33 
REMARK   13  A    between atoms: N20_31  and  C19_32 
REMARK       I    between atoms: N20_31  and  C21_38 
REMARK   14  A    between atoms: C19_32  and  C18_33 
REMARK   15  A    between atoms: C19_32  and  C62_35 
REMARK       I    between atoms: C21_38  and  N74_39 
REMARK   16  A    between atoms: N74_39  and  C75_40 
REMARK   17  A    between atoms: C75_40  and  C77_42 
REMARK   18  A    between atoms: C82_45  and  C85@A_47 
REMARK   19  A    between atoms: C82_45  and  C85@B_48 
ROOT
HETATM    1  C15   D T1001      -3.950   4.705  -3.603  1.00  8.25     0.113 C 
ENDROOT
BRANCH   1   2
HETATM    2  C14   D T1001      -2.985   4.048  -2.590  1.00  7.75     0.060 C 
BRANCH   2   3
HETATM    3  C13   D T1001      -2.551   4.970  -1.451  1.00  7.71     0.177 C 
HETATM    4  O41   D T1001      -3.340   6.165  -1.426  1.00  8.53    -0.221 OA
BRANCH   3   5
HETATM    5  C12   D T1001      -1.047   5.329  -1.470  1.00  8.17     0.143 C 
BRANCH   5   6
HETATM    6  N11   D T1001      -0.691   6.093  -0.230  1.00  8.56    -0.211 NA
HETATM    7  C10   D T1001      -0.413   7.426  -0.362  1.00  9.54     0.384 C 
HETATM    8  O24   D T1001      -0.570   8.150  -1.329  1.00 10.40    -0.236 OA
BRANCH   7   9
HETATM    9  O7    D T1001       0.112   7.890   0.804  1.00 13.31    -0.278 OA
BRANCH   9  10
HETATM   10  C6    D T1001       0.984   9.028   0.583  1.00 21.32     0.188 C 
BRANCH  10  11
HETATM   11  C2    D T1001       2.404   8.648   0.532  1.00 19.63     0.058 A 
HETATM   12  C1    D T1001       3.051   7.872  -0.424  1.00 18.64     0.104 A 
HETATM   13  N5    D T1001       4.413   7.673  -0.216  1.00 24.03    -0.235 NA
HETATM   14  C4    D T1001       4.809   8.287   0.890  1.00 26.08     0.134 A 
HETATM   15  S3    D T1001       3.548   9.119   1.696  1.00 24.78    -0.066 SA
ENDBRANCH  10  11
ENDBRANCH   9  10
ENDBRANCH   7   9
ENDBRANCH   5   6
BRANCH   5  16
HETATM   16  C26   D T1001      -0.144   4.064  -1.577  1.00  9.89     0.053 C 
BRANCH  16  17
HETATM   17  C28   D T1001       1.273   4.376  -1.992  1.00 10.53    -0.020 A 
HETATM   18  C31   D T1001       2.315   3.537  -1.557  1.00 10.31    -0.004 A 
HETATM   19  C32   D T1001       3.645   3.818  -1.953  1.00 11.41    -0.000 A 
HETATM   20  C33   D T1001       3.918   4.920  -2.771  1.00 13.64    -0.000 A 
HETATM   21  C34   D T1001       2.882   5.740  -3.204  1.00 13.54    -0.000 A 
HETATM   22  C35   D T1001       1.555   5.481  -2.809  1.00 13.00    -0.004 A 
ENDBRANCH  16  17
ENDBRANCH   5  16
ENDBRANCH   3   5
ENDBRANCH   2   3
ENDBRANCH   1   2
BRANCH   1  23
HETATM   23  C44   D T1001      -5.131   3.791  -3.994  1.00  9.33     0.051 C 
BRANCH  23  24
HETATM   24  C45   D T1001      -6.363   4.444  -4.592  1.00  9.99    -0.020 A 
HETATM   25  C48   D T1001      -6.719   5.761  -4.325  1.00 10.42    -0.004 A 
HETATM   26  C49   D T1001      -7.870   6.334  -4.868  1.00 12.60    -0.000 A 
HETATM   27  C50   D T1001      -8.690   5.546  -5.693  1.00 12.24    -0.000 A 
HETATM   28  C51   D T1001      -8.359   4.240  -5.982  1.00 13.41    -0.000 A 
HETATM   29  C52   D T1001      -7.199   3.696  -5.434  1.00 11.46    -0.004 A 
ENDBRANCH  23  24
ENDBRANCH   1  23
BRANCH   1  30
HETATM   30  N58   D T1001      -3.123   5.095  -4.758  1.00  8.28    -0.238 NA
HETATM   31  C18   D T1001      -3.029   6.428  -5.066  1.00  8.88     0.274 C 
HETATM   32  O61   D T1001      -3.621   7.284  -4.422  1.00 11.15    -0.268 OA
BRANCH  31  33
HETATM   33  C19   D T1001      -2.159   6.704  -6.315  1.00  8.22     0.188 C 
BRANCH  33  34
HETATM   34  N20   D T1001      -2.382   8.138  -6.631  1.00  9.06    -0.211 NA
HETATM   35  C21   D T1001      -3.140   8.440  -7.750  1.00  7.77     0.343 C 
HETATM   36  N74   D T1001      -3.273   9.804  -8.020  1.00  9.58    -0.294 N 
HETATM   37  O76   D T1001      -3.564   7.563  -8.498  1.00  8.28    -0.245 OA
HETATM   38  C95   D T1001      -2.657  10.857  -7.221  1.00 12.13     0.131 C 
BRANCH  36  39
HETATM   39  C75   D T1001      -3.970  10.191  -9.243  1.00 11.33     0.152 C 
BRANCH  39  40
HETATM   40  C77   D T1001      -3.050  10.407 -10.403  1.00 11.34     0.083 A 
HETATM   41  C80   D T1001      -2.665  11.645 -10.858  1.00 12.89     0.049 A 
HETATM   42  S81   D T1001      -1.605  11.455 -12.183  1.00 18.25    -0.091 SA
HETATM   43  C82   D T1001      -1.728   9.753 -12.061  1.00 17.46     0.127 A 
HETATM   44  N83   D T1001      -2.517   9.350 -11.116  1.00 15.61    -0.266 NA
BRANCH  43  45
HETATM   45  C85A  D T1001      -0.936   8.919 -13.043  0.65 20.47     0.030 C 
HETATM   46  C86A  D T1001       0.033   7.992 -12.338  0.65 21.84     0.003 C 
HETATM   47  C90A  D T1001      -1.865   8.179 -14.012  0.65 25.77     0.003 C 
ENDBRANCH  43  45
BRANCH  43  48
HETATM   48  C85B  D T1001      -0.964   8.869 -13.013  0.35 20.27     0.030 C 
HETATM   49  C86B  D T1001      -1.266   9.175 -14.474  0.35 19.26     0.003 C 
HETATM   50  C90B  D T1001       0.507   8.703 -12.702  0.35 21.00     0.003 C 
ENDBRANCH  43  48
ENDBRANCH  39  40
ENDBRANCH  36  39
ENDBRANCH  33  34
BRANCH  33  51
HETATM   51  C62   D T1001      -0.686   6.419  -5.928  1.00  9.40     0.032 C 
HETATM   52  C64   D T1001       0.185   6.409  -7.179  1.00 11.21     0.003 C 
HETATM   53  C68   D T1001      -0.206   7.517  -4.956  1.00 11.67     0.003 C 
ENDBRANCH  33  51
ENDBRANCH  31  33
ENDBRANCH   1  30
TORSDOF 19
ENDMDL
MODEL 8
REMARK VINA RESULT:    -8.687      2.612      8.919
REMARK INTER + INTRA:         -20.833
REMARK INTER:                 -17.857
REMARK INTRA:                  -2.976
REMARK UNBOUND:                -3.006
REMARK  19 active torsions:
REMARK  status: ('A' for Active; 'I' for Inactive)
REMARK    1  A    between atoms: C2_2  and  C6_6 
REMARK    2  A    between atoms: C6_6  and  O7_7 
REMARK    3  A    between atoms: O7_7  and  C10_8 
REMARK       I    between atoms: C10_8  and  N11_10 
REMARK    4  A    between atoms: N11_10  and  C12_11 
REMARK    5  A    between atoms: C12_11  and  C13_12 
REMARK    6  A    between atoms: C12_11  and  C26_15 
REMARK    7  A    between atoms: C13_12  and  C14_13 
REMARK    8  A    between atoms: C14_13  and  C15_14 
REMARK    9  A    between atoms: C15_14  and  C44_23 
REMARK   10  A    between atoms: C15_14  and  N58_30 
REMARK   11  A    between atoms: C26_15  and  C28_16 
REMARK   12  A    between atoms: C44_23  and  C45_24 
REMARK       I    between atoms: N58_30  and  C18_33 
REMARK   13  A    between atoms: N20_31  and  C19_32 
REMARK       I    between atoms: N20_31  and  C21_38 
REMARK   14  A    between atoms: C19_32  and  C18_33 
REMARK   15  A    between atoms: C19_32  and  C62_35 
REMARK       I    between atoms: C21_38  and  N74_39 
REMARK   16  A    between atoms: N74_39  and  C75_40 
REMARK   17  A    between atoms: C75_40  and  C77_42 
REMARK   18  A    between atoms: C82_45  and  C85@A_47 
REMARK   19  A    between atoms: C82_45  and  C85@B_48 
ROOT
HETATM    1  C15   D T1001      -5.330   7.207  -5.956  1.00  8.25     0.113 C 
ENDROOT
BRANCH   1   2
HETATM    2  C14   D T1001      -4.488   8.404  -6.450  1.00  7.75     0.060 C 
BRANCH   2   3
HETATM    3  C13   D T1001      -3.941   8.240  -7.869  1.00  7.71     0.177 C 
HETATM    4  O41   D T1001      -3.647   6.868  -8.152  1.00  8.53    -0.221 OA
BRANCH   3   5
HETATM    5  C12   D T1001      -2.706   9.120  -8.171  1.00  8.17     0.143 C 
BRANCH   5   6
HETATM    6  N11   D T1001      -2.585  10.199  -7.138  1.00  8.56    -0.211 NA
HETATM    7  C10   D T1001      -2.928  11.472  -7.504  1.00  9.54     0.384 C 
HETATM    8  O24   D T1001      -3.485  11.854  -8.517  1.00 10.40    -0.236 OA
BRANCH   7   9
HETATM    9  O7    D T1001      -2.534  12.337  -6.531  1.00 13.31    -0.278 OA
BRANCH   9  10
HETATM   10  C6    D T1001      -3.653  13.094  -6.002  1.00 21.32     0.188 C 
BRANCH  10  11
HETATM   11  C2    D T1001      -4.594  12.252  -5.247  1.00 19.63     0.058 A 
HETATM   12  C1    D T1001      -4.334  11.459  -4.134  1.00 18.64     0.104 A 
HETATM   13  N5    D T1001      -5.427  10.765  -3.621  1.00 24.03    -0.235 NA
HETATM   14  C4    D T1001      -6.515  11.018  -4.334  1.00 26.08     0.134 A 
HETATM   15  S3    D T1001      -6.242  12.102  -5.632  1.00 24.78    -0.066 SA
ENDBRANCH  10  11
ENDBRANCH   9  10
ENDBRANCH   7   9
ENDBRANCH   5   6
BRANCH   5  16
HETATM   16  C26   D T1001      -1.388   8.288  -8.209  1.00  9.89     0.053 C 
BRANCH  16  17
HETATM   17  C28   D T1001      -0.865   8.061  -9.606  1.00 10.53    -0.020 A 
HETATM   18  C31   D T1001      -1.564   8.608 -10.696  1.00 10.31    -0.004 A 
HETATM   19  C32   D T1001      -1.072   8.407 -12.008  1.00 11.41    -0.000 A 
HETATM   20  C33   D T1001       0.100   7.672 -12.216  1.00 13.64    -0.000 A 
HETATM   21  C34   D T1001       0.791   7.142 -11.132  1.00 13.54    -0.000 A 
HETATM   22  C35   D T1001       0.307   7.322  -9.821  1.00 13.00    -0.004 A 
ENDBRANCH  16  17
ENDBRANCH   5  16
ENDBRANCH   3   5
ENDBRANCH   2   3
ENDBRANCH   1   2
BRANCH   1  23
HETATM   23  C44   D T1001      -6.793   7.586  -5.637  1.00  9.33     0.051 C 
BRANCH  23  24
HETATM   24  C45   D T1001      -7.884   6.626  -6.073  1.00  9.99    -0.020 A 
HETATM   25  C48   D T1001      -9.010   7.037  -6.775  1.00 10.42    -0.004 A 
HETATM   26  C49   D T1001     -10.013   6.140  -7.146  1.00 12.60    -0.000 A 
HETATM   27  C50   D T1001      -9.875   4.790  -6.781  1.00 12.24    -0.000 A 
HETATM   28  C51   D T1001      -8.767   4.350  -6.092  1.00 13.41    -0.000 A 
HETATM   29  C52   D T1001      -7.776   5.267  -5.743  1.00 11.46    -0.004 A 
ENDBRANCH  23  24
ENDBRANCH   1  23
BRANCH   1  30
HETATM   30  N58   D T1001      -4.616   6.660  -4.789  1.00  8.28    -0.238 NA
HETATM   31  C18   D T1001      -4.043   5.419  -4.904  1.00  8.88     0.274 C 
HETATM   32  O61   D T1001      -4.126   4.761  -5.932  1.00 11.15    -0.268 OA
BRANCH  31  33
HETATM   33  C19   D T1001      -3.350   4.946  -3.605  1.00  8.22     0.188 C 
BRANCH  33  34
HETATM   34  N20   D T1001      -2.363   6.009  -3.284  1.00  9.06    -0.211 NA
HETATM   35  C21   D T1001      -1.141   5.969  -3.934  1.00  7.77     0.343 C 
HETATM   36  N74   D T1001      -0.241   6.967  -3.553  1.00  9.58    -0.294 N 
HETATM   37  O76   D T1001      -0.848   5.056  -4.701  1.00  8.28    -0.245 OA
HETATM   38  C95   D T1001      -0.522   7.976  -2.539  1.00 12.13     0.131 C 
BRANCH  36  39
HETATM   39  C75   D T1001       1.105   6.922  -4.120  1.00 11.33     0.152 C 
BRANCH  39  40
HETATM   40  C77   D T1001       2.143   6.477  -3.140  1.00 11.34     0.083 A 
HETATM   41  C80   D T1001       2.185   5.222  -2.581  1.00 12.89     0.049 A 
HETATM   42  S81   D T1001       3.526   5.116  -1.531  1.00 18.25    -0.091 SA
HETATM   43  C82   D T1001       3.959   6.731  -1.889  1.00 17.46     0.127 A 
HETATM   44  N83   D T1001       3.153   7.320  -2.716  1.00 15.61    -0.266 NA
BRANCH  43  45
HETATM   45  C85A  D T1001       5.192   7.295  -1.220  0.65 20.47     0.030 C 
HETATM   46  C86A  D T1001       6.151   7.896  -2.226  0.65 21.84     0.003 C 
HETATM   47  C90A  D T1001       4.814   8.275  -0.103  0.65 25.77     0.003 C 
ENDBRANCH  43  45
BRANCH  43  48
HETATM   48  C85B  D T1001       5.176   7.349  -1.252  0.35 20.27     0.030 C 
HETATM   49  C86B  D T1001       6.150   7.921  -2.273  0.35 19.26     0.003 C 
HETATM   50  C90B  D T1001       4.901   8.259  -0.076  0.35 21.00     0.003 C 
ENDBRANCH  43  48
ENDBRANCH  39  40
ENDBRANCH  36  39
ENDBRANCH  33  34
BRANCH  33  51
HETATM   51  C62   D T1001      -4.443   4.822  -2.513  1.00  9.40     0.032 C 
HETATM   52  C64   D T1001      -4.984   3.397  -2.482  1.00 11.21     0.003 C 
HETATM   53  C68   D T1001      -3.823   5.184  -1.147  1.00 11.67     0.003 C 
ENDBRANCH  33  51
ENDBRANCH  31  33
ENDBRANCH   1  30
TORSDOF 19
ENDMDL
MODEL 9
REMARK VINA RESULT:    -8.636      2.130      3.913
REMARK INTER + INTRA:         -20.729
REMARK INTER:                 -17.064
REMARK INTRA:                  -3.666
REMARK UNBOUND:                -3.006
REMARK  19 active torsions:
REMARK  status: ('A' for Active; 'I' for Inactive)
REMARK    1  A    between atoms: C2_2  and  C6_6 
REMARK    2  A    between atoms: C6_6  and  O7_7 
REMARK    3  A    between atoms: O7_7  and  C10_8 
REMARK       I    between atoms: C10_8  and  N11_10 
REMARK    4  A    between atoms: N11_10  and  C12_11 
REMARK    5  A    between atoms: C12_11  and  C13_12 
REMARK    6  A    between atoms: C12_11  and  C26_15 
REMARK    7  A    between atoms: C13_12  and  C14_13 
REMARK    8  A    between atoms: C14_13  and  C15_14 
REMARK    9  A    between atoms: C15_14  and  C44_23 
REMARK   10  A    between atoms: C15_14  and  N58_30 
REMARK   11  A    between atoms: C26_15  and  C28_16 
REMARK   12  A    between atoms: C44_23  and  C45_24 
REMARK       I    between atoms: N58_30  and  C18_33 
REMARK   13  A    between atoms: N20_31  and  C19_32 
REMARK       I    between atoms: N20_31  and  C21_38 
REMARK   14  A    between atoms: C19_32  and  C18_33 
REMARK   15  A    between atoms: C19_32  and  C62_35 
REMARK       I    between atoms: C21_38  and  N74_39 
REMARK   16  A    between atoms: N74_39  and  C75_40 
REMARK   17  A    between atoms: C75_40  and  C77_42 
REMARK   18  A    between atoms: C82_45  and  C85@A_47 
REMARK   19  A    between atoms: C82_45  and  C85@B_48 
ROOT
HETATM    1  C15   D T1001      -4.360   8.186  -2.687  1.00  8.25     0.113 C 
ENDROOT
BRANCH   1   2
HETATM    2  C14   D T1001      -3.519   7.278  -1.762  1.00  7.75     0.060 C 
BRANCH   2   3
HETATM    3  C13   D T1001      -4.103   5.880  -1.560  1.00  7.71     0.177 C 
HETATM    4  O41   D T1001      -3.943   5.445  -0.205  1.00  8.53    -0.221 OA
BRANCH   3   5
HETATM    5  C12   D T1001      -3.534   4.816  -2.528  1.00  8.17     0.143 C 
BRANCH   5   6
HETATM    6  N11   D T1001      -2.352   4.140  -1.902  1.00  8.56    -0.211 NA
HETATM    7  C10   D T1001      -1.133   4.307  -2.500  1.00  9.54     0.384 C 
HETATM    8  O24   D T1001      -0.816   5.070  -3.395  1.00 10.40    -0.236 OA
BRANCH   7   9
HETATM    9  O7    D T1001      -0.241   3.444  -1.944  1.00 13.31    -0.278 OA
BRANCH   9  10
HETATM   10  C6    D T1001       0.446   4.039  -0.813  1.00 21.32     0.188 C 
BRANCH  10  11
HETATM   11  C2    D T1001       1.794   4.515  -1.160  1.00 19.63     0.058 A 
HETATM   12  C1    D T1001       2.712   3.937  -2.029  1.00 18.64     0.104 A 
HETATM   13  N5    D T1001       3.920   4.614  -2.167  1.00 24.03    -0.235 NA
HETATM   14  C4    D T1001       3.934   5.700  -1.408  1.00 26.08     0.134 A 
HETATM   15  S3    D T1001       2.487   5.928  -0.520  1.00 24.78    -0.066 SA
ENDBRANCH  10  11
ENDBRANCH   9  10
ENDBRANCH   7   9
ENDBRANCH   5   6
BRANCH   5  16
HETATM   16  C26   D T1001      -4.599   3.745  -2.914  1.00  9.89     0.053 C 
BRANCH  16  17
HETATM   17  C28   D T1001      -5.768   4.315  -3.680  1.00 10.53    -0.020 A 
HETATM   18  C31   D T1001      -5.549   4.858  -4.958  1.00 10.31    -0.004 A 
HETATM   19  C32   D T1001      -6.644   5.384  -5.687  1.00 11.41    -0.000 A 
HETATM   20  C33   D T1001      -7.931   5.359  -5.138  1.00 13.64    -0.000 A 
HETATM   21  C34   D T1001      -8.140   4.812  -3.877  1.00 13.54    -0.000 A 
HETATM   22  C35   D T1001      -7.060   4.297  -3.135  1.00 13.00    -0.004 A 
ENDBRANCH  16  17
ENDBRANCH   5  16
ENDBRANCH   3   5
ENDBRANCH   2   3
ENDBRANCH   1   2
BRANCH   1  23
HETATM   23  C44   D T1001      -5.878   7.928  -2.572  1.00  9.33     0.051 C 
BRANCH  23  24
HETATM   24  C45   D T1001      -6.819   8.994  -3.103  1.00  9.99    -0.020 A 
HETATM   25  C48   D T1001      -7.320  10.017  -2.307  1.00 10.42    -0.004 A 
HETATM   26  C49   D T1001      -8.202  10.974  -2.811  1.00 12.60    -0.000 A 
HETATM   27  C50   D T1001      -8.599  10.882  -4.155  1.00 12.24    -0.000 A 
HETATM   28  C51   D T1001      -8.115   9.883  -4.971  1.00 13.41    -0.000 A 
HETATM   29  C52   D T1001      -7.227   8.946  -4.444  1.00 11.46    -0.004 A 
ENDBRANCH  23  24
ENDBRANCH   1  23
BRANCH   1  30
HETATM   30  N58   D T1001      -3.846   7.967  -4.050  1.00  8.28    -0.238 NA
HETATM   31  C18   D T1001      -3.530   9.066  -4.807  1.00  8.88     0.274 C 
HETATM   32  O61   D T1001      -3.680  10.205  -4.387  1.00 11.15    -0.268 OA
BRANCH  31  33
HETATM   33  C19   D T1001      -3.030   8.704  -6.225  1.00  8.22     0.188 C 
BRANCH  33  34
HETATM   34  N20   D T1001      -2.696  10.005  -6.860  1.00  9.06    -0.211 NA
HETATM   35  C21   D T1001      -3.239  10.271  -8.106  1.00  7.77     0.343 C 
HETATM   36  N74   D T1001      -2.849  11.488  -8.669  1.00  9.58    -0.294 N 
HETATM   37  O76   D T1001      -3.921   9.442  -8.703  1.00  8.28    -0.245 OA
HETATM   38  C95   D T1001      -1.926  12.422  -8.035  1.00 12.13     0.131 C 
BRANCH  36  39
HETATM   39  C75   D T1001      -3.299  11.785 -10.026  1.00 11.33     0.152 C 
BRANCH  39  40
HETATM   40  C77   D T1001      -2.280  11.458 -11.071  1.00 11.34     0.083 A 
HETATM   41  C80   D T1001      -1.601  12.400 -11.805  1.00 12.89     0.049 A 
HETATM   42  S81   D T1001      -0.524  11.617 -12.873  1.00 18.25    -0.091 SA
HETATM   43  C82   D T1001      -1.029  10.089 -12.291  1.00 17.46     0.127 A 
HETATM   44  N83   D T1001      -1.949  10.152 -11.380  1.00 15.61    -0.266 NA
BRANCH  43  45
HETATM   45  C85A  D T1001      -0.379   8.860 -12.886  0.65 20.47     0.030 C 
HETATM   46  C86A  D T1001       0.091   7.900 -11.813  0.65 21.84     0.003 C 
HETATM   47  C90A  D T1001      -1.299   8.194 -13.915  0.65 25.77     0.003 C 
ENDBRANCH  43  45
BRANCH  43  48
HETATM   48  C85B  D T1001      -0.419   8.828 -12.846  0.35 20.27     0.030 C 
HETATM   49  C86B  D T1001       0.833   9.092 -13.672  0.35 19.26     0.003 C 
HETATM   50  C90B  D T1001      -0.287   7.686 -11.863  0.35 21.00     0.003 C 
ENDBRANCH  43  48
ENDBRANCH  39  40
ENDBRANCH  36  39
ENDBRANCH  33  34
BRANCH  33  51
HETATM   51  C62   D T1001      -1.781   7.801  -6.063  1.00  9.40     0.032 C 
HETATM   52  C64   D T1001      -2.175   6.338  -6.233  1.00 11.21     0.003 C 
HETATM   53  C68   D T1001      -0.740   8.199  -7.130  1.00 11.67     0.003 C 
ENDBRANCH  33  51
ENDBRANCH  31  33
ENDBRANCH   1  30
TORSDOF 19
ENDMDL
