MODEL 1
REMARK VINA RESULT:    -9.000      0.000      0.000
REMARK INTER + INTRA:         -22.689
REMARK INTER:                 -18.470
REMARK INTRA:                  -4.219
REMARK UNBOUND:                -4.219
REMARK  19 active torsions:
REMARK  status: ('A' for Active; 'I' for Inactive)
REMARK    1  A    between atoms: C2_2  and  C6_6 
REMARK    2  A    between atoms: C6_6  and  O7_7 
REMARK    3  A    between atoms: O7_7  and  C10_8 
REMARK       I    between atoms: C10_8  and  N11_10 
REMARK    4  A    between atoms: N11_10  and  C12_11 
REMARK    5  A    between atoms: C12_11  and  C13_12 
REMARK    6  A    between atoms: C12_11  and  C26_15 
REMARK    7  A    between atoms: C13_12  and  C14_13 
REMARK    8  A    between atoms: C14_13  and  C15_14 
REMARK    9  A    between atoms: C15_14  and  C44_23 
REMARK   10  A    between atoms: C15_14  and  N58_30 
REMARK   11  A    between atoms: C26_15  and  C28_16 
REMARK   12  A    between atoms: C44_23  and  C45_24 
REMARK       I    between atoms: N58_30  and  C18_33 
REMARK   13  A    between atoms: N20_31  and  C19_32 
REMARK       I    between atoms: N20_31  and  C21_38 
REMARK   14  A    between atoms: C19_32  and  C18_33 
REMARK   15  A    between atoms: C19_32  and  C62_35 
REMARK       I    between atoms: C21_38  and  N74_39 
REMARK   16  A    between atoms: N74_39  and  C75_40 
REMARK   17  A    between atoms: C75_40  and  C77_42 
REMARK   18  A    between atoms: C82_45  and  C85@A_47 
REMARK   19  A    between atoms: C82_45  and  C85@B_48 
ROOT
HETATM    1  C15   D T1001       1.538  -7.479   1.659  1.00  8.25     0.113 C 
ENDROOT
BRANCH   1   2
HETATM    2  C14   D T1001       2.627  -7.391   2.751  1.00  7.75     0.060 C 
BRANCH   2   3
HETATM    3  C13   D T1001       2.942  -5.965   3.205  1.00  7.71     0.177 C 
HETATM    4  O41   D T1001       4.328  -5.822   3.529  1.00  8.53    -0.221 OA
BRANCH   3   5
HETATM    5  C12   D T1001       2.068  -5.472   4.382  1.00  8.17     0.143 C 
BRANCH   5   6
HETATM    6  N11   D T1001       1.296  -6.623   4.957  1.00  8.56    -0.211 NA
HETATM    7  C10   D T1001      -0.059  -6.481   5.081  1.00  9.54     0.384 C 
HETATM    8  O24   D T1001      -0.781  -5.606   4.639  1.00 10.40    -0.236 OA
BRANCH   7   9
HETATM    9  O7    D T1001      -0.548  -7.508   5.827  1.00 13.31    -0.278 OA
BRANCH   9  10
HETATM   10  C6    D T1001      -0.925  -8.639   5.000  1.00 21.32     0.188 C 
BRANCH  10  11
HETATM   11  C2    D T1001      -2.381  -8.839   4.949  1.00 19.63     0.058 A 
HETATM   12  C1    D T1001      -3.157  -9.226   3.862  1.00 18.64     0.104 A 
HETATM   13  N5    D T1001      -4.523  -9.336   4.107  1.00 24.03    -0.235 NA
HETATM   14  C4    D T1001      -4.796  -9.033   5.368  1.00 26.08     0.134 A 
HETATM   15  S3    D T1001      -3.410  -8.617   6.283  1.00 24.78    -0.066 SA
ENDBRANCH  10  11
ENDBRANCH   9  10
ENDBRANCH   7   9
ENDBRANCH   5   6
BRANCH   5  16
HETATM   16  C26   D T1001       2.918  -4.807   5.506  1.00  9.89     0.053 C 
BRANCH  16  17
HETATM   17  C28   D T1001       2.605  -3.344   5.704  1.00 10.53    -0.020 A 
HETATM   18  C31   D T1001       2.362  -2.865   7.004  1.00 10.31    -0.004 A 
HETATM   19  C32   D T1001       2.080  -1.492   7.197  1.00 11.41    -0.000 A 
HETATM   20  C33   D T1001       2.044  -0.620   6.103  1.00 13.64    -0.000 A 
HETATM   21  C34   D T1001       2.294  -1.099   4.821  1.00 13.54    -0.000 A 
HETATM   22  C35   D T1001       2.564  -2.466   4.612  1.00 13.00    -0.004 A 
ENDBRANCH  16  17
ENDBRANCH   5  16
ENDBRANCH   3   5
ENDBRANCH   2   3
ENDBRANCH   1   2
BRANCH   1  23
HETATM   23  C44   D T1001       1.753  -8.658   0.684  1.00  9.33     0.051 C 
BRANCH  23  24
HETATM   24  C45   D T1001       1.032  -8.614  -0.650  1.00  9.99    -0.020 A 
HETATM   25  C48   D T1001       1.688  -8.375  -1.851  1.00 10.42    -0.004 A 
HETATM   26  C49   D T1001       1.002  -8.316  -3.065  1.00 12.60    -0.000 A 
HETATM   27  C50   D T1001      -0.392  -8.493  -3.058  1.00 12.24    -0.000 A 
HETATM   28  C51   D T1001      -1.070  -8.739  -1.885  1.00 13.41    -0.000 A 
HETATM   29  C52   D T1001      -0.357  -8.801  -0.688  1.00 11.46    -0.004 A 
ENDBRANCH  23  24
ENDBRANCH   1  23
BRANCH   1  30
HETATM   30  N58   D T1001       1.535  -6.173   0.979  1.00  8.28    -0.238 NA
HETATM   31  C18   D T1001       0.364  -5.455   0.960  1.00  8.88     0.274 C 
HETATM   32  O61   D T1001      -0.662  -5.881   1.470  1.00 11.15    -0.268 OA
BRANCH  31  33
HETATM   33  C19   D T1001       0.485  -4.118   0.192  1.00  8.22     0.188 C 
BRANCH  33  34
HETATM   34  N20   D T1001       1.935  -3.957  -0.077  1.00  9.06    -0.211 NA
HETATM   35  C21   D T1001       2.647  -3.085   0.730  1.00  7.77     0.343 C 
HETATM   36  N74   D T1001       3.995  -2.942   0.396  1.00  9.58    -0.294 N 
HETATM   37  O76   D T1001       2.096  -2.417   1.601  1.00  8.28    -0.245 OA
HETATM   38  C95   D T1001       4.635  -3.622  -0.725  1.00 12.13     0.131 C 
BRANCH  36  39
HETATM   39  C75   D T1001       4.781  -1.960   1.138  1.00 11.33     0.152 C 
BRANCH  39  40
HETATM   40  C77   D T1001       5.623  -2.569   2.212  1.00 11.34     0.083 A 
HETATM   41  C80   D T1001       6.461  -3.642   2.018  1.00 12.89     0.049 A 
HETATM   42  S81   D T1001       7.249  -4.018   3.485  1.00 18.25    -0.091 SA
HETATM   43  C82   D T1001       6.430  -2.739   4.273  1.00 17.46     0.127 A 
HETATM   44  N83   D T1001       5.613  -2.088   3.508  1.00 15.61    -0.266 NA
BRANCH  43  45
HETATM   45  C85A  D T1001       6.728  -2.511   5.739  0.65 20.47     0.030 C 
HETATM   46  C86A  D T1001       8.171  -2.107   5.962  0.65 21.84     0.003 C 
HETATM   47  C90A  D T1001       5.733  -1.521   6.356  0.65 25.77     0.003 C 
ENDBRANCH  43  45
BRANCH  43  48
HETATM   48  C85B  D T1001       6.683  -2.464   5.733  0.35 20.27     0.030 C 
HETATM   49  C86B  D T1001       8.159  -2.260   6.047  0.35 19.26     0.003 C 
HETATM   50  C90B  D T1001       5.764  -1.445   6.370  0.35 21.00     0.003 C 
ENDBRANCH  43  48
ENDBRANCH  39  40
ENDBRANCH  36  39
ENDBRANCH  33  34
BRANCH  33  51
HETATM   51  C62   D T1001      -0.336  -4.257  -1.116  1.00  9.40     0.032 C 
HETATM   52  C64   D T1001      -1.489  -3.259  -1.111  1.00 11.21     0.003 C 
HETATM   53  C68   D T1001       0.595  -3.990  -2.316  1.00 11.67     0.003 C 
ENDBRANCH  33  51
ENDBRANCH  31  33
ENDBRANCH   1  30
TORSDOF 19
ENDMDL
MODEL 2
REMARK VINA RESULT:    -8.430      2.368      8.478
REMARK INTER + INTRA:         -21.519
REMARK INTER:                 -17.976
REMARK INTRA:                  -3.543
REMARK UNBOUND:                -4.219
REMARK  19 active torsions:
REMARK  status: ('A' for Active; 'I' for Inactive)
REMARK    1  A    between atoms: C2_2  and  C6_6 
REMARK    2  A    between atoms: C6_6  and  O7_7 
REMARK    3  A    between atoms: O7_7  and  C10_8 
REMARK       I    between atoms: C10_8  and  N11_10 
REMARK    4  A    between atoms: N11_10  and  C12_11 
REMARK    5  A    between atoms: C12_11  and  C13_12 
REMARK    6  A    between atoms: C12_11  and  C26_15 
REMARK    7  A    between atoms: C13_12  and  C14_13 
REMARK    8  A    between atoms: C14_13  and  C15_14 
REMARK    9  A    between atoms: C15_14  and  C44_23 
REMARK   10  A    between atoms: C15_14  and  N58_30 
REMARK   11  A    between atoms: C26_15  and  C28_16 
REMARK   12  A    between atoms: C44_23  and  C45_24 
REMARK       I    between atoms: N58_30  and  C18_33 
REMARK   13  A    between atoms: N20_31  and  C19_32 
REMARK       I    between atoms: N20_31  and  C21_38 
REMARK   14  A    between atoms: C19_32  and  C18_33 
REMARK   15  A    between atoms: C19_32  and  C62_35 
REMARK       I    between atoms: C21_38  and  N74_39 
REMARK   16  A    between atoms: N74_39  and  C75_40 
REMARK   17  A    between atoms: C75_40  and  C77_42 
REMARK   18  A    between atoms: C82_45  and  C85@A_47 
REMARK   19  A    between atoms: C82_45  and  C85@B_48 
ROOT
HETATM    1  C15   D T1001       3.750  -6.426   0.360  1.00  8.25     0.113 C 
ENDROOT
BRANCH   1   2
HETATM    2  C14   D T1001       4.274  -6.195   1.794  1.00  7.75     0.060 C 
BRANCH   2   3
HETATM    3  C13   D T1001       5.021  -4.873   1.982  1.00  7.71     0.177 C 
HETATM    4  O41   D T1001       6.273  -5.078   2.643  1.00  8.53    -0.221 OA
BRANCH   3   5
HETATM    5  C12   D T1001       4.203  -3.788   2.719  1.00  8.17     0.143 C 
BRANCH   5   6
HETATM    6  N11   D T1001       4.310  -3.992   4.201  1.00  8.56    -0.211 NA
HETATM    7  C10   D T1001       3.148  -4.152   4.907  1.00  9.54     0.384 C 
HETATM    8  O24   D T1001       2.016  -4.320   4.491  1.00 10.40    -0.236 OA
BRANCH   7   9
HETATM    9  O7    D T1001       3.422  -4.085   6.238  1.00 13.31    -0.278 OA
BRANCH   9  10
HETATM   10  C6    D T1001       3.201  -2.750   6.763  1.00 21.32     0.188 C 
BRANCH  10  11
HETATM   11  C2    D T1001       4.401  -2.189   7.400  1.00 19.63     0.058 A 
HETATM   12  C1    D T1001       5.560  -1.723   6.789  1.00 18.64     0.104 A 
HETATM   13  N5    D T1001       6.544  -1.243   7.649  1.00 24.03    -0.235 NA
HETATM   14  C4    D T1001       6.148  -1.341   8.909  1.00 26.08     0.134 A 
HETATM   15  S3    D T1001       4.580  -2.009   9.081  1.00 24.78    -0.066 SA
ENDBRANCH  10  11
ENDBRANCH   9  10
ENDBRANCH   7   9
ENDBRANCH   5   6
BRANCH   5  16
HETATM   16  C26   D T1001       4.679  -2.348   2.361  1.00  9.89     0.053 C 
BRANCH  16  17
HETATM   17  C28   D T1001       3.803  -1.267   2.945  1.00 10.53    -0.020 A 
HETATM   18  C31   D T1001       4.391  -0.256   3.726  1.00 10.31    -0.004 A 
HETATM   19  C32   D T1001       3.577   0.766   4.267  1.00 11.41    -0.000 A 
HETATM   20  C33   D T1001       2.198   0.771   4.024  1.00 13.64    -0.000 A 
HETATM   21  C34   D T1001       1.625  -0.227   3.243  1.00 13.54    -0.000 A 
HETATM   22  C35   D T1001       2.421  -1.258   2.708  1.00 13.00    -0.004 A 
ENDBRANCH  16  17
ENDBRANCH   5  16
ENDBRANCH   3   5
ENDBRANCH   2   3
ENDBRANCH   1   2
BRANCH   1  23
HETATM   23  C44   D T1001       3.526  -5.112  -0.420  1.00  9.33     0.051 C 
BRANCH  23  24
HETATM   24  C45   D T1001       2.116  -4.554  -0.478  1.00  9.99    -0.020 A 
HETATM   25  C48   D T1001       1.446  -4.090   0.646  1.00 10.42    -0.004 A 
HETATM   26  C49   D T1001       0.140  -3.602   0.573  1.00 12.60    -0.000 A 
HETATM   27  C50   D T1001      -0.508  -3.599  -0.673  1.00 12.24    -0.000 A 
HETATM   28  C51   D T1001       0.133  -4.046  -1.807  1.00 13.41    -0.000 A 
HETATM   29  C52   D T1001       1.441  -4.520  -1.706  1.00 11.46    -0.004 A 
ENDBRANCH  23  24
ENDBRANCH   1  23
BRANCH   1  30
HETATM   30  N58   D T1001       2.519  -7.221   0.498  1.00  8.28    -0.238 NA
HETATM   31  C18   D T1001       2.244  -8.163  -0.463  1.00  8.88     0.274 C 
HETATM   32  O61   D T1001       2.979  -8.336  -1.424  1.00 11.15    -0.268 OA
BRANCH  31  33
HETATM   33  C19   D T1001       0.911  -8.909  -0.218  1.00  8.22     0.188 C 
BRANCH  33  34
HETATM   34  N20   D T1001       0.334  -8.280   0.995  1.00  9.06    -0.211 NA
HETATM   35  C21   D T1001       0.075  -9.097   2.083  1.00  7.77     0.343 C 
HETATM   36  N74   D T1001      -0.512  -8.454   3.175  1.00  9.58    -0.294 N 
HETATM   37  O76   D T1001       0.255 -10.311   2.035  1.00  8.28    -0.245 OA
HETATM   38  C95   D T1001      -0.862  -7.038   3.197  1.00 12.13     0.131 C 
BRANCH  36  39
HETATM   39  C75   D T1001      -0.908  -9.275   4.316  1.00 11.33     0.152 C 
BRANCH  39  40
HETATM   40  C77   D T1001      -2.356  -9.143   4.662  1.00 11.34     0.083 A 
HETATM   41  C80   D T1001      -2.824  -8.491   5.778  1.00 12.89     0.049 A 
HETATM   42  S81   D T1001      -4.531  -8.555   5.798  1.00 18.25    -0.091 SA
HETATM   43  C82   D T1001      -4.531  -9.438   4.332  1.00 17.46     0.127 A 
HETATM   44  N83   D T1001      -3.348  -9.686   3.867  1.00 15.61    -0.266 NA
BRANCH  43  45
HETATM   45  C85A  D T1001      -5.871  -9.833   3.750  0.65 20.47     0.030 C 
HETATM   46  C86A  D T1001      -6.387  -8.795   2.775  0.65 21.84     0.003 C 
HETATM   47  C90A  D T1001      -5.813 -11.240   3.143  0.65 25.77     0.003 C 
ENDBRANCH  43  45
BRANCH  43  48
HETATM   48  C85B  D T1001      -5.834  -9.861   3.704  0.35 20.27     0.030 C 
HETATM   49  C86B  D T1001      -6.123 -11.345   3.889  0.35 19.26     0.003 C 
HETATM   50  C90B  D T1001      -7.014  -8.957   3.986  0.35 21.00     0.003 C 
ENDBRANCH  43  48
ENDBRANCH  39  40
ENDBRANCH  36  39
ENDBRANCH  33  34
BRANCH  33  51
HETATM   51  C62   D T1001       0.020  -8.688  -1.467  1.00  9.40     0.032 C 
HETATM   52  C64   D T1001      -0.822  -9.932  -1.729  1.00 11.21     0.003 C 
HETATM   53  C68   D T1001      -0.894  -7.471  -1.214  1.00 11.67     0.003 C 
ENDBRANCH  33  51
ENDBRANCH  31  33
ENDBRANCH   1  30
TORSDOF 19
ENDMDL
MODEL 3
REMARK VINA RESULT:    -8.419      1.890      7.780
REMARK INTER + INTRA:         -21.497
REMARK INTER:                 -17.904
REMARK INTRA:                  -3.594
REMARK UNBOUND:                -4.219
REMARK  19 active torsions:
REMARK  status: ('A' for Active; 'I' for Inactive)
REMARK    1  A    between atoms: C2_2  and  C6_6 
REMARK    2  A    between atoms: C6_6  and  O7_7 
REMARK    3  A    between atoms: O7_7  and  C10_8 
REMARK       I    between atoms: C10_8  and  N11_10 
REMARK    4  A    between atoms: N11_10  and  C12_11 
REMARK    5  A    between atoms: C12_11  and  C13_12 
REMARK    6  A    between atoms: C12_11  and  C26_15 
REMARK    7  A    between atoms: C13_12  and  C14_13 
REMARK    8  A    between atoms: C14_13  and  C15_14 
REMARK    9  A    between atoms: C15_14  and  C44_23 
REMARK   10  A    between atoms: C15_14  and  N58_30 
REMARK   11  A    between atoms: C26_15  and  C28_16 
REMARK   12  A    between atoms: C44_23  and  C45_24 
REMARK       I    between atoms: N58_30  and  C18_33 
REMARK   13  A    between atoms: N20_31  and  C19_32 
REMARK       I    between atoms: N20_31  and  C21_38 
REMARK   14  A    between atoms: C19_32  and  C18_33 
REMARK   15  A    between atoms: C19_32  and  C62_35 
REMARK       I    between atoms: C21_38  and  N74_39 
REMARK   16  A    between atoms: N74_39  and  C75_40 
REMARK   17  A    between atoms: C75_40  and  C77_42 
REMARK   18  A    between atoms: C82_45  and  C85@A_47 
REMARK   19  A    between atoms: C82_45  and  C85@B_48 
ROOT
HETATM    1  C15   D T1001       1.870  -5.212  -1.783  1.00  8.25     0.113 C 
ENDROOT
BRANCH   1   2
HETATM    2  C14   D T1001       1.938  -3.894  -0.980  1.00  7.75     0.060 C 
BRANCH   2   3
HETATM    3  C13   D T1001       1.300  -3.974   0.407  1.00  7.71     0.177 C 
HETATM    4  O41   D T1001       0.098  -3.199   0.467  1.00  8.53    -0.221 OA
BRANCH   3   5
HETATM    5  C12   D T1001       2.249  -3.571   1.560  1.00  8.17     0.143 C 
BRANCH   5   6
HETATM    6  N11   D T1001       3.672  -3.636   1.091  1.00  8.56    -0.211 NA
HETATM    7  C10   D T1001       4.460  -4.638   1.588  1.00  9.54     0.384 C 
HETATM    8  O24   D T1001       4.139  -5.611   2.246  1.00 10.40    -0.236 OA
BRANCH   7   9
HETATM    9  O7    D T1001       5.755  -4.399   1.244  1.00 13.31    -0.278 OA
BRANCH   9  10
HETATM   10  C6    D T1001       6.216  -3.120   1.750  1.00 21.32     0.188 C 
BRANCH  10  11
HETATM   11  C2    D T1001       6.475  -3.147   3.197  1.00 19.63     0.058 A 
HETATM   12  C1    D T1001       7.332  -3.986   3.901  1.00 18.64     0.104 A 
HETATM   13  N5    D T1001       7.376  -3.784   5.278  1.00 24.03    -0.235 NA
HETATM   14  C4    D T1001       6.559  -2.803   5.630  1.00 26.08     0.134 A 
HETATM   15  S3    D T1001       5.727  -2.101   4.308  1.00 24.78    -0.066 SA
ENDBRANCH  10  11
ENDBRANCH   9  10
ENDBRANCH   7   9
ENDBRANCH   5   6
BRANCH   5  16
HETATM   16  C26   D T1001       1.947  -2.140   2.097  1.00  9.89     0.053 C 
BRANCH  16  17
HETATM   17  C28   D T1001       2.095  -2.020   3.594  1.00 10.53    -0.020 A 
HETATM   18  C31   D T1001       2.174  -3.190   4.370  1.00 10.31    -0.004 A 
HETATM   19  C32   D T1001       2.325  -3.084   5.773  1.00 11.41    -0.000 A 
HETATM   20  C33   D T1001       2.397  -1.825   6.381  1.00 13.64    -0.000 A 
HETATM   21  C34   D T1001       2.327  -0.672   5.605  1.00 13.54    -0.000 A 
HETATM   22  C35   D T1001       2.164  -0.762   4.209  1.00 13.00    -0.004 A 
ENDBRANCH  16  17
ENDBRANCH   5  16
ENDBRANCH   3   5
ENDBRANCH   2   3
ENDBRANCH   1   2
BRANCH   1  23
HETATM   23  C44   D T1001       0.742  -5.219  -2.838  1.00  9.33     0.051 C 
BRANCH  23  24
HETATM   24  C45   D T1001       0.067  -6.544  -3.144  1.00  9.99    -0.020 A 
HETATM   25  C48   D T1001       0.531  -7.414  -4.122  1.00 10.42    -0.004 A 
HETATM   26  C49   D T1001      -0.119  -8.617  -4.402  1.00 12.60    -0.000 A 
HETATM   27  C50   D T1001      -1.280  -8.938  -3.679  1.00 12.24    -0.000 A 
HETATM   28  C51   D T1001      -1.760  -8.099  -2.699  1.00 13.41    -0.000 A 
HETATM   29  C52   D T1001      -1.085  -6.908  -2.434  1.00 11.46    -0.004 A 
ENDBRANCH  23  24
ENDBRANCH   1  23
BRANCH   1  30
HETATM   30  N58   D T1001       1.725  -6.288  -0.788  1.00  8.28    -0.238 NA
HETATM   31  C18   D T1001       2.781  -7.145  -0.602  1.00  8.88     0.274 C 
HETATM   32  O61   D T1001       3.814  -7.046  -1.249  1.00 11.15    -0.268 OA
BRANCH  31  33
HETATM   33  C19   D T1001       2.493  -8.246   0.446  1.00  8.22     0.188 C 
BRANCH  33  34
HETATM   34  N20   D T1001       1.480  -7.656   1.356  1.00  9.06    -0.211 NA
HETATM   35  C21   D T1001       1.520  -8.025   2.690  1.00  7.77     0.343 C 
HETATM   36  N74   D T1001       0.512  -7.474   3.484  1.00  9.58    -0.294 N 
HETATM   37  O76   D T1001       2.322  -8.859   3.104  1.00  8.28    -0.245 OA
HETATM   38  C95   D T1001      -0.534  -6.591   2.978  1.00 12.13     0.131 C 
BRANCH  36  39
HETATM   39  C75   D T1001       0.431  -7.903   4.877  1.00 11.33     0.152 C 
BRANCH  39  40
HETATM   40  C77   D T1001      -0.757  -8.764   5.160  1.00 11.34     0.083 A 
HETATM   41  C80   D T1001      -0.821 -10.107   4.870  1.00 12.89     0.049 A 
HETATM   42  S81   D T1001      -2.337 -10.721   5.362  1.00 18.25    -0.091 SA
HETATM   43  C82   D T1001      -2.801  -9.173   5.924  1.00 17.46     0.127 A 
HETATM   44  N83   D T1001      -1.903  -8.257   5.743  1.00 15.61    -0.266 NA
BRANCH  43  45
HETATM   45  C85A  D T1001      -4.173  -9.034   6.547  0.65 20.47     0.030 C 
HETATM   46  C86A  D T1001      -4.108  -8.352   7.898  0.65 21.84     0.003 C 
HETATM   47  C90A  D T1001      -5.148  -8.347   5.583  0.65 25.77     0.003 C 
ENDBRANCH  43  45
BRANCH  43  48
HETATM   48  C85B  D T1001      -4.156  -8.971   6.552  0.35 20.27     0.030 C 
HETATM   49  C86B  D T1001      -4.076  -8.351   7.940  0.35 19.26     0.003 C 
HETATM   50  C90B  D T1001      -5.202  -8.351   5.652  0.35 21.00     0.003 C 
ENDBRANCH  43  48
ENDBRANCH  39  40
ENDBRANCH  36  39
ENDBRANCH  33  34
BRANCH  33  51
HETATM   51  C62   D T1001       1.942  -9.479  -0.315  1.00  9.40     0.032 C 
HETATM   52  C64   D T1001       0.417  -9.464  -0.288  1.00 11.21     0.003 C 
HETATM   53  C68   D T1001       2.449  -9.430  -1.771  1.00 11.67     0.003 C 
ENDBRANCH  33  51
ENDBRANCH  31  33
ENDBRANCH   1  30
TORSDOF 19
ENDMDL
MODEL 4
REMARK VINA RESULT:    -8.401      2.010      4.998
REMARK INTER + INTRA:         -21.461
REMARK INTER:                 -19.012
REMARK INTRA:                  -2.449
REMARK UNBOUND:                -4.219
REMARK  19 active torsions:
REMARK  status: ('A' for Active; 'I' for Inactive)
REMARK    1  A    between atoms: C2_2  and  C6_6 
REMARK    2  A    between atoms: C6_6  and  O7_7 
REMARK    3  A    between atoms: O7_7  and  C10_8 
REMARK       I    between atoms: C10_8  and  N11_10 
REMARK    4  A    between atoms: N11_10  and  C12_11 
REMARK    5  A    between atoms: C12_11  and  C13_12 
REMARK    6  A    between atoms: C12_11  and  C26_15 
REMARK    7  A    between atoms: C13_12  and  C14_13 
REMARK    8  A    between atoms: C14_13  and  C15_14 
REMARK    9  A    between atoms: C15_14  and  C44_23 
REMARK   10  A    between atoms: C15_14  and  N58_30 
REMARK   11  A    between atoms: C26_15  and  C28_16 
REMARK   12  A    between atoms: C44_23  and  C45_24 
REMARK       I    between atoms: N58_30  and  C18_33 
REMARK   13  A    between atoms: N20_31  and  C19_32 
REMARK       I    between atoms: N20_31  and  C21_38 
REMARK   14  A    between atoms: C19_32  and  C18_33 
REMARK   15  A    between atoms: C19_32  and  C62_35 
REMARK       I    between atoms: C21_38  and  N74_39 
REMARK   16  A    between atoms: N74_39  and  C75_40 
REMARK   17  A    between atoms: C75_40  and  C77_42 
REMARK   18  A    between atoms: C82_45  and  C85@A_47 
REMARK   19  A    between atoms: C82_45  and  C85@B_48 
ROOT
HETATM    1  C15   D T1001       0.170  -4.803   0.136  1.00  8.25     0.113 C 
ENDROOT
BRANCH   1   2
HETATM    2  C14   D T1001       0.565  -6.238   0.549  1.00  7.75     0.060 C 
BRANCH   2   3
HETATM    3  C13   D T1001      -0.363  -6.867   1.589  1.00  7.71     0.177 C 
HETATM    4  O41   D T1001      -0.324  -6.140   2.821  1.00  8.53    -0.221 OA
BRANCH   3   5
HETATM    5  C12   D T1001      -0.092  -8.367   1.849  1.00  8.17     0.143 C 
BRANCH   5   6
HETATM    6  N11   D T1001      -1.195  -8.945   2.685  1.00  8.56    -0.211 NA
HETATM    7  C10   D T1001      -0.898 -10.022   3.475  1.00  9.54     0.384 C 
HETATM    8  O24   D T1001       0.190 -10.502   3.737  1.00 10.40    -0.236 OA
BRANCH   7   9
HETATM    9  O7    D T1001      -2.053 -10.547   3.966  1.00 13.31    -0.278 OA
BRANCH   9  10
HETATM   10  C6    D T1001      -2.529  -9.808   5.120  1.00 21.32     0.188 C 
BRANCH  10  11
HETATM   11  C2    D T1001      -3.882  -9.267   4.923  1.00 19.63     0.058 A 
HETATM   12  C1    D T1001      -4.669  -9.316   3.777  1.00 18.64     0.104 A 
HETATM   13  N5    D T1001      -5.920  -8.715   3.879  1.00 24.03    -0.235 NA
HETATM   14  C4    D T1001      -6.094  -8.205   5.090  1.00 26.08     0.134 A 
HETATM   15  S3    D T1001      -4.754  -8.446   6.129  1.00 24.78    -0.066 SA
ENDBRANCH  10  11
ENDBRANCH   9  10
ENDBRANCH   7   9
ENDBRANCH   5   6
BRANCH   5  16
HETATM   16  C26   D T1001       0.033  -9.180   0.526  1.00  9.89     0.053 C 
BRANCH  16  17
HETATM   17  C28   D T1001       1.462  -9.426   0.109  1.00 10.53    -0.020 A 
HETATM   18  C31   D T1001       1.806  -9.329  -1.252  1.00 10.31    -0.004 A 
HETATM   19  C32   D T1001       3.147  -9.547  -1.647  1.00 11.41    -0.000 A 
HETATM   20  C33   D T1001       4.122  -9.854  -0.691  1.00 13.64    -0.000 A 
HETATM   21  C34   D T1001       3.776  -9.938   0.654  1.00 13.54    -0.000 A 
HETATM   22  C35   D T1001       2.443  -9.736   1.062  1.00 13.00    -0.004 A 
ENDBRANCH  16  17
ENDBRANCH   5  16
ENDBRANCH   3   5
ENDBRANCH   2   3
ENDBRANCH   1   2
BRANCH   1  23
HETATM   23  C44   D T1001       0.051  -4.626  -1.393  1.00  9.33     0.051 C 
BRANCH  23  24
HETATM   24  C45   D T1001      -0.246  -5.858  -2.229  1.00  9.99    -0.020 A 
HETATM   25  C48   D T1001      -1.421  -6.587  -2.099  1.00 10.42    -0.004 A 
HETATM   26  C49   D T1001      -1.663  -7.731  -2.862  1.00 12.60    -0.000 A 
HETATM   27  C50   D T1001      -0.679  -8.154  -3.771  1.00 12.24    -0.000 A 
HETATM   28  C51   D T1001       0.493  -7.448  -3.927  1.00 13.41    -0.000 A 
HETATM   29  C52   D T1001       0.705  -6.304  -3.158  1.00 11.46    -0.004 A 
ENDBRANCH  23  24
ENDBRANCH   1  23
BRANCH   1  30
HETATM   30  N58   D T1001       1.180  -3.914   0.735  1.00  8.28    -0.238 NA
HETATM   31  C18   D T1001       2.444  -3.917   0.200  1.00  8.88     0.274 C 
HETATM   32  O61   D T1001       2.748  -4.644  -0.735  1.00 11.15    -0.268 OA
BRANCH  31  33
HETATM   33  C19   D T1001       3.416  -2.963   0.933  1.00  8.22     0.188 C 
BRANCH  33  34
HETATM   34  N20   D T1001       3.227  -3.254   2.376  1.00  9.06    -0.211 NA
HETATM   35  C21   D T1001       3.141  -2.178   3.244  1.00  7.77     0.343 C 
HETATM   36  N74   D T1001       3.012  -2.519   4.592  1.00  9.58    -0.294 N 
HETATM   37  O76   D T1001       3.279  -1.022   2.853  1.00  8.28    -0.245 OA
HETATM   38  C95   D T1001       2.988  -3.891   5.089  1.00 12.13     0.131 C 
BRANCH  36  39
HETATM   39  C75   D T1001       3.022  -1.437   5.572  1.00 11.33     0.152 C 
BRANCH  39  40
HETATM   40  C77   D T1001       4.206  -1.478   6.483  1.00 11.34     0.083 A 
HETATM   41  C80   D T1001       4.126  -1.402   7.853  1.00 12.89     0.049 A 
HETATM   42  S81   D T1001       5.696  -1.498   8.519  1.00 18.25    -0.091 SA
HETATM   43  C82   D T1001       6.371  -1.635   6.952  1.00 17.46     0.127 A 
HETATM   44  N83   D T1001       5.496  -1.592   5.998  1.00 15.61    -0.266 NA
BRANCH  43  45
HETATM   45  C85A  D T1001       7.873  -1.777   6.844  0.65 20.47     0.030 C 
HETATM   46  C86A  D T1001       8.267  -2.725   5.730  0.65 21.84     0.003 C 
HETATM   47  C90A  D T1001       8.548  -0.406   6.723  0.65 25.77     0.003 C 
ENDBRANCH  43  45
BRANCH  43  48
HETATM   48  C85B  D T1001       7.861  -1.777   6.780  0.35 20.27     0.030 C 
HETATM   49  C86B  D T1001       8.235  -2.699   5.627  0.35 19.26     0.003 C 
HETATM   50  C90B  D T1001       8.645  -0.485   6.825  0.35 21.00     0.003 C 
ENDBRANCH  43  48
ENDBRANCH  39  40
ENDBRANCH  36  39
ENDBRANCH  33  34
BRANCH  33  51
HETATM   51  C62   D T1001       4.851  -3.305   0.456  1.00  9.40     0.032 C 
HETATM   52  C64   D T1001       5.687  -2.032   0.375  1.00 11.21     0.003 C 
HETATM   53  C68   D T1001       5.484  -4.295   1.456  1.00 11.67     0.003 C 
ENDBRANCH  33  51
ENDBRANCH  31  33
ENDBRANCH   1  30
TORSDOF 19
ENDMDL
MODEL 5
REMARK VINA RESULT:    -8.350      2.231      7.990
REMARK INTER + INTRA:         -21.355
REMARK INTER:                 -17.443
REMARK INTRA:                  -3.912
REMARK UNBOUND:                -4.219
REMARK  19 active torsions:
REMARK  status: ('A' for Active; 'I' for Inactive)
REMARK    1  A    between atoms: C2_2  and  C6_6 
REMARK    2  A    between atoms: C6_6  and  O7_7 
REMARK    3  A    between atoms: O7_7  and  C10_8 
REMARK       I    between atoms: C10_8  and  N11_10 
REMARK    4  A    between atoms: N11_10  and  C12_11 
REMARK    5  A    between atoms: C12_11  and  C13_12 
REMARK    6  A    between atoms: C12_11  and  C26_15 
REMARK    7  A    between atoms: C13_12  and  C14_13 
REMARK    8  A    between atoms: C14_13  and  C15_14 
REMARK    9  A    between atoms: C15_14  and  C44_23 
REMARK   10  A    between atoms: C15_14  and  N58_30 
REMARK   11  A    between atoms: C26_15  and  C28_16 
REMARK   12  A    between atoms: C44_23  and  C45_24 
REMARK       I    between atoms: N58_30  and  C18_33 
REMARK   13  A    between atoms: N20_31  and  C19_32 
REMARK       I    between atoms: N20_31  and  C21_38 
REMARK   14  A    between atoms: C19_32  and  C18_33 
REMARK   15  A    between atoms: C19_32  and  C62_35 
REMARK       I    between atoms: C21_38  and  N74_39 
REMARK   16  A    between atoms: N74_39  and  C75_40 
REMARK   17  A    between atoms: C75_40  and  C77_42 
REMARK   18  A    between atoms: C82_45  and  C85@A_47 
REMARK   19  A    between atoms: C82_45  and  C85@B_48 
ROOT
HETATM    1  C15   D T1001       2.004  -5.190  -1.353  1.00  8.25     0.113 C 
ENDROOT
BRANCH   1   2
HETATM    2  C14   D T1001       2.308  -3.928  -0.516  1.00  7.75     0.060 C 
BRANCH   2   3
HETATM    3  C13   D T1001       1.669  -3.931   0.873  1.00  7.71     0.177 C 
HETATM    4  O41   D T1001       0.441  -3.195   0.877  1.00  8.53    -0.221 OA
BRANCH   3   5
HETATM    5  C12   D T1001       2.600  -3.415   1.995  1.00  8.17     0.143 C 
BRANCH   5   6
HETATM    6  N11   D T1001       1.857  -2.445   2.865  1.00  8.56    -0.211 NA
HETATM    7  C10   D T1001       2.473  -1.260   3.166  1.00  9.54     0.384 C 
HETATM    8  O24   D T1001       3.491  -0.785   2.696  1.00 10.40    -0.236 OA
BRANCH   7   9
HETATM    9  O7    D T1001       1.765  -0.626   4.139  1.00 13.31    -0.278 OA
BRANCH   9  10
HETATM   10  C6    D T1001       2.639  -0.021   5.128  1.00 21.32     0.188 C 
BRANCH  10  11
HETATM   11  C2    D T1001       3.169  -1.002   6.086  1.00 19.63     0.058 A 
HETATM   12  C1    D T1001       4.470  -1.121   6.563  1.00 18.64     0.104 A 
HETATM   13  N5    D T1001       4.686  -2.153   7.472  1.00 24.03    -0.235 NA
HETATM   14  C4    D T1001       3.564  -2.823   7.690  1.00 26.08     0.134 A 
HETATM   15  S3    D T1001       2.226  -2.219   6.808  1.00 24.78    -0.066 SA
ENDBRANCH  10  11
ENDBRANCH   9  10
ENDBRANCH   7   9
ENDBRANCH   5   6
BRANCH   5  16
HETATM   16  C26   D T1001       3.159  -4.574   2.874  1.00  9.89     0.053 C 
BRANCH  16  17
HETATM   17  C28   D T1001       4.593  -4.365   3.296  1.00 10.53    -0.020 A 
HETATM   18  C31   D T1001       5.540  -3.970   2.335  1.00 10.31    -0.004 A 
HETATM   19  C32   D T1001       6.883  -3.761   2.727  1.00 11.41    -0.000 A 
HETATM   20  C33   D T1001       7.263  -3.944   4.061  1.00 13.64    -0.000 A 
HETATM   21  C34   D T1001       6.319  -4.325   5.009  1.00 13.54    -0.000 A 
HETATM   22  C35   D T1001       4.981  -4.549   4.631  1.00 13.00    -0.004 A 
ENDBRANCH  16  17
ENDBRANCH   5  16
ENDBRANCH   3   5
ENDBRANCH   2   3
ENDBRANCH   1   2
BRANCH   1  23
HETATM   23  C44   D T1001       0.880  -4.971  -2.390  1.00  9.33     0.051 C 
BRANCH  23  24
HETATM   24  C45   D T1001       0.079  -6.182  -2.833  1.00  9.99    -0.020 A 
HETATM   25  C48   D T1001      -1.237  -6.395  -2.442  1.00 10.42    -0.004 A 
HETATM   26  C49   D T1001      -1.948  -7.527  -2.843  1.00 12.60    -0.000 A 
HETATM   27  C50   D T1001      -1.299  -8.477  -3.651  1.00 12.24    -0.000 A 
HETATM   28  C51   D T1001       0.002  -8.290  -4.060  1.00 13.41    -0.000 A 
HETATM   29  C52   D T1001       0.685  -7.145  -3.652  1.00 11.46    -0.004 A 
ENDBRANCH  23  24
ENDBRANCH   1  23
BRANCH   1  30
HETATM   30  N58   D T1001       1.685  -6.254  -0.386  1.00  8.28    -0.238 NA
HETATM   31  C18   D T1001       2.505  -7.354  -0.340  1.00  8.88     0.274 C 
HETATM   32  O61   D T1001       3.466  -7.474  -1.086  1.00 11.15    -0.268 OA
BRANCH  31  33
HETATM   33  C19   D T1001       2.048  -8.409   0.695  1.00  8.22     0.188 C 
BRANCH  33  34
HETATM   34  N20   D T1001       1.212  -7.661   1.665  1.00  9.06    -0.211 NA
HETATM   35  C21   D T1001       1.237  -8.072   2.988  1.00  7.77     0.343 C 
HETATM   36  N74   D T1001       0.393  -7.359   3.841  1.00  9.58    -0.294 N 
HETATM   37  O76   D T1001       1.875  -9.058   3.344  1.00  8.28    -0.245 OA
HETATM   38  C95   D T1001      -0.480  -6.273   3.407  1.00 12.13     0.131 C 
BRANCH  36  39
HETATM   39  C75   D T1001       0.289  -7.806   5.227  1.00 11.33     0.152 C 
BRANCH  39  40
HETATM   40  C77   D T1001      -1.095  -8.220   5.611  1.00 11.34     0.083 A 
HETATM   41  C80   D T1001      -1.703  -7.869   6.793  1.00 12.89     0.049 A 
HETATM   42  S81   D T1001      -3.278  -8.529   6.838  1.00 18.25    -0.091 SA
HETATM   43  C82   D T1001      -3.046  -9.230   5.294  1.00 17.46     0.127 A 
HETATM   44  N83   D T1001      -1.875  -9.009   4.786  1.00 15.61    -0.266 NA
BRANCH  43  45
HETATM   45  C85A  D T1001      -4.192 -10.021   4.703  0.65 20.47     0.030 C 
HETATM   46  C86A  D T1001      -4.938  -9.225   3.651  0.65 21.84     0.003 C 
HETATM   47  C90A  D T1001      -3.713 -11.383   4.187  0.65 25.77     0.003 C 
ENDBRANCH  43  45
BRANCH  43  48
HETATM   48  C85B  D T1001      -4.150 -10.031   4.654  0.35 20.27     0.030 C 
HETATM   49  C86B  D T1001      -4.150 -11.490   5.089  0.35 19.26     0.003 C 
HETATM   50  C90B  D T1001      -5.515  -9.378   4.665  0.35 21.00     0.003 C 
ENDBRANCH  43  48
ENDBRANCH  39  40
ENDBRANCH  36  39
ENDBRANCH  33  34
BRANCH  33  51
HETATM   51  C62   D T1001       1.231  -9.483  -0.068  1.00  9.40     0.032 C 
HETATM   52  C64   D T1001       1.512 -10.862   0.520  1.00 11.21     0.003 C 
HETATM   53  C68   D T1001      -0.269  -9.147   0.058  1.00 11.67     0.003 C 
ENDBRANCH  33  51
ENDBRANCH  31  33
ENDBRANCH   1  30
TORSDOF 19
ENDMDL
MODEL 6
REMARK VINA RESULT:    -8.340      2.340      8.110
REMARK INTER + INTRA:         -21.336
REMARK INTER:                 -18.642
REMARK INTRA:                  -2.694
REMARK UNBOUND:                -4.219
REMARK  19 active torsions:
REMARK  status: ('A' for Active; 'I' for Inactive)
REMARK    1  A    between atoms: C2_2  and  C6_6 
REMARK    2  A    between atoms: C6_6  and  O7_7 
REMARK    3  A    between atoms: O7_7  and  C10_8 
REMARK       I    between atoms: C10_8  and  N11_10 
REMARK    4  A    between atoms: N11_10  and  C12_11 
REMARK    5  A    between atoms: C12_11  and  C13_12 
REMARK    6  A    between atoms: C12_11  and  C26_15 
REMARK    7  A    between atoms: C13_12  and  C14_13 
REMARK    8  A    between atoms: C14_13  and  C15_14 
REMARK    9  A    between atoms: C15_14  and  C44_23 
REMARK   10  A    between atoms: C15_14  and  N58_30 
REMARK   11  A    between atoms: C26_15  and  C28_16 
REMARK   12  A    between atoms: C44_23  and  C45_24 
REMARK       I    between atoms: N58_30  and  C18_33 
REMARK   13  A    between atoms: N20_31  and  C19_32 
REMARK       I    between atoms: N20_31  and  C21_38 
REMARK   14  A    between atoms: C19_32  and  C18_33 
REMARK   15  A    between atoms: C19_32  and  C62_35 
REMARK       I    between atoms: C21_38  and  N74_39 
REMARK   16  A    between atoms: N74_39  and  C75_40 
REMARK   17  A    between atoms: C75_40  and  C77_42 
REMARK   18  A    between atoms: C82_45  and  C85@A_47 
REMARK   19  A    between atoms: C82_45  and  C85@B_48 
ROOT
HETATM    1  C15   D T1001       1.546  -4.808  -1.057  1.00  8.25     0.113 C 
ENDROOT
BRANCH   1   2
HETATM    2  C14   D T1001       1.116  -3.930   0.139  1.00  7.75     0.060 C 
BRANCH   2   3
HETATM    3  C13   D T1001       2.114  -3.920   1.298  1.00  7.71     0.177 C 
HETATM    4  O41   D T1001       1.440  -3.867   2.559  1.00  8.53    -0.221 OA
BRANCH   3   5
HETATM    5  C12   D T1001       3.167  -2.790   1.211  1.00  8.17     0.143 C 
BRANCH   5   6
HETATM    6  N11   D T1001       3.397  -2.206   2.573  1.00  8.56    -0.211 NA
HETATM    7  C10   D T1001       2.707  -1.072   2.904  1.00  9.54     0.384 C 
HETATM    8  O24   D T1001       1.788  -0.535   2.312  1.00 10.40    -0.236 OA
BRANCH   7   9
HETATM    9  O7    D T1001       3.213  -0.563   4.059  1.00 13.31    -0.278 OA
BRANCH   9  10
HETATM   10  C6    D T1001       4.652  -0.737   4.136  1.00 21.32     0.188 C 
BRANCH  10  11
HETATM   11  C2    D T1001       5.097  -1.159   5.472  1.00 19.63     0.058 A 
HETATM   12  C1    D T1001       6.386  -1.474   5.889  1.00 18.64     0.104 A 
HETATM   13  N5    D T1001       6.514  -1.845   7.224  1.00 24.03    -0.235 NA
HETATM   14  C4    D T1001       5.336  -1.820   7.829  1.00 26.08     0.134 A 
HETATM   15  S3    D T1001       4.052  -1.342   6.800  1.00 24.78    -0.066 SA
ENDBRANCH  10  11
ENDBRANCH   9  10
ENDBRANCH   7   9
ENDBRANCH   5   6
BRANCH   5  16
HETATM   16  C26   D T1001       4.522  -3.293   0.629  1.00  9.89     0.053 C 
BRANCH  16  17
HETATM   17  C28   D T1001       5.385  -3.997   1.647  1.00 10.53    -0.020 A 
HETATM   18  C31   D T1001       6.468  -3.308   2.221  1.00 10.31    -0.004 A 
HETATM   19  C32   D T1001       7.274  -3.960   3.185  1.00 11.41    -0.000 A 
HETATM   20  C33   D T1001       6.991  -5.277   3.564  1.00 13.64    -0.000 A 
HETATM   21  C34   D T1001       5.912  -5.949   2.999  1.00 13.54    -0.000 A 
HETATM   22  C35   D T1001       5.109  -5.318   2.029  1.00 13.00    -0.004 A 
ENDBRANCH  16  17
ENDBRANCH   5  16
ENDBRANCH   3   5
ENDBRANCH   2   3
ENDBRANCH   1   2
BRANCH   1  23
HETATM   23  C44   D T1001       0.551  -4.752  -2.236  1.00  9.33     0.051 C 
BRANCH  23  24
HETATM   24  C45   D T1001      -0.027  -6.062  -2.739  1.00  9.99    -0.020 A 
HETATM   25  C48   D T1001      -1.206  -6.603  -2.242  1.00 10.42    -0.004 A 
HETATM   26  C49   D T1001      -1.707  -7.821  -2.703  1.00 12.60    -0.000 A 
HETATM   27  C50   D T1001      -0.984  -8.517  -3.686  1.00 12.24    -0.000 A 
HETATM   28  C51   D T1001       0.185  -8.003  -4.203  1.00 13.41    -0.000 A 
HETATM   29  C52   D T1001       0.657  -6.779  -3.730  1.00 11.46    -0.004 A 
ENDBRANCH  23  24
ENDBRANCH   1  23
BRANCH   1  30
HETATM   30  N58   D T1001       1.718  -6.170  -0.522  1.00  8.28    -0.238 NA
HETATM   31  C18   D T1001       2.936  -6.781  -0.687  1.00  8.88     0.274 C 
HETATM   32  O61   D T1001       3.858  -6.234  -1.274  1.00 11.15    -0.268 OA
BRANCH  31  33
HETATM   33  C19   D T1001       2.979  -8.215  -0.108  1.00  8.22     0.188 C 
BRANCH  33  34
HETATM   34  N20   D T1001       1.728  -8.351   0.677  1.00  9.06    -0.211 NA
HETATM   35  C21   D T1001       1.837  -8.416   2.056  1.00  7.77     0.343 C 
HETATM   36  N74   D T1001       0.629  -8.593   2.735  1.00  9.58    -0.294 N 
HETATM   37  O76   D T1001       2.930  -8.424   2.616  1.00  8.28    -0.245 OA
HETATM   38  C95   D T1001      -0.665  -8.727   2.075  1.00 12.13     0.131 C 
BRANCH  36  39
HETATM   39  C75   D T1001       0.681  -8.774   4.182  1.00 11.33     0.152 C 
BRANCH  39  40
HETATM   40  C77   D T1001      -0.496  -9.517   4.726  1.00 11.34     0.083 A 
HETATM   41  C80   D T1001      -0.588 -10.888   4.770  1.00 12.89     0.049 A 
HETATM   42  S81   D T1001      -2.079 -11.334   5.473  1.00 18.25    -0.091 SA
HETATM   43  C82   D T1001      -2.498  -9.687   5.672  1.00 17.46     0.127 A 
HETATM   44  N83   D T1001      -1.604  -8.860   5.230  1.00 15.61    -0.266 NA
BRANCH  43  45
HETATM   45  C85A  D T1001      -3.831  -9.373   6.315  0.65 20.47     0.030 C 
HETATM   46  C86A  D T1001      -3.663  -8.576   7.592  0.65 21.84     0.003 C 
HETATM   47  C90A  D T1001      -4.779  -8.700   5.315  0.65 25.77     0.003 C 
ENDBRANCH  43  45
BRANCH  43  48
HETATM   48  C85B  D T1001      -3.813  -9.312   6.304  0.35 20.27     0.030 C 
HETATM   49  C86B  D T1001      -3.642  -8.551   7.612  0.35 19.26     0.003 C 
HETATM   50  C90B  D T1001      -4.837  -8.714   5.365  0.35 21.00     0.003 C 
ENDBRANCH  43  48
ENDBRANCH  39  40
ENDBRANCH  36  39
ENDBRANCH  33  34
BRANCH  33  51
HETATM   51  C62   D T1001       3.022  -9.198  -1.307  1.00  9.40     0.032 C 
HETATM   52  C64   D T1001       4.162 -10.193  -1.119  1.00 11.21     0.003 C 
HETATM   53  C68   D T1001       1.673  -9.942  -1.386  1.00 11.67     0.003 C 
ENDBRANCH  33  51
ENDBRANCH  31  33
ENDBRANCH   1  30
TORSDOF 19
ENDMDL
MODEL 7
REMARK VINA RESULT:    -8.332      2.787      9.282
REMARK INTER + INTRA:         -21.319
REMARK INTER:                 -17.138
REMARK INTRA:                  -4.181
REMARK UNBOUND:                -4.219
REMARK  19 active torsions:
REMARK  status: ('A' for Active; 'I' for Inactive)
REMARK    1  A    between atoms: C2_2  and  C6_6 
REMARK    2  A    between atoms: C6_6  and  O7_7 
REMARK    3  A    between atoms: O7_7  and  C10_8 
REMARK       I    between atoms: C10_8  and  N11_10 
REMARK    4  A    between atoms: N11_10  and  C12_11 
REMARK    5  A    between atoms: C12_11  and  C13_12 
REMARK    6  A    between atoms: C12_11  and  C26_15 
REMARK    7  A    between atoms: C13_12  and  C14_13 
REMARK    8  A    between atoms: C14_13  and  C15_14 
REMARK    9  A    between atoms: C15_14  and  C44_23 
REMARK   10  A    between atoms: C15_14  and  N58_30 
REMARK   11  A    between atoms: C26_15  and  C28_16 
REMARK   12  A    between atoms: C44_23  and  C45_24 
REMARK       I    between atoms: N58_30  and  C18_33 
REMARK   13  A    between atoms: N20_31  and  C19_32 
REMARK       I    between atoms: N20_31  and  C21_38 
REMARK   14  A    between atoms: C19_32  and  C18_33 
REMARK   15  A    between atoms: C19_32  and  C62_35 
REMARK       I    between atoms: C21_38  and  N74_39 
REMARK   16  A    between atoms: N74_39  and  C75_40 
REMARK   17  A    between atoms: C75_40  and  C77_42 
REMARK   18  A    between atoms: C82_45  and  C85@A_47 
REMARK   19  A    between atoms: C82_45  and  C85@B_48 
ROOT
HETATM    1  C15   D T1001       3.827  -7.368   0.338  1.00  8.25     0.113 C 
ENDROOT
BRANCH   1   2
HETATM    2  C14   D T1001       3.657  -5.849   0.555  1.00  7.75     0.060 C 
BRANCH   2   3
HETATM    3  C13   D T1001       3.083  -5.105  -0.652  1.00  7.71     0.177 C 
HETATM    4  O41   D T1001       3.918  -4.005  -1.024  1.00  8.53    -0.221 OA
BRANCH   3   5
HETATM    5  C12   D T1001       1.626  -4.624  -0.459  1.00  8.17     0.143 C 
BRANCH   5   6
HETATM    6  N11   D T1001       1.616  -3.322   0.287  1.00  8.56    -0.211 NA
HETATM    7  C10   D T1001       1.041  -3.305   1.528  1.00  9.54     0.384 C 
HETATM    8  O24   D T1001       0.667  -4.241   2.212  1.00 10.40    -0.236 OA
BRANCH   7   9
HETATM    9  O7    D T1001       0.913  -2.016   1.942  1.00 13.31    -0.278 OA
BRANCH   9  10
HETATM   10  C6    D T1001       2.205  -1.388   2.148  1.00 21.32     0.188 C 
BRANCH  10  11
HETATM   11  C2    D T1001       2.391  -0.922   3.530  1.00 19.63     0.058 A 
HETATM   12  C1    D T1001       2.536   0.385   3.983  1.00 18.64     0.104 A 
HETATM   13  N5    D T1001       2.697   0.531   5.358  1.00 24.03    -0.235 NA
HETATM   14  C4    D T1001       2.680  -0.651   5.957  1.00 26.08     0.134 A 
HETATM   15  S3    D T1001       2.462  -1.960   4.874  1.00 24.78    -0.066 SA
ENDBRANCH  10  11
ENDBRANCH   9  10
ENDBRANCH   7   9
ENDBRANCH   5   6
BRANCH   5  16
HETATM   16  C26   D T1001       0.881  -4.446  -1.817  1.00  9.89     0.053 C 
BRANCH  16  17
HETATM   17  C28   D T1001       0.288  -5.730  -2.345  1.00 10.53    -0.020 A 
HETATM   18  C31   D T1001      -0.790  -6.318  -1.661  1.00 10.31    -0.004 A 
HETATM   19  C32   D T1001      -1.358  -7.515  -2.158  1.00 11.41    -0.000 A 
HETATM   20  C33   D T1001      -0.850  -8.106  -3.321  1.00 13.64    -0.000 A 
HETATM   21  C34   D T1001       0.212  -7.513  -3.997  1.00 13.54    -0.000 A 
HETATM   22  C35   D T1001       0.796  -6.328  -3.507  1.00 13.00    -0.004 A 
ENDBRANCH  16  17
ENDBRANCH   5  16
ENDBRANCH   3   5
ENDBRANCH   2   3
ENDBRANCH   1   2
BRANCH   1  23
HETATM   23  C44   D T1001       3.489  -7.815  -1.101  1.00  9.33     0.051 C 
BRANCH  23  24
HETATM   24  C45   D T1001       3.091  -9.263  -1.319  1.00  9.99    -0.020 A 
HETATM   25  C48   D T1001       4.022 -10.287  -1.443  1.00 10.42    -0.004 A 
HETATM   26  C49   D T1001       3.634 -11.609  -1.666  1.00 12.60    -0.000 A 
HETATM   27  C50   D T1001       2.264 -11.898  -1.780  1.00 12.24    -0.000 A 
HETATM   28  C51   D T1001       1.317 -10.906  -1.654  1.00 13.41    -0.000 A 
HETATM   29  C52   D T1001       1.733  -9.595  -1.423  1.00 11.46    -0.004 A 
ENDBRANCH  23  24
ENDBRANCH   1  23
BRANCH   1  30
HETATM   30  N58   D T1001       2.979  -8.022   1.350  1.00  8.28    -0.238 NA
HETATM   31  C18   D T1001       3.529  -9.030   2.102  1.00  8.88     0.274 C 
HETATM   32  O61   D T1001       4.682  -9.402   1.938  1.00 11.15    -0.268 OA
BRANCH  31  33
HETATM   33  C19   D T1001       2.531  -9.653   3.106  1.00  8.22     0.188 C 
BRANCH  33  34
HETATM   34  N20   D T1001       1.255  -8.929   2.880  1.00  9.06    -0.211 NA
HETATM   35  C21   D T1001       0.483  -8.623   3.988  1.00  7.77     0.343 C 
HETATM   36  N74   D T1001      -0.727  -7.986   3.705  1.00  9.58    -0.294 N 
HETATM   37  O76   D T1001       0.803  -8.988   5.117  1.00  8.28    -0.245 OA
HETATM   38  C95   D T1001      -1.187  -7.671   2.357  1.00 12.13     0.131 C 
BRANCH  36  39
HETATM   39  C75   D T1001      -1.638  -7.729   4.817  1.00 11.33     0.152 C 
BRANCH  39  40
HETATM   40  C77   D T1001      -2.656  -8.806   5.006  1.00 11.34     0.083 A 
HETATM   41  C80   D T1001      -2.493  -9.881   5.847  1.00 12.89     0.049 A 
HETATM   42  S81   D T1001      -3.886 -10.867   5.784  1.00 18.25    -0.091 SA
HETATM   43  C82   D T1001      -4.607  -9.805   4.652  1.00 17.46     0.127 A 
HETATM   44  N83   D T1001      -3.861  -8.798   4.326  1.00 15.61    -0.266 NA
BRANCH  43  45
HETATM   45  C85A  D T1001      -5.995 -10.144   4.156  0.65 20.47     0.030 C 
HETATM   46  C86A  D T1001      -6.845  -8.903   3.975  0.65 21.84     0.003 C 
HETATM   47  C90A  D T1001      -5.932 -11.008   2.891  0.65 25.77     0.003 C 
ENDBRANCH  43  45
BRANCH  43  48
HETATM   48  C85B  D T1001      -5.988 -10.091   4.120  0.35 20.27     0.030 C 
HETATM   49  C86B  D T1001      -6.505  -8.991   3.202  0.35 19.26     0.003 C 
HETATM   50  C90B  D T1001      -6.203 -11.493   3.594  0.35 21.00     0.003 C 
ENDBRANCH  43  48
ENDBRANCH  39  40
ENDBRANCH  36  39
ENDBRANCH  33  34
BRANCH  33  51
HETATM   51  C62   D T1001       2.411 -11.161   2.767  1.00  9.40     0.032 C 
HETATM   52  C64   D T1001       2.296 -11.972   4.053  1.00 11.21     0.003 C 
HETATM   53  C68   D T1001       1.160 -11.373   1.890  1.00 11.67     0.003 C 
ENDBRANCH  33  51
ENDBRANCH  31  33
ENDBRANCH   1  30
TORSDOF 19
ENDMDL
MODEL 8
REMARK VINA RESULT:    -8.324      2.164      7.858
REMARK INTER + INTRA:         -21.302
REMARK INTER:                 -18.312
REMARK INTRA:                  -2.989
REMARK UNBOUND:                -4.219
REMARK  19 active torsions:
REMARK  status: ('A' for Active; 'I' for Inactive)
REMARK    1  A    between atoms: C2_2  and  C6_6 
REMARK    2  A    between atoms: C6_6  and  O7_7 
REMARK    3  A    between atoms: O7_7  and  C10_8 
REMARK       I    between atoms: C10_8  and  N11_10 
REMARK    4  A    between atoms: N11_10  and  C12_11 
REMARK    5  A    between atoms: C12_11  and  C13_12 
REMARK    6  A    between atoms: C12_11  and  C26_15 
REMARK    7  A    between atoms: C13_12  and  C14_13 
REMARK    8  A    between atoms: C14_13  and  C15_14 
REMARK    9  A    between atoms: C15_14  and  C44_23 
REMARK   10  A    between atoms: C15_14  and  N58_30 
REMARK   11  A    between atoms: C26_15  and  C28_16 
REMARK   12  A    between atoms: C44_23  and  C45_24 
REMARK       I    between atoms: N58_30  and  C18_33 
REMARK   13  A    between atoms: N20_31  and  C19_32 
REMARK       I    between atoms: N20_31  and  C21_38 
REMARK   14  A    between atoms: C19_32  and  C18_33 
REMARK   15  A    between atoms: C19_32  and  C62_35 
REMARK       I    between atoms: C21_38  and  N74_39 
REMARK   16  A    between atoms: N74_39  and  C75_40 
REMARK   17  A    between atoms: C75_40  and  C77_42 
REMARK   18  A    between atoms: C82_45  and  C85@A_47 
REMARK   19  A    between atoms: C82_45  and  C85@B_48 
ROOT
HETATM    1  C15   D T1001       1.087  -4.642  -0.419  1.00  8.25     0.113 C 
ENDROOT
BRANCH   1   2
HETATM    2  C14   D T1001       0.521  -4.006   0.869  1.00  7.75     0.060 C 
BRANCH   2   3
HETATM    3  C13   D T1001       1.152  -4.537   2.158  1.00  7.71     0.177 C 
HETATM    4  O41   D T1001       0.175  -5.177   2.984  1.00  8.53    -0.221 OA
BRANCH   3   5
HETATM    5  C12   D T1001       1.915  -3.466   2.972  1.00  8.17     0.143 C 
BRANCH   5   6
HETATM    6  N11   D T1001       3.095  -4.093   3.654  1.00  8.56    -0.211 NA
HETATM    7  C10   D T1001       3.082  -4.150   5.021  1.00  9.54     0.384 C 
HETATM    8  O24   D T1001       2.167  -3.911   5.789  1.00 10.40    -0.236 OA
BRANCH   7   9
HETATM    9  O7    D T1001       4.313  -4.524   5.463  1.00 13.31    -0.278 OA
BRANCH   9  10
HETATM   10  C6    D T1001       5.370  -3.812   4.771  1.00 21.32     0.188 C 
BRANCH  10  11
HETATM   11  C2    D T1001       6.115  -2.907   5.659  1.00 19.63     0.058 A 
HETATM   12  C1    D T1001       5.609  -2.010   6.593  1.00 18.64     0.104 A 
HETATM   13  N5    D T1001       6.558  -1.276   7.300  1.00 24.03    -0.235 NA
HETATM   14  C4    D T1001       7.782  -1.603   6.911  1.00 26.08     0.134 A 
HETATM   15  S3    D T1001       7.812  -2.804   5.691  1.00 24.78    -0.066 SA
ENDBRANCH  10  11
ENDBRANCH   9  10
ENDBRANCH   7   9
ENDBRANCH   5   6
BRANCH   5  16
HETATM   16  C26   D T1001       2.403  -2.286   2.078  1.00  9.89     0.053 C 
BRANCH  16  17
HETATM   17  C28   D T1001       2.818  -1.070   2.870  1.00 10.53    -0.020 A 
HETATM   18  C31   D T1001       1.826  -0.246   3.430  1.00 10.31    -0.004 A 
HETATM   19  C32   D T1001       2.210   0.890   4.183  1.00 11.41    -0.000 A 
HETATM   20  C33   D T1001       3.565   1.186   4.369  1.00 13.64    -0.000 A 
HETATM   21  C34   D T1001       4.540   0.361   3.819  1.00 13.54    -0.000 A 
HETATM   22  C35   D T1001       4.174  -0.765   3.057  1.00 13.00    -0.004 A 
ENDBRANCH  16  17
ENDBRANCH   5  16
ENDBRANCH   3   5
ENDBRANCH   2   3
ENDBRANCH   1   2
BRANCH   1  23
HETATM   23  C44   D T1001       0.125  -4.529  -1.622  1.00  9.33     0.051 C 
BRANCH  23  24
HETATM   24  C45   D T1001      -0.218  -5.801  -2.376  1.00  9.99    -0.020 A 
HETATM   25  C48   D T1001      -1.377  -6.528  -2.134  1.00 10.42    -0.004 A 
HETATM   26  C49   D T1001      -1.662  -7.707  -2.823  1.00 12.60    -0.000 A 
HETATM   27  C50   D T1001      -0.738  -8.169  -3.776  1.00 12.24    -0.000 A 
HETATM   28  C51   D T1001       0.416  -7.466  -4.044  1.00 13.41    -0.000 A 
HETATM   29  C52   D T1001       0.670  -6.286  -3.346  1.00 11.46    -0.004 A 
ENDBRANCH  23  24
ENDBRANCH   1  23
BRANCH   1  30
HETATM   30  N58   D T1001       1.409  -6.038  -0.078  1.00  8.28    -0.238 NA
HETATM   31  C18   D T1001       2.666  -6.504  -0.373  1.00  8.88     0.274 C 
HETATM   32  O61   D T1001       3.502  -5.801  -0.922  1.00 11.15    -0.268 OA
BRANCH  31  33
HETATM   33  C19   D T1001       2.868  -7.990   0.008  1.00  8.22     0.188 C 
BRANCH  33  34
HETATM   34  N20   D T1001       1.657  -8.357   0.782  1.00  9.06    -0.211 NA
HETATM   35  C21   D T1001       1.781  -8.471   2.157  1.00  7.77     0.343 C 
HETATM   36  N74   D T1001       0.619  -8.867   2.822  1.00  9.58    -0.294 N 
HETATM   37  O76   D T1001       2.865  -8.337   2.719  1.00  8.28    -0.245 OA
HETATM   38  C95   D T1001      -0.643  -9.168   2.153  1.00 12.13     0.131 C 
BRANCH  36  39
HETATM   39  C75   D T1001       0.705  -9.109   4.259  1.00 11.33     0.152 C 
BRANCH  39  40
HETATM   40  C77   D T1001      -0.514  -9.767   4.821  1.00 11.34     0.083 A 
HETATM   41  C80   D T1001      -0.688 -11.128   4.897  1.00 12.89     0.049 A 
HETATM   42  S81   D T1001      -2.201 -11.467   5.611  1.00 18.25    -0.091 SA
HETATM   43  C82   D T1001      -2.521  -9.794   5.771  1.00 17.46     0.127 A 
HETATM   44  N83   D T1001      -1.579  -9.033   5.309  1.00 15.61    -0.266 NA
BRANCH  43  45
HETATM   45  C85A  D T1001      -3.831  -9.386   6.406  0.65 20.47     0.030 C 
HETATM   46  C86A  D T1001      -3.617  -8.482   7.603  0.65 21.84     0.003 C 
HETATM   47  C90A  D T1001      -4.781  -8.778   5.367  0.65 25.77     0.003 C 
ENDBRANCH  43  45
BRANCH  43  48
HETATM   48  C85B  D T1001      -3.810  -9.326   6.394  0.35 20.27     0.030 C 
HETATM   49  C86B  D T1001      -3.589  -8.458   7.626  0.35 19.26     0.003 C 
HETATM   50  C90B  D T1001      -4.838  -8.783   5.426  0.35 21.00     0.003 C 
ENDBRANCH  43  48
ENDBRANCH  39  40
ENDBRANCH  36  39
ENDBRANCH  33  34
BRANCH  33  51
HETATM   51  C62   D T1001       2.981  -8.796  -1.311  1.00  9.40     0.032 C 
HETATM   52  C64   D T1001       4.270  -9.611  -1.311  1.00 11.21     0.003 C 
HETATM   53  C68   D T1001       1.760  -9.733  -1.425  1.00 11.67     0.003 C 
ENDBRANCH  33  51
ENDBRANCH  31  33
ENDBRANCH   1  30
TORSDOF 19
ENDMDL
MODEL 9
REMARK VINA RESULT:    -8.278      2.076      7.874
REMARK INTER + INTRA:         -21.208
REMARK INTER:                 -17.244
REMARK INTRA:                  -3.964
REMARK UNBOUND:                -4.219
REMARK  19 active torsions:
REMARK  status: ('A' for Active; 'I' for Inactive)
REMARK    1  A    between atoms: C2_2  and  C6_6 
REMARK    2  A    between atoms: C6_6  and  O7_7 
REMARK    3  A    between atoms: O7_7  and  C10_8 
REMARK       I    between atoms: C10_8  and  N11_10 
REMARK    4  A    between atoms: N11_10  and  C12_11 
REMARK    5  A    between atoms: C12_11  and  C13_12 
REMARK    6  A    between atoms: C12_11  and  C26_15 
REMARK    7  A    between atoms: C13_12  and  C14_13 
REMARK    8  A    between atoms: C14_13  and  C15_14 
REMARK    9  A    between atoms: C15_14  and  C44_23 
REMARK   10  A    between atoms: C15_14  and  N58_30 
REMARK   11  A    between atoms: C26_15  and  C28_16 
REMARK   12  A    between atoms: C44_23  and  C45_24 
REMARK       I    between atoms: N58_30  and  C18_33 
REMARK   13  A    between atoms: N20_31  and  C19_32 
REMARK       I    between atoms: N20_31  and  C21_38 
REMARK   14  A    between atoms: C19_32  and  C18_33 
REMARK   15  A    between atoms: C19_32  and  C62_35 
REMARK       I    between atoms: C21_38  and  N74_39 
REMARK   16  A    between atoms: N74_39  and  C75_40 
REMARK   17  A    between atoms: C75_40  and  C77_42 
REMARK   18  A    between atoms: C82_45  and  C85@A_47 
REMARK   19  A    between atoms: C82_45  and  C85@B_48 
ROOT
HETATM    1  C15   D T1001       1.908  -5.258  -1.439  1.00  8.25     0.113 C 
ENDROOT
BRANCH   1   2
HETATM    2  C14   D T1001       2.045  -3.982  -0.581  1.00  7.75     0.060 C 
BRANCH   2   3
HETATM    3  C13   D T1001       1.147  -3.961   0.657  1.00  7.71     0.177 C 
HETATM    4  O41   D T1001      -0.080  -3.274   0.392  1.00  8.53    -0.221 OA
BRANCH   3   5
HETATM    5  C12   D T1001       1.824  -3.371   1.916  1.00  8.17     0.143 C 
BRANCH   5   6
HETATM    6  N11   D T1001       2.564  -4.451   2.647  1.00  8.56    -0.211 NA
HETATM    7  C10   D T1001       2.422  -4.512   4.006  1.00  9.54     0.384 C 
HETATM    8  O24   D T1001       1.641  -3.911   4.722  1.00 10.40    -0.236 OA
BRANCH   7   9
HETATM    9  O7    D T1001       3.336  -5.383   4.512  1.00 13.31    -0.278 OA
BRANCH   9  10
HETATM   10  C6    D T1001       4.255  -4.727   5.423  1.00 21.32     0.188 C 
BRANCH  10  11
HETATM   11  C2    D T1001       5.505  -4.319   4.765  1.00 19.63     0.058 A 
HETATM   12  C1    D T1001       6.075  -4.836   3.606  1.00 18.64     0.104 A 
HETATM   13  N5    D T1001       7.274  -4.251   3.212  1.00 24.03    -0.235 NA
HETATM   14  C4    D T1001       7.626  -3.295   4.059  1.00 26.08     0.134 A 
HETATM   15  S3    D T1001       6.514  -3.080   5.344  1.00 24.78    -0.066 SA
ENDBRANCH  10  11
ENDBRANCH   9  10
ENDBRANCH   7   9
ENDBRANCH   5   6
BRANCH   5  16
HETATM   16  C26   D T1001       2.809  -2.215   1.566  1.00  9.89     0.053 C 
BRANCH  16  17
HETATM   17  C28   D T1001       2.987  -1.222   2.688  1.00 10.53    -0.020 A 
HETATM   18  C31   D T1001       1.851  -0.614   3.252  1.00 10.31    -0.004 A 
HETATM   19  C32   D T1001       2.011   0.309   4.312  1.00 11.41    -0.000 A 
HETATM   20  C33   D T1001       3.289   0.612   4.795  1.00 13.64    -0.000 A 
HETATM   21  C34   D T1001       4.407  -0.000   4.238  1.00 13.54    -0.000 A 
HETATM   22  C35   D T1001       4.265  -0.912   3.174  1.00 13.00    -0.004 A 
ENDBRANCH  16  17
ENDBRANCH   5  16
ENDBRANCH   3   5
ENDBRANCH   2   3
ENDBRANCH   1   2
BRANCH   1  23
HETATM   23  C44   D T1001       0.864  -5.118  -2.568  1.00  9.33     0.051 C 
BRANCH  23  24
HETATM   24  C45   D T1001       0.086  -6.357  -2.972  1.00  9.99    -0.020 A 
HETATM   25  C48   D T1001      -1.156  -6.671  -2.437  1.00 10.42    -0.004 A 
HETATM   26  C49   D T1001      -1.844  -7.829  -2.806  1.00 12.60    -0.000 A 
HETATM   27  C50   D T1001      -1.247  -8.698  -3.734  1.00 12.24    -0.000 A 
HETATM   28  C51   D T1001      -0.019  -8.410  -4.288  1.00 13.41    -0.000 A 
HETATM   29  C52   D T1001       0.641  -7.242  -3.907  1.00 11.46    -0.004 A 
ENDBRANCH  23  24
ENDBRANCH   1  23
BRANCH   1  30
HETATM   30  N58   D T1001       1.588  -6.348  -0.501  1.00  8.28    -0.238 NA
HETATM   31  C18   D T1001       2.519  -7.341  -0.320  1.00  8.88     0.274 C 
HETATM   32  O61   D T1001       3.581  -7.348  -0.926  1.00 11.15    -0.268 OA
BRANCH  31  33
HETATM   33  C19   D T1001       2.052  -8.438   0.665  1.00  8.22     0.188 C 
BRANCH  33  34
HETATM   34  N20   D T1001       1.184  -7.735   1.642  1.00  9.06    -0.211 NA
HETATM   35  C21   D T1001       1.225  -8.157   2.961  1.00  7.77     0.343 C 
HETATM   36  N74   D T1001       0.351  -7.489   3.820  1.00  9.58    -0.294 N 
HETATM   37  O76   D T1001       1.906  -9.118   3.309  1.00  8.28    -0.245 OA
HETATM   38  C95   D T1001      -0.568  -6.438   3.394  1.00 12.13     0.131 C 
BRANCH  36  39
HETATM   39  C75   D T1001       0.266  -7.952   5.202  1.00 11.33     0.152 C 
BRANCH  39  40
HETATM   40  C77   D T1001      -1.120  -8.328   5.614  1.00 11.34     0.083 A 
HETATM   41  C80   D T1001      -1.710  -7.925   6.789  1.00 12.89     0.049 A 
HETATM   42  S81   D T1001      -3.295  -8.554   6.872  1.00 18.25    -0.091 SA
HETATM   43  C82   D T1001      -3.093  -9.313   5.352  1.00 17.46     0.127 A 
HETATM   44  N83   D T1001      -1.924  -9.130   4.825  1.00 15.61    -0.266 NA
BRANCH  43  45
HETATM   45  C85A  D T1001      -4.259 -10.102   4.800  0.65 20.47     0.030 C 
HETATM   46  C86A  D T1001      -4.976  -9.347   3.699  0.65 21.84     0.003 C 
HETATM   47  C90A  D T1001      -3.818 -11.505   4.365  0.65 25.77     0.003 C 
ENDBRANCH  43  45
BRANCH  43  48
HETATM   48  C85B  D T1001      -4.218 -10.114   4.751  0.35 20.27     0.030 C 
HETATM   49  C86B  D T1001      -5.046  -9.314   3.754  0.35 19.26     0.003 C 
HETATM   50  C90B  D T1001      -3.845 -11.502   4.278  0.35 21.00     0.003 C 
ENDBRANCH  43  48
ENDBRANCH  39  40
ENDBRANCH  36  39
ENDBRANCH  33  34
BRANCH  33  51
HETATM   51  C62   D T1001       1.267  -9.495  -0.154  1.00  9.40     0.032 C 
HETATM   52  C64   D T1001       1.720 -10.896   0.240  1.00 11.21     0.003 C 
HETATM   53  C68   D T1001      -0.240  -9.322   0.130  1.00 11.67     0.003 C 
ENDBRANCH  33  51
ENDBRANCH  31  33
ENDBRANCH   1  30
TORSDOF 19
ENDMDL
