MODEL 1
REMARK VINA RESULT:    -9.262      0.000      0.000
REMARK INTER + INTRA:         -11.533
REMARK INTER:                 -10.887
REMARK INTRA:                  -0.647
REMARK UNBOUND:                -0.647
REMARK  3 active torsions:
REMARK  status: ('A' for Active; 'I' for Inactive)
REMARK    1  A    between atoms: CAV_22  and  CAW_23 
REMARK    2  A    between atoms: CAX_24  and  NBD_30 
REMARK    3  A    between atoms: CAY_25  and  CAZ_26 
ROOT
HETATM    1  CAK   D T   3       0.057   1.228  -9.366  1.00 20.96     0.102 A 
HETATM    2  CAL   D T   3       0.998   5.135 -11.181  1.00 13.59     0.124 A 
HETATM    3  CAM   D T   3      -0.511   2.032 -11.553  1.00 18.11     0.104 A 
HETATM    4  NAS   D T   3       0.669   2.409  -9.039  1.00 13.25    -0.225 NA
HETATM    5  NAT   D T   3       0.293   4.241 -11.917  1.00 15.72    -0.162 NA
HETATM    6  CAW   D T   3      -0.581   1.035 -10.596  1.00 22.75     0.038 A 
HETATM    7  CAZ   D T   3       1.300   4.652  -9.990  1.00 12.88     0.057 A 
HETATM    8  CBC   D T   3       0.741   3.387  -9.974  1.00 11.55     0.165 A 
HETATM    9  NBE   D T   3       0.131   3.208 -11.250  1.00 16.74    -0.211 N 
ENDROOT
BRANCH   6  10
HETATM   10  CAV   D T   3      -1.194  -0.182 -10.957  1.00 21.40     0.003 A 
HETATM   11  CAE   D T   3      -0.428  -1.187 -11.524  1.00 24.66     0.002 A 
HETATM   12  CAG   D T   3      -0.989  -2.401 -11.916  1.00 27.57     0.017 A 
HETATM   13  CAX   D T   3      -2.352  -2.599 -11.807  1.00 20.12     0.056 A 
HETATM   14  CAH   D T   3      -3.135  -1.589 -11.286  1.00 21.49     0.017 A 
HETATM   15  CAF   D T   3      -2.580  -0.373 -10.847  1.00 24.93     0.002 A 
BRANCH  13  16
HETATM   16  NBD   D T   3      -2.876  -3.839 -12.294  1.00 29.07    -0.344 N 
HETATM   17  CAP   D T   3      -4.157  -3.877 -13.006  1.00 43.49     0.140 C 
HETATM   18  CAN   D T   3      -3.928  -4.732 -14.244  1.00 58.34     0.314 C 
HETATM   19  NAU   D T   3      -3.745  -6.152 -13.867  1.00 37.54     0.343 N 
HETATM   20  CAO   D T   3      -2.776  -6.333 -12.758  1.00 35.80     0.314 C 
HETATM   21  CAQ   D T   3      -2.019  -5.029 -12.383  1.00 24.02     0.140 C 
ENDBRANCH  13  16
ENDBRANCH   6  10
BRANCH   7  22
HETATM   22  CAY   D T   3       2.037   5.327  -8.928  1.00 18.73     0.007 A 
HETATM   23  CAD   D T   3       1.319   5.894  -7.891  1.00 18.59     0.021 A 
HETATM   24  CAC   D T   3       1.959   6.555  -6.822  1.00 18.90     0.099 A 
HETATM   25  NAR   D T   3       3.284   6.724  -6.825  1.00 18.61    -0.244 NA
HETATM   26  CBA   D T   3       4.038   6.224  -7.815  1.00 14.95     0.081 A 
HETATM   27  CAI   D T   3       5.418   6.410  -7.797  1.00 16.02     0.019 A 
HETATM   28  CBB   D T   3       3.447   5.541  -8.903  1.00 17.98     0.018 A 
HETATM   29  CAA   D T   3       6.229   5.951  -8.819  1.00 23.51     0.002 A 
HETATM   30  CAB   D T   3       5.665   5.269  -9.892  1.00 19.31     0.000 A 
HETATM   31  CAJ   D T   3       4.285   5.066  -9.901  1.00 21.46     0.002 A 
ENDBRANCH   7  22
TORSDOF 3
ENDMDL
MODEL 2
REMARK VINA RESULT:    -9.145      1.976     10.485
REMARK INTER + INTRA:         -11.396
REMARK INTER:                 -10.750
REMARK INTRA:                  -0.646
REMARK UNBOUND:                -0.647
REMARK  3 active torsions:
REMARK  status: ('A' for Active; 'I' for Inactive)
REMARK    1  A    between atoms: CAV_22  and  CAW_23 
REMARK    2  A    between atoms: CAX_24  and  NBD_30 
REMARK    3  A    between atoms: CAY_25  and  CAZ_26 
ROOT
HETATM    1  CAK   D T   3      -1.427   1.034  -9.943  1.00 20.96     0.102 A 
HETATM    2  CAL   D T   3      -4.227   0.691 -13.333  1.00 13.59     0.124 A 
HETATM    3  CAM   D T   3      -1.861   2.623 -11.687  1.00 18.11     0.104 A 
HETATM    4  NAS   D T   3      -2.307   0.133 -10.481  1.00 13.25    -0.225 NA
HETATM    5  NAT   D T   3      -3.490   1.823 -13.224  1.00 15.72    -0.162 NA
HETATM    6  CAW   D T   3      -1.152   2.262 -10.554  1.00 22.75     0.038 A 
HETATM    7  CAZ   D T   3      -3.968  -0.152 -12.350  1.00 12.88     0.057 A 
HETATM    8  CBC   D T   3      -3.004   0.483 -11.589  1.00 11.55     0.165 A 
HETATM    9  NBE   D T   3      -2.771   1.742 -12.216  1.00 16.74    -0.211 N 
ENDROOT
BRANCH   6  10
HETATM   10  CAV   D T   3      -0.268   3.210 -10.000  1.00 21.40     0.003 A 
HETATM   11  CAE   D T   3       0.961   3.426 -10.600  1.00 24.66     0.002 A 
HETATM   12  CAG   D T   3       1.879   4.337 -10.080  1.00 27.57     0.017 A 
HETATM   13  CAX   D T   3       1.600   4.999  -8.900  1.00 20.12     0.056 A 
HETATM   14  CAH   D T   3       0.399   4.760  -8.265  1.00 21.49     0.017 A 
HETATM   15  CAF   D T   3      -0.556   3.875  -8.799  1.00 24.93     0.002 A 
BRANCH  13  16
HETATM   16  NBD   D T   3       2.614   5.867  -8.380  1.00 29.07    -0.344 N 
HETATM   17  CAP   D T   3       2.415   6.564  -7.105  1.00 43.49     0.140 C 
HETATM   18  CAN   D T   3       3.698   6.368  -6.311  1.00 58.34     0.314 C 
HETATM   19  NAU   D T   3       4.805   7.144  -6.915  1.00 37.54     0.343 N 
HETATM   20  CAO   D T   3       4.909   6.954  -8.383  1.00 35.80     0.314 C 
HETATM   21  CAQ   D T   3       3.978   5.834  -8.926  1.00 24.02     0.140 C 
ENDBRANCH  13  16
ENDBRANCH   6  10
BRANCH   7  22
HETATM   22  CAY   D T   3      -4.557  -1.470 -12.145  1.00 18.73     0.007 A 
HETATM   23  CAD   D T   3      -5.883  -1.542 -11.756  1.00 18.59     0.021 A 
HETATM   24  CAC   D T   3      -6.527  -2.779 -11.548  1.00 18.90     0.099 A 
HETATM   25  NAR   D T   3      -5.844  -3.924 -11.642  1.00 18.61    -0.244 NA
HETATM   26  CBA   D T   3      -4.548  -3.925 -11.988  1.00 14.95     0.081 A 
HETATM   27  CAI   D T   3      -3.856  -5.129 -12.081  1.00 16.02     0.019 A 
HETATM   28  CBB   D T   3      -3.859  -2.712 -12.220  1.00 17.98     0.018 A 
HETATM   29  CAA   D T   3      -2.509  -5.174 -12.390  1.00 23.51     0.002 A 
HETATM   30  CAB   D T   3      -1.818  -3.991 -12.631  1.00 19.31     0.000 A 
HETATM   31  CAJ   D T   3      -2.515  -2.785 -12.556  1.00 21.46     0.002 A 
ENDBRANCH   7  22
TORSDOF 3
ENDMDL
MODEL 3
REMARK VINA RESULT:    -8.997      2.252     10.418
REMARK INTER + INTRA:         -11.222
REMARK INTER:                 -10.487
REMARK INTRA:                  -0.735
REMARK UNBOUND:                -0.647
REMARK  3 active torsions:
REMARK  status: ('A' for Active; 'I' for Inactive)
REMARK    1  A    between atoms: CAV_22  and  CAW_23 
REMARK    2  A    between atoms: CAX_24  and  NBD_30 
REMARK    3  A    between atoms: CAY_25  and  CAZ_26 
ROOT
HETATM    1  CAK   D T   3       0.252   2.858 -11.789  1.00 20.96     0.102 A 
HETATM    2  CAL   D T   3      -3.074   1.274  -9.365  1.00 13.59     0.124 A 
HETATM    3  CAM   D T   3      -0.091   3.046  -9.422  1.00 18.11     0.104 A 
HETATM    4  NAS   D T   3      -0.921   2.170 -11.952  1.00 13.25    -0.225 NA
HETATM    5  NAT   D T   3      -2.097   1.969  -8.734  1.00 15.72    -0.162 NA
HETATM    6  CAW   D T   3       0.662   3.347 -10.544  1.00 22.75     0.038 A 
HETATM    7  CAZ   D T   3      -2.844   1.183 -10.662  1.00 12.88     0.057 A 
HETATM    8  CBC   D T   3      -1.660   1.872 -10.856  1.00 11.55     0.165 A 
HETATM    9  NBE   D T   3      -1.251   2.327  -9.568  1.00 16.74    -0.211 N 
ENDROOT
BRANCH   6  10
HETATM   10  CAV   D T   3       1.878   4.035 -10.356  1.00 21.40     0.003 A 
HETATM   11  CAE   D T   3       2.853   3.974 -11.338  1.00 24.66     0.002 A 
HETATM   12  CAG   D T   3       4.079   4.619 -11.193  1.00 27.57     0.017 A 
HETATM   13  CAX   D T   3       4.374   5.283 -10.017  1.00 20.12     0.056 A 
HETATM   14  CAH   D T   3       3.431   5.313  -9.011  1.00 21.49     0.017 A 
HETATM   15  CAF   D T   3       2.172   4.703  -9.158  1.00 24.93     0.002 A 
BRANCH  13  16
HETATM   16  NBD   D T   3       5.678   5.863  -9.901  1.00 29.07    -0.344 N 
HETATM   17  CAP   D T   3       6.598   5.421  -8.848  1.00 43.49     0.140 C 
HETATM   18  CAN   D T   3       7.942   5.198  -9.526  1.00 58.34     0.314 C 
HETATM   19  NAU   D T   3       8.539   6.490  -9.933  1.00 37.54     0.343 N 
HETATM   20  CAO   D T   3       7.582   7.367 -10.651  1.00 35.80     0.314 C 
HETATM   21  CAQ   D T   3       6.242   6.660 -11.000  1.00 24.02     0.140 C 
ENDBRANCH  13  16
ENDBRANCH   6  10
BRANCH   7  22
HETATM   22  CAY   D T   3      -3.678   0.523 -11.659  1.00 18.73     0.007 A 
HETATM   23  CAD   D T   3      -4.717   1.241 -12.223  1.00 18.59     0.021 A 
HETATM   24  CAC   D T   3      -5.561   0.676 -13.201  1.00 18.90     0.099 A 
HETATM   25  NAR   D T   3      -5.430  -0.607 -13.553  1.00 18.61    -0.244 NA
HETATM   26  CBA   D T   3      -4.461  -1.368 -13.023  1.00 14.95     0.081 A 
HETATM   27  CAI   D T   3      -4.342  -2.702 -13.404  1.00 16.02     0.019 A 
HETATM   28  CBB   D T   3      -3.580  -0.846 -12.048  1.00 17.98     0.018 A 
HETATM   29  CAA   D T   3      -3.386  -3.535 -12.852  1.00 23.51     0.002 A 
HETATM   30  CAB   D T   3      -2.505  -3.036 -11.899  1.00 19.31     0.000 A 
HETATM   31  CAJ   D T   3      -2.613  -1.695 -11.530  1.00 21.46     0.002 A 
ENDBRANCH   7  22
TORSDOF 3
ENDMDL
MODEL 4
REMARK VINA RESULT:    -8.487      5.060      8.014
REMARK INTER + INTRA:         -10.622
REMARK INTER:                  -9.955
REMARK INTRA:                  -0.667
REMARK UNBOUND:                -0.647
REMARK  3 active torsions:
REMARK  status: ('A' for Active; 'I' for Inactive)
REMARK    1  A    between atoms: CAV_22  and  CAW_23 
REMARK    2  A    between atoms: CAX_24  and  NBD_30 
REMARK    3  A    between atoms: CAY_25  and  CAZ_26 
ROOT
HETATM    1  CAK   D T   3      -5.309  -1.472 -11.215  1.00 20.96     0.102 A 
HETATM    2  CAL   D T   3      -1.870   1.164 -12.035  1.00 13.59     0.124 A 
HETATM    3  CAM   D T   3      -5.208   0.443 -12.656  1.00 18.11     0.104 A 
HETATM    4  NAS   D T   3      -4.004  -1.313 -10.834  1.00 13.25    -0.225 NA
HETATM    5  NAT   D T   3      -3.046   1.436 -12.652  1.00 15.72    -0.162 NA
HETATM    6  CAW   D T   3      -5.945  -0.579 -12.086  1.00 22.75     0.038 A 
HETATM    7  CAZ   D T   3      -1.964   0.098 -11.261  1.00 12.88     0.057 A 
HETATM    8  CBC   D T   3      -3.279  -0.313 -11.391  1.00 11.55     0.165 A 
HETATM    9  NBE   D T   3      -3.888   0.592 -12.308  1.00 16.74    -0.211 N 
ENDROOT
BRANCH   6  10
HETATM   10  CAV   D T   3      -7.280  -0.744 -12.507  1.00 21.40     0.003 A 
HETATM   11  CAE   D T   3      -8.020  -1.809 -12.022  1.00 24.66     0.002 A 
HETATM   12  CAG   D T   3      -9.338  -2.028 -12.423  1.00 27.57     0.017 A 
HETATM   13  CAX   D T   3      -9.912  -1.212 -13.379  1.00 20.12     0.056 A 
HETATM   14  CAH   D T   3      -9.171  -0.174 -13.906  1.00 21.49     0.017 A 
HETATM   15  CAF   D T   3      -7.855   0.085 -13.482  1.00 24.93     0.002 A 
BRANCH  13  16
HETATM   16  NBD   D T   3     -11.242  -1.533 -13.801  1.00 29.07    -0.344 N 
HETATM   17  CAP   D T   3     -11.867  -0.802 -14.908  1.00 43.49     0.140 C 
HETATM   18  CAN   D T   3     -12.486  -1.857 -15.815  1.00 58.34     0.314 C 
HETATM   19  NAU   D T   3     -13.657  -2.482 -15.159  1.00 37.54     0.343 N 
HETATM   20  CAO   D T   3     -13.381  -2.900 -13.763  1.00 35.80     0.314 C 
HETATM   21  CAQ   D T   3     -11.882  -2.784 -13.370  1.00 24.02     0.140 C 
ENDBRANCH  13  16
ENDBRANCH   6  10
BRANCH   7  22
HETATM   22  CAY   D T   3      -0.913  -0.485 -10.437  1.00 18.73     0.007 A 
HETATM   23  CAD   D T   3      -0.349   0.297  -9.444  1.00 18.59     0.021 A 
HETATM   24  CAC   D T   3       0.665  -0.199  -8.599  1.00 18.90     0.099 A 
HETATM   25  NAR   D T   3       1.171  -1.421  -8.790  1.00 18.61    -0.244 NA
HETATM   26  CBA   D T   3       0.690  -2.220  -9.752  1.00 14.95     0.081 A 
HETATM   27  CAI   D T   3       1.231  -3.490  -9.933  1.00 16.02     0.019 A 
HETATM   28  CBB   D T   3      -0.336  -1.776 -10.619  1.00 17.98     0.018 A 
HETATM   29  CAA   D T   3       0.797  -4.332 -10.942  1.00 23.51     0.002 A 
HETATM   30  CAB   D T   3      -0.218  -3.915 -11.797  1.00 19.31     0.000 A 
HETATM   31  CAJ   D T   3      -0.773  -2.650 -11.605  1.00 21.46     0.002 A 
ENDBRANCH   7  22
TORSDOF 3
ENDMDL
MODEL 5
REMARK VINA RESULT:    -8.469      1.795      2.415
REMARK INTER + INTRA:         -10.602
REMARK INTER:                 -10.030
REMARK INTRA:                  -0.572
REMARK UNBOUND:                -0.647
REMARK  3 active torsions:
REMARK  status: ('A' for Active; 'I' for Inactive)
REMARK    1  A    between atoms: CAV_22  and  CAW_23 
REMARK    2  A    between atoms: CAX_24  and  NBD_30 
REMARK    3  A    between atoms: CAY_25  and  CAZ_26 
ROOT
HETATM    1  CAK   D T   3       0.099   1.822  -9.489  1.00 20.96     0.102 A 
HETATM    2  CAL   D T   3       0.287   6.172  -8.787  1.00 13.59     0.124 A 
HETATM    3  CAM   D T   3      -1.661   3.442  -9.679  1.00 18.11     0.104 A 
HETATM    4  NAS   D T   3       0.997   2.776  -9.089  1.00 13.25    -0.225 NA
HETATM    5  NAT   D T   3      -0.902   5.634  -9.155  1.00 15.72    -0.162 NA
HETATM    6  CAW   D T   3      -1.244   2.124  -9.741  1.00 22.75     0.038 A 
HETATM    7  CAZ   D T   3       1.230   5.252  -8.705  1.00 12.88     0.057 A 
HETATM    8  CBC   D T   3       0.593   4.068  -9.028  1.00 11.55     0.165 A 
HETATM    9  NBE   D T   3      -0.761   4.412  -9.312  1.00 16.74    -0.211 N 
ENDROOT
BRANCH   6  10
HETATM   10  CAV   D T   3      -2.175   1.159 -10.177  1.00 21.40     0.003 A 
HETATM   11  CAE   D T   3      -1.718  -0.010 -10.763  1.00 24.66     0.002 A 
HETATM   12  CAG   D T   3      -2.596  -0.987 -11.229  1.00 27.57     0.017 A 
HETATM   13  CAX   D T   3      -3.960  -0.770 -11.176  1.00 20.12     0.056 A 
HETATM   14  CAH   D T   3      -4.430   0.411 -10.638  1.00 21.49     0.017 A 
HETATM   15  CAF   D T   3      -3.558   1.388 -10.125  1.00 24.93     0.002 A 
BRANCH  13  16
HETATM   16  NBD   D T   3      -4.807  -1.779 -11.737  1.00 29.07    -0.344 N 
HETATM   17  CAP   D T   3      -4.278  -2.737 -12.713  1.00 43.49     0.140 C 
HETATM   18  CAN   D T   3      -4.763  -4.108 -12.266  1.00 58.34     0.314 C 
HETATM   19  NAU   D T   3      -6.224  -4.235 -12.473  1.00 37.54     0.343 N 
HETATM   20  CAO   D T   3      -6.982  -3.071 -11.953  1.00 35.80     0.314 C 
HETATM   21  CAQ   D T   3      -6.109  -2.086 -11.128  1.00 24.02     0.140 C 
ENDBRANCH  13  16
ENDBRANCH   6  10
BRANCH   7  22
HETATM   22  CAY   D T   3       2.624   5.454  -8.329  1.00 18.73     0.007 A 
HETATM   23  CAD   D T   3       2.894   6.074  -7.121  1.00 18.59     0.021 A 
HETATM   24  CAC   D T   3       4.215   6.295  -6.682  1.00 18.90     0.099 A 
HETATM   25  NAR   D T   3       5.252   5.983  -7.465  1.00 18.61    -0.244 NA
HETATM   26  CBA   D T   3       5.061   5.405  -8.660  1.00 14.95     0.081 A 
HETATM   27  CAI   D T   3       6.155   5.087  -9.459  1.00 16.02     0.019 A 
HETATM   28  CBB   D T   3       3.756   5.150  -9.141  1.00 17.98     0.018 A 
HETATM   29  CAA   D T   3       6.004   4.531 -10.717  1.00 23.51     0.002 A 
HETATM   30  CAB   D T   3       4.728   4.265 -11.202  1.00 19.31     0.000 A 
HETATM   31  CAJ   D T   3       3.631   4.566 -10.394  1.00 21.46     0.002 A 
ENDBRANCH   7  22
TORSDOF 3
ENDMDL
MODEL 6
REMARK VINA RESULT:    -8.451      5.720      9.889
REMARK INTER + INTRA:         -10.579
REMARK INTER:                 -10.063
REMARK INTRA:                  -0.516
REMARK UNBOUND:                -0.647
REMARK  3 active torsions:
REMARK  status: ('A' for Active; 'I' for Inactive)
REMARK    1  A    between atoms: CAV_22  and  CAW_23 
REMARK    2  A    between atoms: CAX_24  and  NBD_30 
REMARK    3  A    between atoms: CAY_25  and  CAZ_26 
ROOT
HETATM    1  CAK   D T   3      -4.643   0.941  -9.478  1.00 20.96     0.102 A 
HETATM    2  CAL   D T   3      -0.881   0.717 -11.770  1.00 13.59     0.124 A 
HETATM    3  CAM   D T   3      -3.166   2.726 -10.100  1.00 18.11     0.104 A 
HETATM    4  NAS   D T   3      -3.832   0.004 -10.064  1.00 13.25    -0.225 NA
HETATM    5  NAT   D T   3      -1.294   1.933 -11.335  1.00 15.72    -0.162 NA
HETATM    6  CAW   D T   3      -4.305   2.298  -9.442  1.00 22.75     0.038 A 
HETATM    7  CAZ   D T   3      -1.724  -0.236 -11.417  1.00 12.88     0.057 A 
HETATM    8  CBC   D T   3      -2.716   0.420 -10.710  1.00 11.55     0.165 A 
HETATM    9  NBE   D T   3      -2.364   1.801 -10.721  1.00 16.74    -0.211 N 
ENDROOT
BRANCH   6  10
HETATM   10  CAV   D T   3      -5.140   3.277  -8.866  1.00 21.40     0.003 A 
HETATM   11  CAE   D T   3      -6.515   3.128  -8.940  1.00 24.66     0.002 A 
HETATM   12  CAG   D T   3      -7.384   4.077  -8.404  1.00 27.57     0.017 A 
HETATM   13  CAX   D T   3      -6.880   5.234  -7.842  1.00 20.12     0.056 A 
HETATM   14  CAH   D T   3      -5.513   5.419  -7.802  1.00 21.49     0.017 A 
HETATM   15  CAF   D T   3      -4.621   4.452  -8.301  1.00 24.93     0.002 A 
BRANCH  13  16
HETATM   16  NBD   D T   3      -7.826   6.203  -7.375  1.00 29.07    -0.344 N 
HETATM   17  CAP   D T   3      -8.574   7.031  -8.327  1.00 43.49     0.140 C 
HETATM   18  CAN   D T   3     -10.027   6.988  -7.874  1.00 58.34     0.314 C 
HETATM   19  NAU   D T   3     -10.198   7.741  -6.610  1.00 37.54     0.343 N 
HETATM   20  CAO   D T   3      -9.183   7.389  -5.587  1.00 35.80     0.314 C 
HETATM   21  CAQ   D T   3      -8.304   6.171  -5.986  1.00 24.02     0.140 C 
ENDBRANCH  13  16
ENDBRANCH   6  10
BRANCH   7  22
HETATM   22  CAY   D T   3      -1.606  -1.662 -11.696  1.00 18.73     0.007 A 
HETATM   23  CAD   D T   3      -2.598  -2.269 -12.445  1.00 18.59     0.021 A 
HETATM   24  CAC   D T   3      -2.549  -3.641 -12.765  1.00 18.90     0.099 A 
HETATM   25  NAR   D T   3      -1.575  -4.417 -12.280  1.00 18.61    -0.244 NA
HETATM   26  CBA   D T   3      -0.596  -3.898 -11.524  1.00 14.95     0.081 A 
HETATM   27  CAI   D T   3       0.410  -4.724 -11.030  1.00 16.02     0.019 A 
HETATM   28  CBB   D T   3      -0.592  -2.525 -11.185  1.00 17.98     0.018 A 
HETATM   29  CAA   D T   3       1.414  -4.242 -10.211  1.00 23.51     0.002 A 
HETATM   30  CAB   D T   3       1.439  -2.892  -9.875  1.00 19.31     0.000 A 
HETATM   31  CAJ   D T   3       0.441  -2.060 -10.384  1.00 21.46     0.002 A 
ENDBRANCH   7  22
TORSDOF 3
ENDMDL
MODEL 7
REMARK VINA RESULT:    -8.262      1.219      2.620
REMARK INTER + INTRA:         -10.357
REMARK INTER:                  -9.927
REMARK INTRA:                  -0.430
REMARK UNBOUND:                -0.647
REMARK  3 active torsions:
REMARK  status: ('A' for Active; 'I' for Inactive)
REMARK    1  A    between atoms: CAV_22  and  CAW_23 
REMARK    2  A    between atoms: CAX_24  and  NBD_30 
REMARK    3  A    between atoms: CAY_25  and  CAZ_26 
ROOT
HETATM    1  CAK   D T   3       0.504   1.554  -9.630  1.00 20.96     0.102 A 
HETATM    2  CAL   D T   3      -0.357   5.879  -9.535  1.00 13.59     0.124 A 
HETATM    3  CAM   D T   3      -1.368   2.724 -10.571  1.00 18.11     0.104 A 
HETATM    4  NAS   D T   3       1.029   2.711  -9.119  1.00 13.25    -0.225 NA
HETATM    5  NAT   D T   3      -1.240   5.064 -10.163  1.00 15.72    -0.162 NA
HETATM    6  CAW   D T   3      -0.716   1.530 -10.316  1.00 22.75     0.038 A 
HETATM    7  CAZ   D T   3       0.662   5.200  -9.042  1.00 12.88     0.057 A 
HETATM    8  CBC   D T   3       0.395   3.882  -9.368  1.00 11.55     0.165 A 
HETATM    9  NBE   D T   3      -0.832   3.895 -10.094  1.00 16.74    -0.211 N 
ENDROOT
BRANCH   6  10
HETATM   10  CAV   D T   3      -1.258   0.353 -10.869  1.00 21.40     0.003 A 
HETATM   11  CAE   D T   3      -0.434  -0.738 -11.089  1.00 24.66     0.002 A 
HETATM   12  CAG   D T   3      -0.916  -1.918 -11.652  1.00 27.57     0.017 A 
HETATM   13  CAX   D T   3      -2.230  -1.996 -12.070  1.00 20.12     0.056 A 
HETATM   14  CAH   D T   3      -3.053  -0.901 -11.901  1.00 21.49     0.017 A 
HETATM   15  CAF   D T   3      -2.593   0.283 -11.296  1.00 24.93     0.002 A 
BRANCH  13  16
HETATM   16  NBD   D T   3      -2.645  -3.210 -12.707  1.00 29.07    -0.344 N 
HETATM   17  CAP   D T   3      -1.783  -4.395 -12.682  1.00 43.49     0.140 C 
HETATM   18  CAN   D T   3      -2.681  -5.563 -12.297  1.00 58.34     0.314 C 
HETATM   19  NAU   D T   3      -3.614  -5.885 -13.401  1.00 37.54     0.343 N 
HETATM   20  CAO   D T   3      -4.297  -4.687 -13.947  1.00 35.80     0.314 C 
HETATM   21  CAQ   D T   3      -4.045  -3.400 -13.112  1.00 24.02     0.140 C 
ENDBRANCH  13  16
ENDBRANCH   6  10
BRANCH   7  22
HETATM   22  CAY   D T   3       1.795   5.733  -8.295  1.00 18.73     0.007 A 
HETATM   23  CAD   D T   3       3.072   5.439  -8.741  1.00 18.59     0.021 A 
HETATM   24  CAC   D T   3       4.217   5.926  -8.079  1.00 18.90     0.099 A 
HETATM   25  NAR   D T   3       4.101   6.624  -6.945  1.00 18.61    -0.244 NA
HETATM   26  CBA   D T   3       2.894   6.921  -6.443  1.00 14.95     0.081 A 
HETATM   27  CAI   D T   3       2.795   7.651  -5.261  1.00 16.02     0.019 A 
HETATM   28  CBB   D T   3       1.713   6.467  -7.075  1.00 17.98     0.018 A 
HETATM   29  CAA   D T   3       1.573   7.942  -4.682  1.00 23.51     0.002 A 
HETATM   30  CAB   D T   3       0.402   7.511  -5.296  1.00 19.31     0.000 A 
HETATM   31  CAJ   D T   3       0.499   6.796  -6.490  1.00 21.46     0.002 A 
ENDBRANCH   7  22
TORSDOF 3
ENDMDL
MODEL 8
REMARK VINA RESULT:    -8.116      5.248     10.218
REMARK INTER + INTRA:         -10.187
REMARK INTER:                  -9.738
REMARK INTRA:                  -0.448
REMARK UNBOUND:                -0.647
REMARK  3 active torsions:
REMARK  status: ('A' for Active; 'I' for Inactive)
REMARK    1  A    between atoms: CAV_22  and  CAW_23 
REMARK    2  A    between atoms: CAX_24  and  NBD_30 
REMARK    3  A    between atoms: CAY_25  and  CAZ_26 
ROOT
HETATM    1  CAK   D T   3      -4.364   0.206  -9.708  1.00 20.96     0.102 A 
HETATM    2  CAL   D T   3      -0.476  -0.062 -11.772  1.00 13.59     0.124 A 
HETATM    3  CAM   D T   3      -2.897   1.988 -10.363  1.00 18.11     0.104 A 
HETATM    4  NAS   D T   3      -3.501  -0.743 -10.186  1.00 13.25    -0.225 NA
HETATM    5  NAT   D T   3      -0.941   1.168 -11.440  1.00 15.72    -0.162 NA
HETATM    6  CAW   D T   3      -4.061   1.572  -9.741  1.00 22.75     0.038 A 
HETATM    7  CAZ   D T   3      -1.316  -1.012 -11.405  1.00 12.88     0.057 A 
HETATM    8  CBC   D T   3      -2.361  -0.340 -10.797  1.00 11.55     0.165 A 
HETATM    9  NBE   D T   3      -2.040   1.046 -10.878  1.00 16.74    -0.211 N 
ENDROOT
BRANCH   6  10
HETATM   10  CAV   D T   3      -4.949   2.563  -9.276  1.00 21.40     0.003 A 
HETATM   11  CAE   D T   3      -6.307   2.425  -9.512  1.00 24.66     0.002 A 
HETATM   12  CAG   D T   3      -7.224   3.386  -9.090  1.00 27.57     0.017 A 
HETATM   13  CAX   D T   3      -6.779   4.544  -8.481  1.00 20.12     0.056 A 
HETATM   14  CAH   D T   3      -5.425   4.717  -8.280  1.00 21.49     0.017 A 
HETATM   15  CAF   D T   3      -4.490   3.739  -8.662  1.00 24.93     0.002 A 
BRANCH  13  16
HETATM   16  NBD   D T   3      -7.765   5.524  -8.138  1.00 29.07    -0.344 N 
HETATM   17  CAP   D T   3      -8.642   6.090  -9.167  1.00 43.49     0.140 C 
HETATM   18  CAN   D T   3     -10.051   6.048  -8.593  1.00 58.34     0.314 C 
HETATM   19  NAU   D T   3     -10.193   7.030  -7.494  1.00 37.54     0.343 N 
HETATM   20  CAO   D T   3      -9.083   6.962  -6.512  1.00 35.80     0.314 C 
HETATM   21  CAQ   D T   3      -8.139   5.748  -6.734  1.00 24.02     0.140 C 
ENDBRANCH  13  16
ENDBRANCH   6  10
BRANCH   7  22
HETATM   22  CAY   D T   3      -1.149  -2.450 -11.584  1.00 18.73     0.007 A 
HETATM   23  CAD   D T   3       0.034  -3.030 -11.161  1.00 18.59     0.021 A 
HETATM   24  CAC   D T   3       0.266  -4.415 -11.289  1.00 18.90     0.099 A 
HETATM   25  NAR   D T   3      -0.625  -5.198 -11.904  1.00 18.61    -0.244 NA
HETATM   26  CBA   D T   3      -1.780  -4.695 -12.364  1.00 14.95     0.081 A 
HETATM   27  CAI   D T   3      -2.695  -5.530 -13.000  1.00 16.02     0.019 A 
HETATM   28  CBB   D T   3      -2.067  -3.315 -12.248  1.00 17.98     0.018 A 
HETATM   29  CAA   D T   3      -3.878  -5.047 -13.529  1.00 23.51     0.002 A 
HETATM   30  CAB   D T   3      -4.181  -3.694 -13.416  1.00 19.31     0.000 A 
HETATM   31  CAJ   D T   3      -3.273  -2.861 -12.762  1.00 21.46     0.002 A 
ENDBRANCH   7  22
TORSDOF 3
ENDMDL
MODEL 9
REMARK VINA RESULT:    -7.946      3.384     10.264
REMARK INTER + INTRA:          -9.986
REMARK INTER:                  -9.256
REMARK INTRA:                  -0.730
REMARK UNBOUND:                -0.647
REMARK  3 active torsions:
REMARK  status: ('A' for Active; 'I' for Inactive)
REMARK    1  A    between atoms: CAV_22  and  CAW_23 
REMARK    2  A    between atoms: CAX_24  and  NBD_30 
REMARK    3  A    between atoms: CAY_25  and  CAZ_26 
ROOT
HETATM    1  CAK   D T   3      -0.772   3.607 -11.231  1.00 20.96     0.102 A 
HETATM    2  CAL   D T   3      -4.053   2.930  -8.362  1.00 13.59     0.124 A 
HETATM    3  CAM   D T   3      -0.754   3.894  -8.849  1.00 18.11     0.104 A 
HETATM    4  NAS   D T   3      -2.090   3.235 -11.223  1.00 13.25    -0.225 NA
HETATM    5  NAT   D T   3      -2.861   3.361  -7.881  1.00 15.72    -0.162 NA
HETATM    6  CAW   D T   3      -0.099   3.987 -10.065  1.00 22.75     0.038 A 
HETATM    7  CAZ   D T   3      -4.018   2.773  -9.673  1.00 12.88     0.057 A 
HETATM    8  CBC   D T   3      -2.735   3.142 -10.035  1.00 11.55     0.165 A 
HETATM    9  NBE   D T   3      -2.066   3.489  -8.825  1.00 16.74    -0.211 N 
ENDROOT
BRANCH   6  10
HETATM   10  CAV   D T   3       1.263   4.348 -10.052  1.00 21.40     0.003 A 
HETATM   11  CAE   D T   3       2.075   3.977 -11.111  1.00 24.66     0.002 A 
HETATM   12  CAG   D T   3       3.433   4.292 -11.139  1.00 27.57     0.017 A 
HETATM   13  CAX   D T   3       4.014   4.929 -10.059  1.00 20.12     0.056 A 
HETATM   14  CAH   D T   3       3.228   5.265  -8.976  1.00 21.49     0.017 A 
HETATM   15  CAF   D T   3       1.848   4.991  -8.951  1.00 24.93     0.002 A 
BRANCH  13  16
HETATM   16  NBD   D T   3       5.427   5.160 -10.117  1.00 29.07    -0.344 N 
HETATM   17  CAP   D T   3       5.977   6.191 -11.001  1.00 43.49     0.140 C 
HETATM   18  CAN   D T   3       6.976   6.977 -10.164  1.00 58.34     0.314 C 
HETATM   19  NAU   D T   3       8.171   6.152  -9.874  1.00 37.54     0.343 N 
HETATM   20  CAO   D T   3       7.829   4.795  -9.381  1.00 35.80     0.314 C 
HETATM   21  CAQ   D T   3       6.315   4.612  -9.082  1.00 24.02     0.140 C 
ENDBRANCH  13  16
ENDBRANCH   6  10
BRANCH   7  22
HETATM   22  CAY   D T   3      -5.110   2.337 -10.534  1.00 18.73     0.007 A 
HETATM   23  CAD   D T   3      -6.034   3.279 -10.950  1.00 18.59     0.021 A 
HETATM   24  CAC   D T   3      -7.111   2.936 -11.793  1.00 18.90     0.099 A 
HETATM   25  NAR   D T   3      -7.318   1.665 -12.149  1.00 18.61    -0.244 NA
HETATM   26  CBA   D T   3      -6.476   0.697 -11.758  1.00 14.95     0.081 A 
HETATM   27  CAI   D T   3      -6.708  -0.621 -12.141  1.00 16.02     0.019 A 
HETATM   28  CBB   D T   3      -5.372   0.990 -10.923  1.00 17.98     0.018 A 
HETATM   29  CAA   D T   3      -5.892  -1.657 -11.725  1.00 23.51     0.002 A 
HETATM   30  CAB   D T   3      -4.797  -1.386 -10.911  1.00 19.31     0.000 A 
HETATM   31  CAJ   D T   3      -4.553  -0.063 -10.541  1.00 21.46     0.002 A 
ENDBRANCH   7  22
TORSDOF 3
ENDMDL
