MODEL 1
REMARK VINA RESULT:    -9.180      0.000      0.000
REMARK INTER + INTRA:         -11.552
REMARK INTER:                 -10.789
REMARK INTRA:                  -0.762
REMARK UNBOUND:                -0.762
REMARK  3 active torsions:
REMARK  status: ('A' for Active; 'I' for Inactive)
REMARK    1  A    between atoms: CAV_22  and  CAW_23 
REMARK    2  A    between atoms: CAX_24  and  NBD_30 
REMARK    3  A    between atoms: CAY_25  and  CAZ_26 
ROOT
HETATM    1  CAK   D T   3      -0.338   0.398  -9.949  1.00 20.96     0.102 A 
HETATM    2  CAL   D T   3      -1.617   4.194 -11.794  1.00 13.59     0.124 A 
HETATM    3  CAM   D T   3      -1.980   0.745 -11.664  1.00 18.11     0.104 A 
HETATM    4  NAS   D T   3      -0.093   1.741  -9.845  1.00 13.25    -0.225 NA
HETATM    5  NAT   D T   3      -2.204   3.047 -12.217  1.00 15.72    -0.162 NA
HETATM    6  CAW   D T   3      -1.310  -0.118 -10.813  1.00 22.75     0.038 A 
HETATM    7  CAZ   D T   3      -0.714   3.960 -10.860  1.00 12.88     0.057 A 
HETATM    8  CBC   D T   3      -0.746   2.590 -10.677  1.00 11.55     0.165 A 
HETATM    9  NBE   D T   3      -1.718   2.091 -11.594  1.00 16.74    -0.211 N 
ENDROOT
BRANCH   6  10
HETATM   10  CAV   D T   3      -1.557  -1.499 -10.948  1.00 21.40     0.003 A 
HETATM   11  CAE   D T   3      -0.550  -2.402 -10.648  1.00 24.66     0.002 A 
HETATM   12  CAG   D T   3      -0.736  -3.777 -10.783  1.00 27.57     0.017 A 
HETATM   13  CAX   D T   3      -1.923  -4.265 -11.294  1.00 20.12     0.056 A 
HETATM   14  CAH   D T   3      -2.918  -3.375 -11.642  1.00 21.49     0.017 A 
HETATM   15  CAF   D T   3      -2.763  -1.987 -11.473  1.00 24.93     0.002 A 
BRANCH  13  16
HETATM   16  NBD   D T   3      -2.024  -5.682 -11.478  1.00 29.07    -0.344 N 
HETATM   17  CAP   D T   3      -3.209  -6.266 -12.114  1.00 43.49     0.140 C 
HETATM   18  CAN   D T   3      -2.690  -7.261 -13.142  1.00 58.34     0.314 C 
HETATM   19  NAU   D T   3      -2.090  -8.435 -12.471  1.00 37.54     0.343 N 
HETATM   20  CAO   D T   3      -1.147  -8.062 -11.389  1.00 35.80     0.314 C 
HETATM   21  CAQ   D T   3      -0.839  -6.541 -11.338  1.00 24.02     0.140 C 
ENDBRANCH  13  16
ENDBRANCH   6  10
BRANCH   7  22
HETATM   22  CAY   D T   3       0.107   4.945 -10.165  1.00 18.73     0.007 A 
HETATM   23  CAD   D T   3      -0.462   5.656  -9.124  1.00 18.59     0.021 A 
HETATM   24  CAC   D T   3       0.269   6.617  -8.398  1.00 18.90     0.099 A 
HETATM   25  NAR   D T   3       1.519   6.928  -8.751  1.00 18.61    -0.244 NA
HETATM   26  CBA   D T   3       2.123   6.297  -9.767  1.00 14.95     0.081 A 
HETATM   27  CAI   D T   3       3.428   6.635 -10.119  1.00 16.02     0.019 A 
HETATM   28  CBB   D T   3       1.437   5.315 -10.521  1.00 17.98     0.018 A 
HETATM   29  CAA   D T   3       4.073   6.042 -11.189  1.00 23.51     0.002 A 
HETATM   30  CAB   D T   3       3.416   5.068 -11.934  1.00 19.31     0.000 A 
HETATM   31  CAJ   D T   3       2.116   4.714 -11.572  1.00 21.46     0.002 A 
ENDBRANCH   7  22
TORSDOF 3
ENDMDL
MODEL 2
REMARK VINA RESULT:    -9.012      2.323     10.322
REMARK INTER + INTRA:         -11.355
REMARK INTER:                 -10.772
REMARK INTRA:                  -0.583
REMARK UNBOUND:                -0.762
REMARK  3 active torsions:
REMARK  status: ('A' for Active; 'I' for Inactive)
REMARK    1  A    between atoms: CAV_22  and  CAW_23 
REMARK    2  A    between atoms: CAX_24  and  NBD_30 
REMARK    3  A    between atoms: CAY_25  and  CAZ_26 
ROOT
HETATM    1  CAK   D T   3      -1.933  -0.207 -10.928  1.00 20.96     0.102 A 
HETATM    2  CAL   D T   3      -4.916  -1.555 -13.882  1.00 13.59     0.124 A 
HETATM    3  CAM   D T   3      -2.543   0.822 -13.007  1.00 18.11     0.104 A 
HETATM    4  NAS   D T   3      -2.802  -1.245 -11.131  1.00 13.25    -0.225 NA
HETATM    5  NAT   D T   3      -4.226  -0.418 -14.142  1.00 15.72    -0.162 NA
HETATM    6  CAW   D T   3      -1.751   0.810 -11.872  1.00 22.75     0.038 A 
HETATM    7  CAZ   D T   3      -4.559  -2.084 -12.726  1.00 12.88     0.057 A 
HETATM    8  CBC   D T   3      -3.580  -1.236 -12.241  1.00 11.55     0.165 A 
HETATM    9  NBE   D T   3      -3.443  -0.196 -13.206  1.00 16.74    -0.211 N 
ENDROOT
BRANCH   6  10
HETATM   10  CAV   D T   3      -0.878   1.897 -11.667  1.00 21.40     0.003 A 
HETATM   11  CAE   D T   3      -0.392   2.594 -12.760  1.00 24.66     0.002 A 
HETATM   12  CAG   D T   3       0.489   3.665 -12.613  1.00 27.57     0.017 A 
HETATM   13  CAX   D T   3       0.952   4.008 -11.357  1.00 20.12     0.056 A 
HETATM   14  CAH   D T   3       0.513   3.293 -10.263  1.00 21.49     0.017 A 
HETATM   15  CAF   D T   3      -0.408   2.237 -10.389  1.00 24.93     0.002 A 
BRANCH  13  16
HETATM   16  NBD   D T   3       1.912   5.069 -11.280  1.00 29.07    -0.344 N 
HETATM   17  CAP   D T   3       1.951   5.953 -10.111  1.00 43.49     0.140 C 
HETATM   18  CAN   D T   3       3.414   6.056  -9.708  1.00 58.34     0.314 C 
HETATM   19  NAU   D T   3       4.175   6.837 -10.709  1.00 37.54     0.343 N 
HETATM   20  CAO   D T   3       3.909   6.403 -12.102  1.00 35.80     0.314 C 
HETATM   21  CAQ   D T   3       3.066   5.102 -12.191  1.00 24.02     0.140 C 
ENDBRANCH  13  16
ENDBRANCH   6  10
BRANCH   7  22
HETATM   22  CAY   D T   3      -5.075  -3.307 -12.123  1.00 18.73     0.007 A 
HETATM   23  CAD   D T   3      -6.400  -3.335 -11.727  1.00 18.59     0.021 A 
HETATM   24  CAC   D T   3      -6.975  -4.483 -11.146  1.00 18.90     0.099 A 
HETATM   25  NAR   D T   3      -6.226  -5.559 -10.885  1.00 18.61    -0.244 NA
HETATM   26  CBA   D T   3      -4.928  -5.590 -11.217  1.00 14.95     0.081 A 
HETATM   27  CAI   D T   3      -4.166  -6.721 -10.937  1.00 16.02     0.019 A 
HETATM   28  CBB   D T   3      -4.306  -4.468 -11.814  1.00 17.98     0.018 A 
HETATM   29  CAA   D T   3      -2.814  -6.778 -11.221  1.00 23.51     0.002 A 
HETATM   30  CAB   D T   3      -2.189  -5.688 -11.816  1.00 19.31     0.000 A 
HETATM   31  CAJ   D T   3      -2.954  -4.561 -12.115  1.00 21.46     0.002 A 
ENDBRANCH   7  22
TORSDOF 3
ENDMDL
MODEL 3
REMARK VINA RESULT:    -8.465      1.624      2.120
REMARK INTER + INTRA:         -10.711
REMARK INTER:                 -10.254
REMARK INTRA:                  -0.457
REMARK UNBOUND:                -0.762
REMARK  3 active torsions:
REMARK  status: ('A' for Active; 'I' for Inactive)
REMARK    1  A    between atoms: CAV_22  and  CAW_23 
REMARK    2  A    between atoms: CAX_24  and  NBD_30 
REMARK    3  A    between atoms: CAY_25  and  CAZ_26 
ROOT
HETATM    1  CAK   D T   3      -0.869   0.895  -9.958  1.00 20.96     0.102 A 
HETATM    2  CAL   D T   3       0.258   4.081 -12.791  1.00 13.59     0.124 A 
HETATM    3  CAM   D T   3      -1.301   1.017 -12.315  1.00 18.11     0.104 A 
HETATM    4  NAS   D T   3      -0.248   2.115  -9.961  1.00 13.25    -0.225 NA
HETATM    5  NAT   D T   3      -0.427   3.013 -13.269  1.00 15.72    -0.162 NA
HETATM    6  CAW   D T   3      -1.445   0.349 -11.111  1.00 22.75     0.038 A 
HETATM    7  CAZ   D T   3       0.485   3.971 -11.495  1.00 12.88     0.057 A 
HETATM    8  CBC   D T   3      -0.104   2.772 -11.138  1.00 11.55     0.165 A 
HETATM    9  NBE   D T   3      -0.650   2.226 -12.336  1.00 16.74    -0.211 N 
ENDROOT
BRANCH   6  10
HETATM   10  CAV   D T   3      -2.066  -0.915 -11.130  1.00 21.40     0.003 A 
HETATM   11  CAE   D T   3      -3.409  -1.009 -11.455  1.00 24.66     0.002 A 
HETATM   12  CAG   D T   3      -4.076  -2.233 -11.469  1.00 27.57     0.017 A 
HETATM   13  CAX   D T   3      -3.413  -3.383 -11.085  1.00 20.12     0.056 A 
HETATM   14  CAH   D T   3      -2.087  -3.299 -10.714  1.00 21.49     0.017 A 
HETATM   15  CAF   D T   3      -1.388  -2.078 -10.734  1.00 24.93     0.002 A 
BRANCH  13  16
HETATM   16  NBD   D T   3      -4.172  -4.597 -11.050  1.00 29.07    -0.344 N 
HETATM   17  CAP   D T   3      -5.480  -4.638 -10.389  1.00 43.49     0.140 C 
HETATM   18  CAN   D T   3      -6.418  -5.352 -11.351  1.00 58.34     0.314 C 
HETATM   19  NAU   D T   3      -6.074  -6.788 -11.442  1.00 37.54     0.343 N 
HETATM   20  CAO   D T   3      -4.624  -7.023 -11.647  1.00 35.80     0.314 C 
HETATM   21  CAQ   D T   3      -3.825  -5.722 -11.931  1.00 24.02     0.140 C 
ENDBRANCH  13  16
ENDBRANCH   6  10
BRANCH   7  22
HETATM   22  CAY   D T   3       1.179   4.927 -10.641  1.00 18.73     0.007 A 
HETATM   23  CAD   D T   3       0.469   5.527  -9.615  1.00 18.59     0.021 A 
HETATM   24  CAC   D T   3       1.072   6.452  -8.741  1.00 18.90     0.099 A 
HETATM   25  NAR   D T   3       2.337   6.841  -8.930  1.00 18.61    -0.244 NA
HETATM   26  CBA   D T   3       3.074   6.320  -9.921  1.00 14.95     0.081 A 
HETATM   27  CAI   D T   3       4.391   6.738 -10.101  1.00 16.02     0.019 A 
HETATM   28  CBB   D T   3       2.520   5.378 -10.819  1.00 17.98     0.018 A 
HETATM   29  CAA   D T   3       5.173   6.261 -11.137  1.00 23.51     0.002 A 
HETATM   30  CAB   D T   3       4.647   5.327 -12.023  1.00 19.31     0.000 A 
HETATM   31  CAJ   D T   3       3.334   4.893 -11.834  1.00 21.46     0.002 A 
ENDBRANCH   7  22
TORSDOF 3
ENDMDL
MODEL 4
REMARK VINA RESULT:    -8.459      5.865     10.370
REMARK INTER + INTRA:         -10.705
REMARK INTER:                 -10.076
REMARK INTRA:                  -0.629
REMARK UNBOUND:                -0.762
REMARK  3 active torsions:
REMARK  status: ('A' for Active; 'I' for Inactive)
REMARK    1  A    between atoms: CAV_22  and  CAW_23 
REMARK    2  A    between atoms: CAX_24  and  NBD_30 
REMARK    3  A    between atoms: CAY_25  and  CAZ_26 
ROOT
HETATM    1  CAK   D T   3      -4.940  -1.612  -9.569  1.00 20.96     0.102 A 
HETATM    2  CAL   D T   3      -4.623  -3.633 -13.475  1.00 13.59     0.124 A 
HETATM    3  CAM   D T   3      -6.181  -1.182 -11.576  1.00 18.11     0.104 A 
HETATM    4  NAS   D T   3      -4.204  -2.593 -10.177  1.00 13.25    -0.225 NA
HETATM    5  NAT   D T   3      -5.523  -2.628 -13.346  1.00 15.72    -0.162 NA
HETATM    6  CAW   D T   3      -5.897  -0.861 -10.260  1.00 22.75     0.038 A 
HETATM    7  CAZ   D T   3      -3.969  -3.846 -12.348  1.00 12.88     0.057 A 
HETATM    8  CBC   D T   3      -4.479  -2.912 -11.466  1.00 11.55     0.165 A 
HETATM    9  NBE   D T   3      -5.474  -2.187 -12.188  1.00 16.74    -0.211 N 
ENDROOT
BRANCH   6  10
HETATM   10  CAV   D T   3      -6.679   0.135  -9.642  1.00 21.40     0.003 A 
HETATM   11  CAE   D T   3      -6.077   1.310  -9.224  1.00 24.66     0.002 A 
HETATM   12  CAG   D T   3      -6.801   2.319  -8.589  1.00 27.57     0.017 A 
HETATM   13  CAX   D T   3      -8.139   2.129  -8.301  1.00 20.12     0.056 A 
HETATM   14  CAH   D T   3      -8.742   0.945  -8.670  1.00 21.49     0.017 A 
HETATM   15  CAF   D T   3      -8.036  -0.066  -9.348  1.00 24.93     0.002 A 
BRANCH  13  16
HETATM   16  NBD   D T   3      -8.809   3.172  -7.583  1.00 29.07    -0.344 N 
HETATM   17  CAP   D T   3     -10.232   3.051  -7.251  1.00 43.49     0.140 C 
HETATM   18  CAN   D T   3     -10.359   3.442  -5.786  1.00 58.34     0.314 C 
HETATM   19  NAU   D T   3     -10.126   4.893  -5.614  1.00 37.54     0.343 N 
HETATM   20  CAO   D T   3      -8.908   5.368  -6.314  1.00 35.80     0.314 C 
HETATM   21  CAQ   D T   3      -8.040   4.216  -6.890  1.00 24.02     0.140 C 
ENDBRANCH  13  16
ENDBRANCH   6  10
BRANCH   7  22
HETATM   22  CAY   D T   3      -2.923  -4.833 -12.112  1.00 18.73     0.007 A 
HETATM   23  CAD   D T   3      -3.277  -6.171 -12.089  1.00 18.59     0.021 A 
HETATM   24  CAC   D T   3      -2.322  -7.185 -11.877  1.00 18.90     0.099 A 
HETATM   25  NAR   D T   3      -1.050  -6.875 -11.609  1.00 18.61    -0.244 NA
HETATM   26  CBA   D T   3      -0.644  -5.598 -11.589  1.00 14.95     0.081 A 
HETATM   27  CAI   D T   3       0.687  -5.296 -11.309  1.00 16.02     0.019 A 
HETATM   28  CBB   D T   3      -1.560  -4.542 -11.808  1.00 17.98     0.018 A 
HETATM   29  CAA   D T   3       1.139  -3.991 -11.234  1.00 23.51     0.002 A 
HETATM   30  CAB   D T   3       0.253  -2.942 -11.456  1.00 19.31     0.000 A 
HETATM   31  CAJ   D T   3      -1.076  -3.242 -11.755  1.00 21.46     0.002 A 
ENDBRANCH   7  22
TORSDOF 3
ENDMDL
MODEL 5
REMARK VINA RESULT:    -8.323      5.182      8.145
REMARK INTER + INTRA:         -10.545
REMARK INTER:                  -9.974
REMARK INTRA:                  -0.571
REMARK UNBOUND:                -0.762
REMARK  3 active torsions:
REMARK  status: ('A' for Active; 'I' for Inactive)
REMARK    1  A    between atoms: CAV_22  and  CAW_23 
REMARK    2  A    between atoms: CAX_24  and  NBD_30 
REMARK    3  A    between atoms: CAY_25  and  CAZ_26 
ROOT
HETATM    1  CAK   D T   3      -5.024  -4.049 -10.715  1.00 20.96     0.102 A 
HETATM    2  CAL   D T   3      -2.513  -0.736 -12.187  1.00 13.59     0.124 A 
HETATM    3  CAM   D T   3      -5.549  -2.406 -12.382  1.00 18.11     0.104 A 
HETATM    4  NAS   D T   3      -3.794  -3.492 -10.485  1.00 13.25    -0.225 NA
HETATM    5  NAT   D T   3      -3.753  -0.882 -12.714  1.00 15.72    -0.162 NA
HETATM    6  CAW   D T   3      -5.935  -3.495 -11.621  1.00 22.75     0.038 A 
HETATM    7  CAZ   D T   3      -2.258  -1.664 -11.282  1.00 12.88     0.057 A 
HETATM    8  CBC   D T   3      -3.411  -2.426 -11.230  1.00 11.55     0.165 A 
HETATM    9  NBE   D T   3      -4.304  -1.860 -12.186  1.00 16.74    -0.211 N 
ENDROOT
BRANCH   6  10
HETATM   10  CAV   D T   3      -7.194  -4.070 -11.885  1.00 21.40     0.003 A 
HETATM   11  CAE   D T   3      -7.654  -5.100 -11.081  1.00 24.66     0.002 A 
HETATM   12  CAG   D T   3      -8.884  -5.716 -11.312  1.00 27.57     0.017 A 
HETATM   13  CAX   D T   3      -9.643  -5.349 -12.406  1.00 20.12     0.056 A 
HETATM   14  CAH   D T   3      -9.176  -4.357 -13.243  1.00 21.49     0.017 A 
HETATM   15  CAF   D T   3      -7.958  -3.696 -13.001  1.00 24.93     0.002 A 
BRANCH  13  16
HETATM   16  NBD   D T   3     -10.861  -6.070 -12.630  1.00 29.07    -0.344 N 
HETATM   17  CAP   D T   3     -10.883  -7.534 -12.555  1.00 43.49     0.140 C 
HETATM   18  CAN   D T   3     -12.094  -7.895 -11.708  1.00 58.34     0.314 C 
HETATM   19  NAU   D T   3     -13.346  -7.606 -12.442  1.00 37.54     0.343 N 
HETATM   20  CAO   D T   3     -13.357  -6.255 -13.055  1.00 35.80     0.314 C 
HETATM   21  CAQ   D T   3     -12.155  -5.373 -12.619  1.00 24.02     0.140 C 
ENDBRANCH  13  16
ENDBRANCH   6  10
BRANCH   7  22
HETATM   22  CAY   D T   3      -1.038  -1.818 -10.500  1.00 18.73     0.007 A 
HETATM   23  CAD   D T   3      -0.599  -0.741  -9.750  1.00 18.59     0.021 A 
HETATM   24  CAC   D T   3       0.566  -0.815  -8.961  1.00 18.90     0.099 A 
HETATM   25  NAR   D T   3       1.330  -1.911  -8.979  1.00 18.61    -0.244 NA
HETATM   26  CBA   D T   3       0.979  -2.981  -9.705  1.00 14.95     0.081 A 
HETATM   27  CAI   D T   3       1.789  -4.115  -9.709  1.00 16.02     0.019 A 
HETATM   28  CBB   D T   3      -0.188  -2.963 -10.505  1.00 17.98     0.018 A 
HETATM   29  CAA   D T   3       1.488  -5.224 -10.479  1.00 23.51     0.002 A 
HETATM   30  CAB   D T   3       0.340  -5.226 -11.263  1.00 19.31     0.000 A 
HETATM   31  CAJ   D T   3      -0.483  -4.099 -11.246  1.00 21.46     0.002 A 
ENDBRANCH   7  22
TORSDOF 3
ENDMDL
MODEL 6
REMARK VINA RESULT:    -8.124      5.456      9.412
REMARK INTER + INTRA:         -10.311
REMARK INTER:                  -9.682
REMARK INTRA:                  -0.629
REMARK UNBOUND:                -0.762
REMARK  3 active torsions:
REMARK  status: ('A' for Active; 'I' for Inactive)
REMARK    1  A    between atoms: CAV_22  and  CAW_23 
REMARK    2  A    between atoms: CAX_24  and  NBD_30 
REMARK    3  A    between atoms: CAY_25  and  CAZ_26 
ROOT
HETATM    1  CAK   D T   3      -4.673  -1.421  -9.492  1.00 20.96     0.102 A 
HETATM    2  CAL   D T   3      -1.190  -0.552 -12.053  1.00 13.59     0.124 A 
HETATM    3  CAM   D T   3      -4.199   0.572 -10.740  1.00 18.11     0.104 A 
HETATM    4  NAS   D T   3      -3.501  -2.006  -9.890  1.00 13.25    -0.225 NA
HETATM    5  NAT   D T   3      -2.141   0.405 -11.920  1.00 15.72    -0.162 NA
HETATM    6  CAW   D T   3      -5.019  -0.117  -9.863  1.00 22.75     0.038 A 
HETATM    7  CAZ   D T   3      -1.492  -1.636 -11.361  1.00 12.88     0.057 A 
HETATM    8  CBC   D T   3      -2.695  -1.335 -10.749  1.00 11.55     0.165 A 
HETATM    9  NBE   D T   3      -3.038  -0.017 -11.173  1.00 16.74    -0.211 N 
ENDROOT
BRANCH   6  10
HETATM   10  CAV   D T   3      -6.233   0.489  -9.482  1.00 21.40     0.003 A 
HETATM   11  CAE   D T   3      -6.228   1.805  -9.047  1.00 24.66     0.002 A 
HETATM   12  CAG   D T   3      -7.398   2.445  -8.640  1.00 27.57     0.017 A 
HETATM   13  CAX   D T   3      -8.588   1.745  -8.597  1.00 20.12     0.056 A 
HETATM   14  CAH   D T   3      -8.599   0.420  -8.983  1.00 21.49     0.017 A 
HETATM   15  CAF   D T   3      -7.437  -0.229  -9.436  1.00 24.93     0.002 A 
BRANCH  13  16
HETATM   16  NBD   D T   3      -9.739   2.438  -8.100  1.00 29.07    -0.344 N 
HETATM   17  CAP   D T   3      -9.857   2.756  -6.674  1.00 43.49     0.140 C 
HETATM   18  CAN   D T   3     -10.292   4.213  -6.601  1.00 58.34     0.314 C 
HETATM   19  NAU   D T   3     -11.688   4.362  -7.067  1.00 37.54     0.343 N 
HETATM   20  CAO   D T   3     -11.946   3.666  -8.351  1.00 35.80     0.314 C 
HETATM   21  CAQ   D T   3     -10.658   3.119  -9.024  1.00 24.02     0.140 C 
ENDBRANCH  13  16
ENDBRANCH   6  10
BRANCH   7  22
HETATM   22  CAY   D T   3      -0.706  -2.858 -11.255  1.00 18.73     0.007 A 
HETATM   23  CAD   D T   3      -1.185  -4.002 -11.869  1.00 18.59     0.021 A 
HETATM   24  CAC   D T   3      -0.478  -5.219 -11.821  1.00 18.90     0.099 A 
HETATM   25  NAR   D T   3       0.645  -5.324 -11.105  1.00 18.61    -0.244 NA
HETATM   26  CBA   D T   3       1.152  -4.262 -10.463  1.00 14.95     0.081 A 
HETATM   27  CAI   D T   3       2.325  -4.392  -9.723  1.00 16.02     0.019 A 
HETATM   28  CBB   D T   3       0.487  -3.014 -10.490  1.00 17.98     0.018 A 
HETATM   29  CAA   D T   3       2.858  -3.335  -9.009  1.00 23.51     0.002 A 
HETATM   30  CAB   D T   3       2.223  -2.098  -9.033  1.00 19.31     0.000 A 
HETATM   31  CAJ   D T   3       1.058  -1.961  -9.788  1.00 21.46     0.002 A 
ENDBRANCH   7  22
TORSDOF 3
ENDMDL
MODEL 7
REMARK VINA RESULT:    -8.086      5.528     12.208
REMARK INTER + INTRA:         -10.266
REMARK INTER:                  -9.546
REMARK INTRA:                  -0.720
REMARK UNBOUND:                -0.762
REMARK  3 active torsions:
REMARK  status: ('A' for Active; 'I' for Inactive)
REMARK    1  A    between atoms: CAV_22  and  CAW_23 
REMARK    2  A    between atoms: CAX_24  and  NBD_30 
REMARK    3  A    between atoms: CAY_25  and  CAZ_26 
ROOT
HETATM    1  CAK   D T   3      -5.734  -5.813 -11.197  1.00 20.96     0.102 A 
HETATM    2  CAL   D T   3      -9.054  -3.936 -13.411  1.00 13.59     0.124 A 
HETATM    3  CAM   D T   3      -5.745  -3.728 -12.383  1.00 18.11     0.104 A 
HETATM    4  NAS   D T   3      -7.034  -6.071 -11.541  1.00 13.25    -0.225 NA
HETATM    5  NAT   D T   3      -7.864  -3.288 -13.372  1.00 15.72    -0.162 NA
HETATM    6  CAW   D T   3      -5.055  -4.675 -11.646  1.00 22.75     0.038 A 
HETATM    7  CAZ   D T   3      -9.010  -5.072 -12.739  1.00 12.88     0.057 A 
HETATM    8  CBC   D T   3      -7.714  -5.146 -12.263  1.00 11.55     0.165 A 
HETATM    9  NBE   D T   3      -7.060  -3.959 -12.707  1.00 16.74    -0.211 N 
ENDROOT
BRANCH   6  10
HETATM   10  CAV   D T   3      -3.726  -4.383 -11.280  1.00 21.40     0.003 A 
HETATM   11  CAE   D T   3      -3.455  -3.222 -10.575  1.00 24.66     0.002 A 
HETATM   12  CAG   D T   3      -2.155  -2.878 -10.206  1.00 27.57     0.017 A 
HETATM   13  CAX   D T   3      -1.093  -3.666 -10.605  1.00 20.12     0.056 A 
HETATM   14  CAH   D T   3      -1.344  -4.801 -11.347  1.00 21.49     0.017 A 
HETATM   15  CAF   D T   3      -2.652  -5.186 -11.693  1.00 24.93     0.002 A 
BRANCH  13  16
HETATM   16  NBD   D T   3       0.223  -3.219 -10.257  1.00 29.07    -0.344 N 
HETATM   17  CAP   D T   3       0.561  -1.794 -10.304  1.00 43.49     0.140 C 
HETATM   18  CAN   D T   3       1.288  -1.489  -9.002  1.00 58.34     0.314 C 
HETATM   19  NAU   D T   3       2.625  -2.122  -8.994  1.00 37.54     0.343 N 
HETATM   20  CAO   D T   3       2.592  -3.546  -9.406  1.00 35.80     0.314 C 
HETATM   21  CAQ   D T   3       1.153  -4.112  -9.549  1.00 24.02     0.140 C 
ENDBRANCH  13  16
ENDBRANCH   6  10
BRANCH   7  22
HETATM   22  CAY   D T   3     -10.091  -6.035 -12.570  1.00 18.73     0.007 A 
HETATM   23  CAD   D T   3     -11.036  -5.796 -11.588  1.00 18.59     0.021 A 
HETATM   24  CAC   D T   3     -12.115  -6.674 -11.371  1.00 18.90     0.099 A 
HETATM   25  NAR   D T   3     -12.212  -7.816 -12.059  1.00 18.61    -0.244 NA
HETATM   26  CBA   D T   3     -11.315  -8.124 -13.007  1.00 14.95     0.081 A 
HETATM   27  CAI   D T   3     -11.434  -9.318 -13.714  1.00 16.02     0.019 A 
HETATM   28  CBB   D T   3     -10.219  -7.269 -13.273  1.00 17.98     0.018 A 
HETATM   29  CAA   D T   3     -10.507  -9.696 -14.668  1.00 23.51     0.002 A 
HETATM   30  CAB   D T   3      -9.429  -8.864 -14.948  1.00 19.31     0.000 A 
HETATM   31  CAJ   D T   3      -9.318  -7.659 -14.255  1.00 21.46     0.002 A 
ENDBRANCH   7  22
TORSDOF 3
ENDMDL
MODEL 8
REMARK VINA RESULT:    -7.991      2.994      3.547
REMARK INTER + INTRA:         -10.154
REMARK INTER:                 -10.149
REMARK INTRA:                  -0.005
REMARK UNBOUND:                -0.762
REMARK  3 active torsions:
REMARK  status: ('A' for Active; 'I' for Inactive)
REMARK    1  A    between atoms: CAV_22  and  CAW_23 
REMARK    2  A    between atoms: CAX_24  and  NBD_30 
REMARK    3  A    between atoms: CAY_25  and  CAZ_26 
ROOT
HETATM    1  CAK   D T   3      -2.941   0.916 -10.487  1.00 20.96     0.102 A 
HETATM    2  CAL   D T   3      -0.163   3.140 -13.091  1.00 13.59     0.124 A 
HETATM    3  CAM   D T   3      -2.483   0.573 -12.816  1.00 18.11     0.104 A 
HETATM    4  NAS   D T   3      -2.083   1.981 -10.426  1.00 13.25    -0.225 NA
HETATM    5  NAT   D T   3      -0.876   2.124 -13.636  1.00 15.72    -0.162 NA
HETATM    6  CAW   D T   3      -3.194   0.229 -11.680  1.00 22.75     0.038 A 
HETATM    7  CAZ   D T   3      -0.436   3.290 -11.808  1.00 12.88     0.057 A 
HETATM    8  CBC   D T   3      -1.383   2.320 -11.536  1.00 11.55     0.165 A 
HETATM    9  NBE   D T   3      -1.593   1.617 -12.759  1.00 16.74    -0.211 N 
ENDROOT
BRANCH   6  10
HETATM   10  CAV   D T   3      -4.056  -0.883 -11.754  1.00 21.40     0.003 A 
HETATM   11  CAE   D T   3      -4.475  -1.337 -12.993  1.00 24.66     0.002 A 
HETATM   12  CAG   D T   3      -5.343  -2.421 -13.121  1.00 27.57     0.017 A 
HETATM   13  CAX   D T   3      -5.861  -3.025 -11.992  1.00 20.12     0.056 A 
HETATM   14  CAH   D T   3      -5.489  -2.554 -10.750  1.00 21.49     0.017 A 
HETATM   15  CAF   D T   3      -4.582  -1.488 -10.603  1.00 24.93     0.002 A 
BRANCH  13  16
HETATM   16  NBD   D T   3      -6.805  -4.085 -12.189  1.00 29.07    -0.344 N 
HETATM   17  CAP   D T   3      -6.763  -5.284 -11.347  1.00 43.49     0.140 C 
HETATM   18  CAN   D T   3      -8.198  -5.546 -10.914  1.00 58.34     0.314 C 
HETATM   19  NAU   D T   3      -9.012  -6.004 -12.062  1.00 37.54     0.343 N 
HETATM   20  CAO   D T   3      -8.837  -5.159 -13.267  1.00 35.80     0.314 C 
HETATM   21  CAQ   D T   3      -8.012  -3.870 -13.000  1.00 24.02     0.140 C 
ENDBRANCH  13  16
ENDBRANCH   6  10
BRANCH   7  22
HETATM   22  CAY   D T   3       0.127   4.281 -10.900  1.00 18.73     0.007 A 
HETATM   23  CAD   D T   3      -0.696   4.825  -9.930  1.00 18.59     0.021 A 
HETATM   24  CAC   D T   3      -0.224   5.781  -9.010  1.00 18.90     0.099 A 
HETATM   25  NAR   D T   3       1.023   6.254  -9.101  1.00 18.61    -0.244 NA
HETATM   26  CBA   D T   3       1.866   5.791 -10.034  1.00 14.95     0.081 A 
HETATM   27  CAI   D T   3       3.162   6.296 -10.112  1.00 16.02     0.019 A 
HETATM   28  CBB   D T   3       1.445   4.821 -10.975  1.00 17.98     0.018 A 
HETATM   29  CAA   D T   3       4.050   5.880 -11.087  1.00 23.51     0.002 A 
HETATM   30  CAB   D T   3       3.655   4.921 -12.013  1.00 19.31     0.000 A 
HETATM   31  CAJ   D T   3       2.364   4.400 -11.926  1.00 21.46     0.002 A 
ENDBRANCH   7  22
TORSDOF 3
ENDMDL
MODEL 9
REMARK VINA RESULT:    -7.799      2.717      4.350
REMARK INTER + INTRA:          -9.929
REMARK INTER:                  -9.207
REMARK INTRA:                  -0.723
REMARK UNBOUND:                -0.762
REMARK  3 active torsions:
REMARK  status: ('A' for Active; 'I' for Inactive)
REMARK    1  A    between atoms: CAV_22  and  CAW_23 
REMARK    2  A    between atoms: CAX_24  and  NBD_30 
REMARK    3  A    between atoms: CAY_25  and  CAZ_26 
ROOT
HETATM    1  CAK   D T   3      -2.197   0.995  -9.311  1.00 20.96     0.102 A 
HETATM    2  CAL   D T   3      -3.097   4.938 -11.070  1.00 13.59     0.124 A 
HETATM    3  CAM   D T   3      -2.712   1.528 -11.593  1.00 18.11     0.104 A 
HETATM    4  NAS   D T   3      -2.343   2.300  -8.923  1.00 13.25    -0.225 NA
HETATM    5  NAT   D T   3      -3.105   3.856 -11.886  1.00 15.72    -0.162 NA
HETATM    6  CAW   D T   3      -2.424   0.579 -10.628  1.00 22.75     0.038 A 
HETATM    7  CAZ   D T   3      -2.800   4.605  -9.827  1.00 12.88     0.057 A 
HETATM    8  CBC   D T   3      -2.624   3.234  -9.865  1.00 11.55     0.165 A 
HETATM    9  NBE   D T   3      -2.827   2.845 -11.222  1.00 16.74    -0.211 N 
ENDROOT
BRANCH   6  10
HETATM   10  CAV   D T   3      -2.253  -0.755 -11.048  1.00 21.40     0.003 A 
HETATM   11  CAE   D T   3      -3.356  -1.590 -11.123  1.00 24.66     0.002 A 
HETATM   12  CAG   D T   3      -3.239  -2.924 -11.513  1.00 27.57     0.017 A 
HETATM   13  CAX   D T   3      -1.992  -3.460 -11.768  1.00 20.12     0.056 A 
HETATM   14  CAH   D T   3      -0.880  -2.653 -11.652  1.00 21.49     0.017 A 
HETATM   15  CAF   D T   3      -0.983  -1.295 -11.300  1.00 24.93     0.002 A 
BRANCH  13  16
HETATM   16  NBD   D T   3      -1.932  -4.855 -12.093  1.00 29.07    -0.344 N 
HETATM   17  CAP   D T   3      -0.685  -5.606 -11.918  1.00 43.49     0.140 C 
HETATM   18  CAN   D T   3      -1.066  -6.896 -11.207  1.00 58.34     0.314 C 
HETATM   19  NAU   D T   3      -1.833  -7.780 -12.112  1.00 37.54     0.343 N 
HETATM   20  CAO   D T   3      -2.931  -7.073 -12.816  1.00 35.80     0.314 C 
HETATM   21  CAQ   D T   3      -3.165  -5.629 -12.295  1.00 24.02     0.140 C 
ENDBRANCH  13  16
ENDBRANCH   6  10
BRANCH   7  22
HETATM   22  CAY   D T   3      -2.709   5.495  -8.676  1.00 18.73     0.007 A 
HETATM   23  CAD   D T   3      -1.464   5.989  -8.326  1.00 18.59     0.021 A 
HETATM   24  CAC   D T   3      -1.296   6.863  -7.234  1.00 18.90     0.099 A 
HETATM   25  NAR   D T   3      -2.331   7.176  -6.449  1.00 18.61    -0.244 NA
HETATM   26  CBA   D T   3      -3.560   6.711  -6.714  1.00 14.95     0.081 A 
HETATM   27  CAI   D T   3      -4.626   7.050  -5.885  1.00 16.02     0.019 A 
HETATM   28  CBB   D T   3      -3.785   5.840  -7.807  1.00 17.98     0.018 A 
HETATM   29  CAA   D T   3      -5.900   6.556  -6.095  1.00 23.51     0.002 A 
HETATM   30  CAB   D T   3      -6.141   5.707  -7.169  1.00 19.31     0.000 A 
HETATM   31  CAJ   D T   3      -5.079   5.380  -8.013  1.00 21.46     0.002 A 
ENDBRANCH   7  22
TORSDOF 3
ENDMDL
