MODEL 1
REMARK VINA RESULT:    -9.970      0.000      0.000
REMARK INTER + INTRA:         -12.407
REMARK INTER:                 -11.719
REMARK INTRA:                  -0.688
REMARK UNBOUND:                -0.688
REMARK  3 active torsions:
REMARK  status: ('A' for Active; 'I' for Inactive)
REMARK    1  A    between atoms: CAV_22  and  CAW_23 
REMARK    2  A    between atoms: CAX_24  and  NBD_30 
REMARK    3  A    between atoms: CAY_25  and  CAZ_26 
ROOT
HETATM    1  CAK   D T   3       5.252  11.879   3.273  1.00 20.96     0.102 A 
HETATM    2  CAL   D T   3       9.297  11.242   1.637  1.00 13.59     0.124 A 
HETATM    3  CAM   D T   3       6.030  12.247   1.034  1.00 18.11     0.104 A 
HETATM    4  NAS   D T   3       6.494  11.485   3.691  1.00 13.25    -0.225 NA
HETATM    5  NAT   D T   3       8.337  11.710   0.804  1.00 15.72    -0.162 NA
HETATM    6  CAW   D T   3       5.008  12.310   1.964  1.00 22.75     0.038 A 
HETATM    7  CAZ   D T   3       8.827  11.042   2.855  1.00 12.88     0.057 A 
HETATM    8  CBC   D T   3       7.499  11.420   2.783  1.00 11.55     0.165 A 
HETATM    9  NBE   D T   3       7.274  11.820   1.433  1.00 16.74    -0.211 N 
ENDROOT
BRANCH   6  10
HETATM   10  CAV   D T   3       3.730  12.696   1.512  1.00 21.40     0.003 A 
HETATM   11  CAE   D T   3       2.622  12.426   2.297  1.00 24.66     0.002 A 
HETATM   12  CAG   D T   3       1.333  12.769   1.888  1.00 27.57     0.017 A 
HETATM   13  CAX   D T   3       1.133  13.329   0.640  1.00 20.12     0.056 A 
HETATM   14  CAH   D T   3       2.223  13.561  -0.172  1.00 21.49     0.017 A 
HETATM   15  CAF   D T   3       3.533  13.261   0.243  1.00 24.93     0.002 A 
BRANCH  13  16
HETATM   16  NBD   D T   3      -0.220  13.590   0.250  1.00 29.07    -0.344 N 
HETATM   17  CAP   D T   3      -0.606  13.551  -1.165  1.00 43.49     0.140 C 
HETATM   18  CAN   D T   3      -1.887  12.733  -1.231  1.00 58.34     0.314 C 
HETATM   19  NAU   D T   3      -3.013  13.479  -0.626  1.00 37.54     0.343 N 
HETATM   20  CAO   D T   3      -2.674  14.060   0.697  1.00 35.80     0.314 C 
HETATM   21  CAQ   D T   3      -1.301  13.583   1.245  1.00 24.02     0.140 C 
ENDBRANCH  13  16
ENDBRANCH   6  10
BRANCH   7  22
HETATM   22  CAY   D T   3       9.567  10.556   4.013  1.00 18.73     0.007 A 
HETATM   23  CAD   D T   3       9.345   9.257   4.435  1.00 18.59     0.021 A 
HETATM   24  CAC   D T   3      10.029   8.711   5.539  1.00 18.90     0.099 A 
HETATM   25  NAR   D T   3      10.858   9.466   6.266  1.00 18.61    -0.244 NA
HETATM   26  CBA   D T   3      11.097  10.743   5.929  1.00 14.95     0.081 A 
HETATM   27  CAI   D T   3      11.966  11.513   6.700  1.00 16.02     0.019 A 
HETATM   28  CBB   D T   3      10.447  11.334   4.822  1.00 17.98     0.018 A 
HETATM   29  CAA   D T   3      12.207  12.844   6.415  1.00 23.51     0.002 A 
HETATM   30  CAB   D T   3      11.582  13.439   5.325  1.00 19.31     0.000 A 
HETATM   31  CAJ   D T   3      10.727  12.664   4.542  1.00 21.46     0.002 A 
ENDBRANCH   7  22
TORSDOF 3
ENDMDL
MODEL 2
REMARK VINA RESULT:    -9.865      2.225     10.505
REMARK INTER + INTRA:         -12.283
REMARK INTER:                 -11.635
REMARK INTRA:                  -0.649
REMARK UNBOUND:                -0.688
REMARK  3 active torsions:
REMARK  status: ('A' for Active; 'I' for Inactive)
REMARK    1  A    between atoms: CAV_22  and  CAW_23 
REMARK    2  A    between atoms: CAX_24  and  NBD_30 
REMARK    3  A    between atoms: CAY_25  and  CAZ_26 
ROOT
HETATM    1  CAK   D T   3       6.167  12.462   2.756  1.00 20.96     0.102 A 
HETATM    2  CAL   D T   3       5.951  12.608  -1.646  1.00 13.59     0.124 A 
HETATM    3  CAM   D T   3       7.776  11.681   1.157  1.00 18.11     0.104 A 
HETATM    4  NAS   D T   3       5.306  12.858   1.768  1.00 13.25    -0.225 NA
HETATM    5  NAT   D T   3       7.049  12.055  -1.077  1.00 15.72    -0.162 NA
HETATM    6  CAW   D T   3       7.382  11.829   2.476  1.00 22.75     0.038 A 
HETATM    7  CAZ   D T   3       5.095  13.035  -0.734  1.00 12.88     0.057 A 
HETATM    8  CBC   D T   3       5.687  12.718   0.475  1.00 11.55     0.165 A 
HETATM    9  NBE   D T   3       6.936  12.106   0.156  1.00 16.74    -0.211 N 
ENDROOT
BRANCH   6  10
HETATM   10  CAV   D T   3       8.290  11.437   3.481  1.00 21.40     0.003 A 
HETATM   11  CAE   D T   3       9.470  12.144   3.643  1.00 24.66     0.002 A 
HETATM   12  CAG   D T   3      10.411  11.787   4.607  1.00 27.57     0.017 A 
HETATM   13  CAX   D T   3      10.209  10.660   5.383  1.00 20.12     0.056 A 
HETATM   14  CAH   D T   3       9.060   9.919   5.201  1.00 21.49     0.017 A 
HETATM   15  CAF   D T   3       8.081  10.290   4.262  1.00 24.93     0.002 A 
BRANCH  13  16
HETATM   16  NBD   D T   3      11.246  10.306   6.304  1.00 29.07    -0.344 N 
HETATM   17  CAP   D T   3      11.307   8.954   6.870  1.00 43.49     0.140 C 
HETATM   18  CAN   D T   3      12.757   8.508   6.744  1.00 58.34     0.314 C 
HETATM   19  NAU   D T   3      13.618   9.270   7.676  1.00 37.54     0.343 N 
HETATM   20  CAO   D T   3      13.376  10.733   7.618  1.00 35.80     0.314 C 
HETATM   21  CAQ   D T   3      12.436  11.156   6.457  1.00 24.02     0.140 C 
ENDBRANCH  13  16
ENDBRANCH   6  10
BRANCH   7  22
HETATM   22  CAY   D T   3       3.805  13.671  -0.969  1.00 18.73     0.007 A 
HETATM   23  CAD   D T   3       2.662  12.903  -0.839  1.00 18.59     0.021 A 
HETATM   24  CAC   D T   3       1.378  13.448  -1.039  1.00 18.90     0.099 A 
HETATM   25  NAR   D T   3       1.232  14.713  -1.443  1.00 18.61    -0.244 NA
HETATM   26  CBA   D T   3       2.301  15.506  -1.615  1.00 14.95     0.081 A 
HETATM   27  CAI   D T   3       2.128  16.822  -2.036  1.00 16.02     0.019 A 
HETATM   28  CBB   D T   3       3.610  15.011  -1.415  1.00 17.98     0.018 A 
HETATM   29  CAA   D T   3       3.202  17.661  -2.269  1.00 23.51     0.002 A 
HETATM   30  CAB   D T   3       4.496  17.194  -2.069  1.00 19.31     0.000 A 
HETATM   31  CAJ   D T   3       4.670  15.881  -1.629  1.00 21.46     0.002 A 
ENDBRANCH   7  22
TORSDOF 3
ENDMDL
MODEL 3
REMARK VINA RESULT:    -9.862      1.912     10.668
REMARK INTER + INTRA:         -12.280
REMARK INTER:                 -11.992
REMARK INTRA:                  -0.288
REMARK UNBOUND:                -0.688
REMARK  3 active torsions:
REMARK  status: ('A' for Active; 'I' for Inactive)
REMARK    1  A    between atoms: CAV_22  and  CAW_23 
REMARK    2  A    between atoms: CAX_24  and  NBD_30 
REMARK    3  A    between atoms: CAY_25  and  CAZ_26 
ROOT
HETATM    1  CAK   D T   3       6.816  12.279   3.012  1.00 20.96     0.102 A 
HETATM    2  CAL   D T   3       2.816  10.429   3.145  1.00 13.59     0.124 A 
HETATM    3  CAM   D T   3       6.155  10.231   4.071  1.00 18.11     0.104 A 
HETATM    4  NAS   D T   3       5.538  12.531   2.593  1.00 13.25    -0.225 NA
HETATM    5  NAT   D T   3       3.835   9.796   3.775  1.00 15.72    -0.162 NA
HETATM    6  CAW   D T   3       7.139  11.163   3.792  1.00 22.75     0.038 A 
HETATM    7  CAZ   D T   3       3.222  11.545   2.567  1.00 12.88     0.057 A 
HETATM    8  CBC   D T   3       4.571  11.620   2.862  1.00 11.55     0.165 A 
HETATM    9  NBE   D T   3       4.875  10.455   3.627  1.00 16.74    -0.211 N 
ENDROOT
BRANCH   6  10
HETATM   10  CAV   D T   3       8.454  10.876   4.210  1.00 21.40     0.003 A 
HETATM   11  CAE   D T   3       8.710   9.691   4.880  1.00 24.66     0.002 A 
HETATM   12  CAG   D T   3       9.988   9.367   5.333  1.00 27.57     0.017 A 
HETATM   13  CAX   D T   3      11.023  10.272   5.179  1.00 20.12     0.056 A 
HETATM   14  CAH   D T   3      10.773  11.475   4.555  1.00 21.49     0.017 A 
HETATM   15  CAF   D T   3       9.499  11.799   4.054  1.00 24.93     0.002 A 
BRANCH  13  16
HETATM   16  NBD   D T   3      12.295   9.911   5.731  1.00 29.07    -0.344 N 
HETATM   17  CAP   D T   3      12.699  10.405   7.051  1.00 43.49     0.140 C 
HETATM   18  CAN   D T   3      13.247   9.201   7.803  1.00 58.34     0.314 C 
HETATM   19  NAU   D T   3      14.540   8.771   7.227  1.00 37.54     0.343 N 
HETATM   20  CAO   D T   3      14.502   8.658   5.748  1.00 35.80     0.314 C 
HETATM   21  CAQ   D T   3      13.074   8.805   5.156  1.00 24.02     0.140 C 
ENDBRANCH  13  16
ENDBRANCH   6  10
BRANCH   7  22
HETATM   22  CAY   D T   3       2.409  12.489   1.811  1.00 18.73     0.007 A 
HETATM   23  CAD   D T   3       1.188  12.873   2.339  1.00 18.59     0.021 A 
HETATM   24  CAC   D T   3       0.351  13.790   1.674  1.00 18.90     0.099 A 
HETATM   25  NAR   D T   3       0.677  14.256   0.465  1.00 18.61    -0.244 NA
HETATM   26  CBA   D T   3       1.833  13.904  -0.117  1.00 14.95     0.081 A 
HETATM   27  CAI   D T   3       2.156  14.402  -1.377  1.00 16.02     0.019 A 
HETATM   28  CBB   D T   3       2.716  12.997   0.514  1.00 17.98     0.018 A 
HETATM   29  CAA   D T   3       3.315  14.030  -2.033  1.00 23.51     0.002 A 
HETATM   30  CAB   D T   3       4.198  13.146  -1.424  1.00 19.31     0.000 A 
HETATM   31  CAJ   D T   3       3.885  12.661  -0.154  1.00 21.46     0.002 A 
ENDBRANCH   7  22
TORSDOF 3
ENDMDL
MODEL 4
REMARK VINA RESULT:    -9.824      2.060     10.575
REMARK INTER + INTRA:         -12.235
REMARK INTER:                 -11.562
REMARK INTRA:                  -0.673
REMARK UNBOUND:                -0.688
REMARK  3 active torsions:
REMARK  status: ('A' for Active; 'I' for Inactive)
REMARK    1  A    between atoms: CAV_22  and  CAW_23 
REMARK    2  A    between atoms: CAX_24  and  NBD_30 
REMARK    3  A    between atoms: CAY_25  and  CAZ_26 
ROOT
HETATM    1  CAK   D T   3       6.298  12.890   2.477  1.00 20.96     0.102 A 
HETATM    2  CAL   D T   3       6.061  12.815  -1.926  1.00 13.59     0.124 A 
HETATM    3  CAM   D T   3       7.776  11.816   0.922  1.00 18.11     0.104 A 
HETATM    4  NAS   D T   3       5.488  13.339   1.470  1.00 13.25    -0.225 NA
HETATM    5  NAT   D T   3       7.083  12.155  -1.329  1.00 15.72    -0.162 NA
HETATM    6  CAW   D T   3       7.418  12.088   2.231  1.00 22.75     0.038 A 
HETATM    7  CAZ   D T   3       5.278  13.401  -1.038  1.00 12.88     0.057 A 
HETATM    8  CBC   D T   3       5.835  13.078   0.186  1.00 11.55     0.165 A 
HETATM    9  NBE   D T   3       6.990  12.291  -0.100  1.00 16.74    -0.211 N 
ENDROOT
BRANCH   6  10
HETATM   10  CAV   D T   3       8.276  11.637   3.254  1.00 21.40     0.003 A 
HETATM   11  CAE   D T   3       9.480  12.288   3.466  1.00 24.66     0.002 A 
HETATM   12  CAG   D T   3      10.375  11.872   4.451  1.00 27.57     0.017 A 
HETATM   13  CAX   D T   3      10.099  10.741   5.198  1.00 20.12     0.056 A 
HETATM   14  CAH   D T   3       8.925  10.056   4.967  1.00 21.49     0.017 A 
HETATM   15  CAF   D T   3       7.992  10.487   4.006  1.00 24.93     0.002 A 
BRANCH  13  16
HETATM   16  NBD   D T   3      11.091  10.323   6.143  1.00 29.07    -0.344 N 
HETATM   17  CAP   D T   3      11.007   9.002   6.773  1.00 43.49     0.140 C 
HETATM   18  CAN   D T   3      12.402   8.400   6.679  1.00 58.34     0.314 C 
HETATM   19  NAU   D T   3      13.337   9.110   7.579  1.00 37.54     0.343 N 
HETATM   20  CAO   D T   3      13.251  10.586   7.450  1.00 35.80     0.314 C 
HETATM   21  CAQ   D T   3      12.363  11.049   6.264  1.00 24.02     0.140 C 
ENDBRANCH  13  16
ENDBRANCH   6  10
BRANCH   7  22
HETATM   22  CAY   D T   3       4.080  14.187  -1.306  1.00 18.73     0.007 A 
HETATM   23  CAD   D T   3       4.234  15.456  -1.835  1.00 18.59     0.021 A 
HETATM   24  CAC   D T   3       3.125  16.273  -2.133  1.00 18.90     0.099 A 
HETATM   25  NAR   D T   3       1.886  15.872  -1.833  1.00 18.61    -0.244 NA
HETATM   26  CBA   D T   3       1.668  14.664  -1.292  1.00 14.95     0.081 A 
HETATM   27  CAI   D T   3       0.369  14.264  -0.988  1.00 16.02     0.019 A 
HETATM   28  CBB   D T   3       2.746  13.801  -0.987  1.00 17.98     0.018 A 
HETATM   29  CAA   D T   3       0.101  13.047  -0.390  1.00 23.51     0.002 A 
HETATM   30  CAB   D T   3       1.148  12.182  -0.091  1.00 19.31     0.000 A 
HETATM   31  CAJ   D T   3       2.448  12.573  -0.412  1.00 21.46     0.002 A 
ENDBRANCH   7  22
TORSDOF 3
ENDMDL
MODEL 5
REMARK VINA RESULT:    -9.492      5.986     10.639
REMARK INTER + INTRA:         -11.845
REMARK INTER:                 -11.135
REMARK INTRA:                  -0.710
REMARK UNBOUND:                -0.688
REMARK  3 active torsions:
REMARK  status: ('A' for Active; 'I' for Inactive)
REMARK    1  A    between atoms: CAV_22  and  CAW_23 
REMARK    2  A    between atoms: CAX_24  and  NBD_30 
REMARK    3  A    between atoms: CAY_25  and  CAZ_26 
ROOT
HETATM    1  CAK   D T   3       3.741  15.409  -1.986  1.00 20.96     0.102 A 
HETATM    2  CAL   D T   3       2.930  11.821   0.444  1.00 13.59     0.124 A 
HETATM    3  CAM   D T   3       4.991  13.365  -1.883  1.00 18.11     0.104 A 
HETATM    4  NAS   D T   3       2.848  14.967  -1.047  1.00 13.25    -0.225 NA
HETATM    5  NAT   D T   3       4.019  11.815  -0.361  1.00 15.72    -0.162 NA
HETATM    6  CAW   D T   3       4.845  14.647  -2.383  1.00 22.75     0.038 A 
HETATM    7  CAZ   D T   3       2.264  12.957   0.351  1.00 12.88     0.057 A 
HETATM    8  CBC   D T   3       2.986  13.711  -0.556  1.00 11.55     0.165 A 
HETATM    9  NBE   D T   3       4.082  12.896  -0.966  1.00 16.74    -0.211 N 
ENDROOT
BRANCH   6  10
HETATM   10  CAV   D T   3       5.759  15.078  -3.365  1.00 21.40     0.003 A 
HETATM   11  CAE   D T   3       5.511  16.252  -4.055  1.00 24.66     0.002 A 
HETATM   12  CAG   D T   3       6.372  16.714  -5.050  1.00 27.57     0.017 A 
HETATM   13  CAX   D T   3       7.469  15.955  -5.418  1.00 20.12     0.056 A 
HETATM   14  CAH   D T   3       7.704  14.761  -4.771  1.00 21.49     0.017 A 
HETATM   15  CAF   D T   3       6.868  14.302  -3.736  1.00 24.93     0.002 A 
BRANCH  13  16
HETATM   16  NBD   D T   3       8.273  16.448  -6.495  1.00 29.07    -0.344 N 
HETATM   17  CAP   D T   3       8.659  17.861  -6.549  1.00 43.49     0.140 C 
HETATM   18  CAN   D T   3      10.148  17.881  -6.863  1.00 58.34     0.314 C 
HETATM   19  NAU   D T   3      10.392  17.444  -8.255  1.00 37.54     0.343 N 
HETATM   20  CAO   D T   3       9.666  16.197  -8.602  1.00 35.80     0.314 C 
HETATM   21  CAQ   D T   3       8.989  15.518  -7.381  1.00 24.02     0.140 C 
ENDBRANCH  13  16
ENDBRANCH   6  10
BRANCH   7  22
HETATM   22  CAY   D T   3       1.053  13.328   1.072  1.00 18.73     0.007 A 
HETATM   23  CAD   D T   3       1.137  13.516   2.441  1.00 18.59     0.021 A 
HETATM   24  CAC   D T   3       0.013  13.886   3.207  1.00 18.90     0.099 A 
HETATM   25  NAR   D T   3      -1.192  13.987   2.639  1.00 18.61    -0.244 NA
HETATM   26  CBA   D T   3      -1.350  13.790   1.322  1.00 14.95     0.081 A 
HETATM   27  CAI   D T   3      -2.615  13.900   0.750  1.00 16.02     0.019 A 
HETATM   28  CBB   D T   3      -0.252  13.430   0.507  1.00 17.98     0.018 A 
HETATM   29  CAA   D T   3      -2.831  13.663  -0.595  1.00 23.51     0.002 A 
HETATM   30  CAB   D T   3      -1.761  13.316  -1.413  1.00 19.31     0.000 A 
HETATM   31  CAJ   D T   3      -0.490  13.224  -0.845  1.00 21.46     0.002 A 
ENDBRANCH   7  22
TORSDOF 3
ENDMDL
MODEL 6
REMARK VINA RESULT:    -9.454      6.242     10.651
REMARK INTER + INTRA:         -11.800
REMARK INTER:                 -11.443
REMARK INTRA:                  -0.357
REMARK UNBOUND:                -0.688
REMARK  3 active torsions:
REMARK  status: ('A' for Active; 'I' for Inactive)
REMARK    1  A    between atoms: CAV_22  and  CAW_23 
REMARK    2  A    between atoms: CAX_24  and  NBD_30 
REMARK    3  A    between atoms: CAY_25  and  CAZ_26 
ROOT
HETATM    1  CAK   D T   3       5.461  13.912  -3.209  1.00 20.96     0.102 A 
HETATM    2  CAL   D T   3       2.264  16.386  -1.446  1.00 13.59     0.124 A 
HETATM    3  CAM   D T   3       5.006  16.239  -3.570  1.00 18.11     0.104 A 
HETATM    4  NAS   D T   3       4.390  13.784  -2.366  1.00 13.25    -0.225 NA
HETATM    5  NAT   D T   3       3.123  16.974  -2.314  1.00 15.72    -0.162 NA
HETATM    6  CAW   D T   3       5.759  15.115  -3.859  1.00 22.75     0.038 A 
HETATM    7  CAZ   D T   3       2.554  15.110  -1.266  1.00 12.88     0.057 A 
HETATM    8  CBC   D T   3       3.650  14.883  -2.079  1.00 11.55     0.165 A 
HETATM    9  NBE   D T   3       3.949  16.133  -2.699  1.00 16.74    -0.211 N 
ENDROOT
BRANCH   6  10
HETATM   10  CAV   D T   3       6.871  15.269  -4.710  1.00 21.40     0.003 A 
HETATM   11  CAE   D T   3       8.148  15.169  -4.183  1.00 24.66     0.002 A 
HETATM   12  CAG   D T   3       9.283  15.332  -4.976  1.00 27.57     0.017 A 
HETATM   13  CAX   D T   3       9.148  15.673  -6.310  1.00 20.12     0.056 A 
HETATM   14  CAH   D T   3       7.883  15.821  -6.838  1.00 21.49     0.017 A 
HETATM   15  CAF   D T   3       6.727  15.617  -6.061  1.00 24.93     0.002 A 
BRANCH  13  16
HETATM   16  NBD   D T   3      10.351  15.898  -7.053  1.00 29.07    -0.344 N 
HETATM   17  CAP   D T   3      10.419  16.974  -8.048  1.00 43.49     0.140 C 
HETATM   18  CAN   D T   3      11.727  17.708  -7.787  1.00 58.34     0.314 C 
HETATM   19  NAU   D T   3      12.882  16.864  -8.167  1.00 37.54     0.343 N 
HETATM   20  CAO   D T   3      12.788  15.484  -7.631  1.00 35.80     0.314 C 
HETATM   21  CAQ   D T   3      11.620  15.293  -6.625  1.00 24.02     0.140 C 
ENDBRANCH  13  16
ENDBRANCH   6  10
BRANCH   7  22
HETATM   22  CAY   D T   3       1.848  14.160  -0.416  1.00 18.73     0.007 A 
HETATM   23  CAD   D T   3       0.469  14.092  -0.514  1.00 18.59     0.021 A 
HETATM   24  CAC   D T   3      -0.284  13.191   0.266  1.00 18.90     0.099 A 
HETATM   25  NAR   D T   3       0.311  12.430   1.189  1.00 18.61    -0.244 NA
HETATM   26  CBA   D T   3       1.642  12.467   1.356  1.00 14.95     0.081 A 
HETATM   27  CAI   D T   3       2.242  11.664   2.323  1.00 16.02     0.019 A 
HETATM   28  CBB   D T   3       2.444  13.343   0.589  1.00 17.98     0.018 A 
HETATM   29  CAA   D T   3       3.604  11.703   2.559  1.00 23.51     0.002 A 
HETATM   30  CAB   D T   3       4.409  12.552   1.809  1.00 19.31     0.000 A 
HETATM   31  CAJ   D T   3       3.811  13.343   0.827  1.00 21.46     0.002 A 
ENDBRANCH   7  22
TORSDOF 3
ENDMDL
MODEL 7
REMARK VINA RESULT:    -9.424      5.691      8.841
REMARK INTER + INTRA:         -11.765
REMARK INTER:                 -11.460
REMARK INTRA:                  -0.305
REMARK UNBOUND:                -0.688
REMARK  3 active torsions:
REMARK  status: ('A' for Active; 'I' for Inactive)
REMARK    1  A    between atoms: CAV_22  and  CAW_23 
REMARK    2  A    between atoms: CAX_24  and  NBD_30 
REMARK    3  A    between atoms: CAY_25  and  CAZ_26 
ROOT
HETATM    1  CAK   D T   3       6.042  12.983  -1.914  1.00 20.96     0.102 A 
HETATM    2  CAL   D T   3       2.335  13.869   0.303  1.00 13.59     0.124 A 
HETATM    3  CAM   D T   3       4.458  14.743  -2.299  1.00 18.11     0.104 A 
HETATM    4  NAS   D T   3       5.305  12.482  -0.875  1.00 13.25    -0.225 NA
HETATM    5  NAT   D T   3       2.660  14.666  -0.743  1.00 15.72    -0.162 NA
HETATM    6  CAW   D T   3       5.615  14.080  -2.670  1.00 22.75     0.038 A 
HETATM    7  CAZ   D T   3       3.235  12.921   0.489  1.00 12.88     0.057 A 
HETATM    8  CBC   D T   3       4.172  13.128  -0.507  1.00 11.55     0.165 A 
HETATM    9  NBE   D T   3       3.727  14.271  -1.237  1.00 16.74    -0.211 N 
ENDROOT
BRANCH   6  10
HETATM   10  CAV   D T   3       6.374  14.623  -3.726  1.00 21.40     0.003 A 
HETATM   11  CAE   D T   3       7.753  14.489  -3.711  1.00 24.66     0.002 A 
HETATM   12  CAG   D T   3       8.552  15.023  -4.720  1.00 27.57     0.017 A 
HETATM   13  CAX   D T   3       7.976  15.768  -5.733  1.00 20.12     0.056 A 
HETATM   14  CAH   D T   3       6.609  15.950  -5.737  1.00 21.49     0.017 A 
HETATM   15  CAF   D T   3       5.784  15.381  -4.749  1.00 24.93     0.002 A 
BRANCH  13  16
HETATM   16  NBD   D T   3       8.858  16.352  -6.699  1.00 29.07    -0.344 N 
HETATM   17  CAP   D T   3       8.600  17.697  -7.223  1.00 43.49     0.140 C 
HETATM   18  CAN   D T   3       9.929  18.435  -7.164  1.00 58.34     0.314 C 
HETATM   19  NAU   D T   3      10.873  17.891  -8.166  1.00 37.54     0.343 N 
HETATM   20  CAO   D T   3      10.946  16.409  -8.142  1.00 35.80     0.314 C 
HETATM   21  CAQ   D T   3      10.187  15.774  -6.944  1.00 24.02     0.140 C 
ENDBRANCH  13  16
ENDBRANCH   6  10
BRANCH   7  22
HETATM   22  CAY   D T   3       3.215  11.878   1.507  1.00 18.73     0.007 A 
HETATM   23  CAD   D T   3       2.035  11.184   1.712  1.00 18.59     0.021 A 
HETATM   24  CAC   D T   3       1.939  10.154   2.669  1.00 18.90     0.099 A 
HETATM   25  NAR   D T   3       2.972   9.873   3.469  1.00 18.61    -0.244 NA
HETATM   26  CBA   D T   3       4.137  10.526   3.343  1.00 14.95     0.081 A 
HETATM   27  CAI   D T   3       5.201  10.216   4.186  1.00 16.02     0.019 A 
HETATM   28  CBB   D T   3       4.289  11.558   2.389  1.00 17.98     0.018 A 
HETATM   29  CAA   D T   3       6.404  10.894   4.121  1.00 23.51     0.002 A 
HETATM   30  CAB   D T   3       6.574  11.906   3.183  1.00 19.31     0.000 A 
HETATM   31  CAJ   D T   3       5.516  12.204   2.325  1.00 21.46     0.002 A 
ENDBRANCH   7  22
TORSDOF 3
ENDMDL
MODEL 8
REMARK VINA RESULT:    -9.231      2.468      4.175
REMARK INTER + INTRA:         -11.539
REMARK INTER:                 -10.800
REMARK INTRA:                  -0.738
REMARK UNBOUND:                -0.688
REMARK  3 active torsions:
REMARK  status: ('A' for Active; 'I' for Inactive)
REMARK    1  A    between atoms: CAV_22  and  CAW_23 
REMARK    2  A    between atoms: CAX_24  and  NBD_30 
REMARK    3  A    between atoms: CAY_25  and  CAZ_26 
ROOT
HETATM    1  CAK   D T   3       8.131  10.396   4.588  1.00 20.96     0.102 A 
HETATM    2  CAL   D T   3      12.231  11.891   3.953  1.00 13.59     0.124 A 
HETATM    3  CAM   D T   3       8.877  12.111   3.085  1.00 18.11     0.104 A 
HETATM    4  NAS   D T   3       9.397  10.202   5.070  1.00 13.25    -0.225 NA
HETATM    5  NAT   D T   3      11.229  12.446   3.229  1.00 15.72    -0.162 NA
HETATM    6  CAW   D T   3       7.840  11.376   3.632  1.00 22.75     0.038 A 
HETATM    7  CAZ   D T   3      11.782  10.946   4.759  1.00 12.88     0.057 A 
HETATM    8  CBC   D T   3      10.417  10.917   4.536  1.00 11.55     0.165 A 
HETATM    9  NBE   D T   3      10.158  11.901   3.536  1.00 16.74    -0.211 N 
ENDROOT
BRANCH   6  10
HETATM   10  CAV   D T   3       6.547  11.573   3.107  1.00 21.40     0.003 A 
HETATM   11  CAE   D T   3       6.382  12.377   1.992  1.00 24.66     0.002 A 
HETATM   12  CAG   D T   3       5.124  12.621   1.443  1.00 27.57     0.017 A 
HETATM   13  CAX   D T   3       3.994  12.111   2.058  1.00 20.12     0.056 A 
HETATM   14  CAH   D T   3       4.139  11.347   3.197  1.00 21.49     0.017 A 
HETATM   15  CAF   D T   3       5.405  11.056   3.738  1.00 24.93     0.002 A 
BRANCH  13  16
HETATM   16  NBD   D T   3       2.727  12.457   1.489  1.00 29.07    -0.344 N 
HETATM   17  CAP   D T   3       1.515  12.454   2.316  1.00 43.49     0.140 C 
HETATM   18  CAN   D T   3       0.790  13.756   2.008  1.00 58.34     0.314 C 
HETATM   19  NAU   D T   3       0.228  13.727   0.639  1.00 37.54     0.343 N 
HETATM   20  CAO   D T   3       1.208  13.268  -0.376  1.00 35.80     0.314 C 
HETATM   21  CAQ   D T   3       2.650  13.123   0.181  1.00 24.02     0.140 C 
ENDBRANCH  13  16
ENDBRANCH   6  10
BRANCH   7  22
HETATM   22  CAY   D T   3      12.562  10.140   5.690  1.00 18.73     0.007 A 
HETATM   23  CAD   D T   3      12.740  10.615   6.977  1.00 18.59     0.021 A 
HETATM   24  CAC   D T   3      13.472   9.889   7.938  1.00 18.90     0.099 A 
HETATM   25  NAR   D T   3      14.089   8.752   7.606  1.00 18.61    -0.244 NA
HETATM   26  CBA   D T   3      13.981   8.249   6.367  1.00 14.95     0.081 A 
HETATM   27  CAI   D T   3      14.631   7.061   6.040  1.00 16.02     0.019 A 
HETATM   28  CBB   D T   3      13.247   8.932   5.369  1.00 17.98     0.018 A 
HETATM   29  CAA   D T   3      14.584   6.530   4.765  1.00 23.51     0.002 A 
HETATM   30  CAB   D T   3      13.860   7.184   3.774  1.00 19.31     0.000 A 
HETATM   31  CAJ   D T   3      13.192   8.363   4.104  1.00 21.46     0.002 A 
ENDBRANCH   7  22
TORSDOF 3
ENDMDL
MODEL 9
REMARK VINA RESULT:    -9.157      3.541     10.516
REMARK INTER + INTRA:         -11.451
REMARK INTER:                 -10.732
REMARK INTRA:                  -0.719
REMARK UNBOUND:                -0.688
REMARK  3 active torsions:
REMARK  status: ('A' for Active; 'I' for Inactive)
REMARK    1  A    between atoms: CAV_22  and  CAW_23 
REMARK    2  A    between atoms: CAX_24  and  NBD_30 
REMARK    3  A    between atoms: CAY_25  and  CAZ_26 
ROOT
HETATM    1  CAK   D T   3       6.801  14.283   0.876  1.00 20.96     0.102 A 
HETATM    2  CAL   D T   3       2.963  13.638  -1.198  1.00 13.59     0.124 A 
HETATM    3  CAM   D T   3       5.295  12.426   1.069  1.00 18.11     0.104 A 
HETATM    4  NAS   D T   3       5.977  14.921  -0.012  1.00 13.25    -0.225 NA
HETATM    5  NAT   D T   3       3.385  12.692  -0.325  1.00 15.72    -0.162 NA
HETATM    6  CAW   D T   3       6.459  13.061   1.465  1.00 22.75     0.038 A 
HETATM    7  CAZ   D T   3       3.823  14.637  -1.285  1.00 12.88     0.057 A 
HETATM    8  CBC   D T   3       4.836  14.302  -0.404  1.00 11.55     0.165 A 
HETATM    9  NBE   D T   3       4.475  13.040   0.153  1.00 16.74    -0.211 N 
ENDROOT
BRANCH   6  10
HETATM   10  CAV   D T   3       7.307  12.380   2.362  1.00 21.40     0.003 A 
HETATM   11  CAE   D T   3       8.668  12.636   2.336  1.00 24.66     0.002 A 
HETATM   12  CAG   D T   3       9.554  11.977   3.187  1.00 27.57     0.017 A 
HETATM   13  CAX   D T   3       9.087  10.989   4.035  1.00 20.12     0.056 A 
HETATM   14  CAH   D T   3       7.741  10.691   4.039  1.00 21.49     0.017 A 
HETATM   15  CAF   D T   3       6.828  11.377   3.217  1.00 24.93     0.002 A 
BRANCH  13  16
HETATM   16  NBD   D T   3      10.057  10.298   4.831  1.00 29.07    -0.344 N 
HETATM   17  CAP   D T   3      11.482  10.370   4.494  1.00 43.49     0.140 C 
HETATM   18  CAN   D T   3      12.211  10.659   5.798  1.00 58.34     0.314 C 
HETATM   19  NAU   D T   3      12.166   9.480   6.691  1.00 37.54     0.343 N 
HETATM   20  CAO   D T   3      10.804   8.904   6.816  1.00 35.80     0.314 C 
HETATM   21  CAQ   D T   3       9.703   9.780   6.160  1.00 24.02     0.140 C 
ENDBRANCH  13  16
ENDBRANCH   6  10
BRANCH   7  22
HETATM   22  CAY   D T   3       3.702  15.832  -2.110  1.00 18.73     0.007 A 
HETATM   23  CAD   D T   3       2.698  16.736  -1.812  1.00 18.59     0.021 A 
HETATM   24  CAC   D T   3       2.524  17.920  -2.556  1.00 18.90     0.099 A 
HETATM   25  NAR   D T   3       3.279  18.164  -3.631  1.00 18.61    -0.244 NA
HETATM   26  CBA   D T   3       4.253  17.315  -3.993  1.00 14.95     0.081 A 
HETATM   27  CAI   D T   3       5.030  17.589  -5.116  1.00 16.02     0.019 A 
HETATM   28  CBB   D T   3       4.478  16.120  -3.272  1.00 17.98     0.018 A 
HETATM   29  CAA   D T   3       6.014  16.721  -5.551  1.00 23.51     0.002 A 
HETATM   30  CAB   D T   3       6.254  15.545  -4.849  1.00 19.31     0.000 A 
HETATM   31  CAJ   D T   3       5.490  15.279  -3.713  1.00 21.46     0.002 A 
ENDBRANCH   7  22
TORSDOF 3
ENDMDL
