MODEL 1
REMARK VINA RESULT:   -10.816      0.000      0.000
REMARK INTER + INTRA:         -13.388
REMARK INTER:                 -12.713
REMARK INTRA:                  -0.675
REMARK UNBOUND:                -0.675
REMARK  3 active torsions:
REMARK  status: ('A' for Active; 'I' for Inactive)
REMARK    1  A    between atoms: CAV_22  and  CAW_23 
REMARK    2  A    between atoms: CAX_24  and  NBD_30 
REMARK    3  A    between atoms: CAY_25  and  CAZ_26 
ROOT
HETATM    1  CAK   D T   3      20.510 -22.453   7.710  1.00 20.96     0.102 A 
HETATM    2  CAL   D T   3      22.441 -19.985   4.608  1.00 13.59     0.124 A 
HETATM    3  CAM   D T   3      20.576 -22.819   5.340  1.00 18.11     0.104 A 
HETATM    4  NAS   D T   3      21.214 -21.285   7.597  1.00 13.25    -0.225 NA
HETATM    5  NAT   D T   3      21.784 -21.104   4.218  1.00 15.72    -0.162 NA
HETATM    6  CAW   D T   3      20.137 -23.210   6.593  1.00 22.75     0.038 A 
HETATM    7  CAZ   D T   3      22.391 -19.825   5.918  1.00 12.88     0.057 A 
HETATM    8  CBC   D T   3      21.647 -20.899   6.373  1.00 11.55     0.165 A 
HETATM    9  NBE   D T   3      21.314 -21.667   5.218  1.00 16.74    -0.211 N 
ENDROOT
BRANCH   6  10
HETATM   10  CAV   D T   3      19.433 -24.427   6.694  1.00 21.40     0.003 A 
HETATM   11  CAE   D T   3      19.033 -25.078   5.539  1.00 24.66     0.002 A 
HETATM   12  CAG   D T   3      18.318 -26.274   5.583  1.00 27.57     0.017 A 
HETATM   13  CAX   D T   3      17.930 -26.800   6.800  1.00 20.12     0.056 A 
HETATM   14  CAH   D T   3      18.281 -26.138   7.958  1.00 21.49     0.017 A 
HETATM   15  CAF   D T   3      19.039 -24.953   7.933  1.00 24.93     0.002 A 
BRANCH  13  16
HETATM   16  NBD   D T   3      17.135 -27.991   6.776  1.00 29.07    -0.344 N 
HETATM   17  CAP   D T   3      16.792 -28.682   8.024  1.00 43.49     0.140 C 
HETATM   18  CAN   D T   3      15.303 -28.983   7.944  1.00 58.34     0.314 C 
HETATM   19  NAU   D T   3      15.037 -30.029   6.931  1.00 37.54     0.343 N 
HETATM   20  CAO   D T   3      15.721 -29.768   5.641  1.00 35.80     0.314 C 
HETATM   21  CAQ   D T   3      16.385 -28.365   5.568  1.00 24.02     0.140 C 
ENDBRANCH  13  16
ENDBRANCH   6  10
BRANCH   7  22
HETATM   22  CAY   D T   3      22.972 -18.737   6.694  1.00 18.73     0.007 A 
HETATM   23  CAD   D T   3      22.540 -17.447   6.440  1.00 18.59     0.021 A 
HETATM   24  CAC   D T   3      23.046 -16.342   7.154  1.00 18.90     0.099 A 
HETATM   25  NAR   D T   3      24.025 -16.504   8.049  1.00 18.61    -0.244 NA
HETATM   26  CBA   D T   3      24.510 -17.724   8.325  1.00 14.95     0.081 A 
HETATM   27  CAI   D T   3      25.530 -17.870   9.261  1.00 16.02     0.019 A 
HETATM   28  CBB   D T   3      24.027 -18.866   7.645  1.00 17.98     0.018 A 
HETATM   29  CAA   D T   3      26.090 -19.103   9.544  1.00 23.51     0.002 A 
HETATM   30  CAB   D T   3      25.620 -20.237   8.891  1.00 19.31     0.000 A 
HETATM   31  CAJ   D T   3      24.586 -20.095   7.966  1.00 21.46     0.002 A 
ENDBRANCH   7  22
TORSDOF 3
ENDMDL
MODEL 2
REMARK VINA RESULT:   -10.717      1.404      2.445
REMARK INTER + INTRA:         -13.271
REMARK INTER:                 -12.793
REMARK INTRA:                  -0.477
REMARK UNBOUND:                -0.675
REMARK  3 active torsions:
REMARK  status: ('A' for Active; 'I' for Inactive)
REMARK    1  A    between atoms: CAV_22  and  CAW_23 
REMARK    2  A    between atoms: CAX_24  and  NBD_30 
REMARK    3  A    between atoms: CAY_25  and  CAZ_26 
ROOT
HETATM    1  CAK   D T   3      19.834 -23.813   7.954  1.00 20.96     0.102 A 
HETATM    2  CAL   D T   3      22.371 -21.668   5.054  1.00 13.59     0.124 A 
HETATM    3  CAM   D T   3      19.888 -24.039   5.566  1.00 18.11     0.104 A 
HETATM    4  NAS   D T   3      20.789 -22.833   7.930  1.00 13.25    -0.225 NA
HETATM    5  NAT   D T   3      21.488 -22.580   4.580  1.00 15.72    -0.162 NA
HETATM    6  CAW   D T   3      19.334 -24.394   6.783  1.00 22.75     0.038 A 
HETATM    7  CAZ   D T   3      22.318 -21.581   6.371  1.00 12.88     0.057 A 
HETATM    8  CBC   D T   3      21.336 -22.482   6.741  1.00 11.55     0.165 A 
HETATM    9  NBE   D T   3      20.872 -23.081   5.533  1.00 16.74    -0.211 N 
ENDROOT
BRANCH   6  10
HETATM   10  CAV   D T   3      18.368 -25.421   6.792  1.00 21.40     0.003 A 
HETATM   11  CAE   D T   3      18.103 -26.114   5.622  1.00 24.66     0.002 A 
HETATM   12  CAG   D T   3      17.145 -27.125   5.572  1.00 27.57     0.017 A 
HETATM   13  CAX   D T   3      16.383 -27.409   6.689  1.00 20.12     0.056 A 
HETATM   14  CAH   D T   3      16.603 -26.695   7.848  1.00 21.49     0.017 A 
HETATM   15  CAF   D T   3      17.595 -25.701   7.929  1.00 24.93     0.002 A 
BRANCH  13  16
HETATM   16  NBD   D T   3      15.365 -28.408   6.552  1.00 29.07    -0.344 N 
HETATM   17  CAP   D T   3      14.442 -28.684   7.657  1.00 43.49     0.140 C 
HETATM   18  CAN   D T   3      13.050 -28.729   7.043  1.00 58.34     0.314 C 
HETATM   19  NAU   D T   3      12.892 -29.936   6.201  1.00 37.54     0.343 N 
HETATM   20  CAO   D T   3      14.026 -30.139   5.266  1.00 35.80     0.314 C 
HETATM   21  CAQ   D T   3      15.014 -28.941   5.228  1.00 24.02     0.140 C 
ENDBRANCH  13  16
ENDBRANCH   6  10
BRANCH   7  22
HETATM   22  CAY   D T   3      23.108 -20.704   7.226  1.00 18.73     0.007 A 
HETATM   23  CAD   D T   3      23.861 -21.277   8.237  1.00 18.59     0.021 A 
HETATM   24  CAC   D T   3      24.658 -20.498   9.098  1.00 18.90     0.099 A 
HETATM   25  NAR   D T   3      24.645 -19.164   9.015  1.00 18.61    -0.244 NA
HETATM   26  CBA   D T   3      23.916 -18.542   8.077  1.00 14.95     0.081 A 
HETATM   27  CAI   D T   3      23.917 -17.151   8.006  1.00 16.02     0.019 A 
HETATM   28  CBB   D T   3      23.109 -19.279   7.179  1.00 17.98     0.018 A 
HETATM   29  CAA   D T   3      23.145 -16.467   7.084  1.00 23.51     0.002 A 
HETATM   30  CAB   D T   3      22.353 -17.176   6.188  1.00 19.31     0.000 A 
HETATM   31  CAJ   D T   3      22.365 -18.570   6.245  1.00 21.46     0.002 A 
ENDBRANCH   7  22
TORSDOF 3
ENDMDL
MODEL 3
REMARK VINA RESULT:    -9.411      1.991     10.585
REMARK INTER + INTRA:         -11.736
REMARK INTER:                 -11.021
REMARK INTRA:                  -0.715
REMARK UNBOUND:                -0.675
REMARK  3 active torsions:
REMARK  status: ('A' for Active; 'I' for Inactive)
REMARK    1  A    between atoms: CAV_22  and  CAW_23 
REMARK    2  A    between atoms: CAX_24  and  NBD_30 
REMARK    3  A    between atoms: CAY_25  and  CAZ_26 
ROOT
HETATM    1  CAK   D T   3      19.999 -23.763   8.667  1.00 20.96     0.102 A 
HETATM    2  CAL   D T   3      18.105 -26.280   5.581  1.00 13.59     0.124 A 
HETATM    3  CAM   D T   3      20.124 -23.545   6.282  1.00 18.11     0.104 A 
HETATM    4  NAS   D T   3      19.217 -24.883   8.571  1.00 13.25    -0.225 NA
HETATM    5  NAT   D T   3      18.871 -25.238   5.175  1.00 15.72    -0.162 NA
HETATM    6  CAW   D T   3      20.504 -23.108   7.539  1.00 22.75     0.038 A 
HETATM    7  CAZ   D T   3      18.053 -26.359   6.898  1.00 12.88     0.057 A 
HETATM    8  CBC   D T   3      18.842 -25.314   7.343  1.00 11.55     0.165 A 
HETATM    9  NBE   D T   3      19.312 -24.647   6.173  1.00 16.74    -0.211 N 
ENDROOT
BRANCH   6  10
HETATM   10  CAV   D T   3      21.289 -21.940   7.620  1.00 21.40     0.003 A 
HETATM   11  CAE   D T   3      21.327 -21.071   6.543  1.00 24.66     0.002 A 
HETATM   12  CAG   D T   3      22.102 -19.912   6.564  1.00 27.57     0.017 A 
HETATM   13  CAX   D T   3      22.912 -19.645   7.651  1.00 20.12     0.056 A 
HETATM   14  CAH   D T   3      22.920 -20.526   8.713  1.00 21.49     0.017 A 
HETATM   15  CAF   D T   3      22.112 -21.677   8.726  1.00 24.93     0.002 A 
BRANCH  13  16
HETATM   16  NBD   D T   3      23.740 -18.477   7.581  1.00 29.07    -0.344 N 
HETATM   17  CAP   D T   3      23.337 -17.329   6.763  1.00 43.49     0.140 C 
HETATM   18  CAN   D T   3      23.540 -16.098   7.633  1.00 58.34     0.314 C 
HETATM   19  NAU   D T   3      24.983 -15.839   7.838  1.00 37.54     0.343 N 
HETATM   20  CAO   D T   3      25.736 -17.053   8.237  1.00 35.80     0.314 C 
HETATM   21  CAQ   D T   3      24.821 -18.268   8.554  1.00 24.02     0.140 C 
ENDBRANCH  13  16
ENDBRANCH   6  10
BRANCH   7  22
HETATM   22  CAY   D T   3      17.339 -27.352   7.691  1.00 18.73     0.007 A 
HETATM   23  CAD   D T   3      17.782 -28.663   7.654  1.00 18.59     0.021 A 
HETATM   24  CAC   D T   3      17.152 -29.679   8.400  1.00 18.90     0.099 A 
HETATM   25  NAR   D T   3      16.048 -29.416   9.107  1.00 18.61    -0.244 NA
HETATM   26  CBA   D T   3      15.549 -28.173   9.165  1.00 14.95     0.081 A 
HETATM   27  CAI   D T   3      14.399 -27.921   9.909  1.00 16.02     0.019 A 
HETATM   28  CBB   D T   3      16.152 -27.116   8.445  1.00 17.98     0.018 A 
HETATM   29  CAA   D T   3      13.825 -26.663   9.960  1.00 23.51     0.002 A 
HETATM   30  CAB   D T   3      14.410 -25.611   9.265  1.00 19.31     0.000 A 
HETATM   31  CAJ   D T   3      15.572 -25.857   8.535  1.00 21.46     0.002 A 
ENDBRANCH   7  22
TORSDOF 3
ENDMDL
MODEL 4
REMARK VINA RESULT:    -9.363      2.051     10.444
REMARK INTER + INTRA:         -11.680
REMARK INTER:                 -10.928
REMARK INTRA:                  -0.752
REMARK UNBOUND:                -0.675
REMARK  3 active torsions:
REMARK  status: ('A' for Active; 'I' for Inactive)
REMARK    1  A    between atoms: CAV_22  and  CAW_23 
REMARK    2  A    between atoms: CAX_24  and  NBD_30 
REMARK    3  A    between atoms: CAY_25  and  CAZ_26 
ROOT
HETATM    1  CAK   D T   3      20.092 -23.632   8.593  1.00 20.96     0.102 A 
HETATM    2  CAL   D T   3      17.869 -26.336   5.911  1.00 13.59     0.124 A 
HETATM    3  CAM   D T   3      20.010 -23.619   6.196  1.00 18.11     0.104 A 
HETATM    4  NAS   D T   3      19.277 -24.731   8.662  1.00 13.25    -0.225 NA
HETATM    5  NAT   D T   3      18.621 -25.357   5.352  1.00 15.72    -0.162 NA
HETATM    6  CAW   D T   3      20.511 -23.091   7.373  1.00 22.75     0.038 A 
HETATM    7  CAZ   D T   3      17.932 -26.303   7.230  1.00 12.88     0.057 A 
HETATM    8  CBC   D T   3      18.784 -25.251   7.512  1.00 11.55     0.165 A 
HETATM    9  NBE   D T   3      19.164 -24.699   6.253  1.00 16.74    -0.211 N 
ENDROOT
BRANCH   6  10
HETATM   10  CAV   D T   3      21.329 -21.946   7.285  1.00 21.40     0.003 A 
HETATM   11  CAE   D T   3      22.218 -21.666   8.309  1.00 24.66     0.002 A 
HETATM   12  CAG   D T   3      23.035 -20.537   8.280  1.00 27.57     0.017 A 
HETATM   13  CAX   D T   3      22.919 -19.628   7.246  1.00 20.12     0.056 A 
HETATM   14  CAH   D T   3      22.005 -19.870   6.242  1.00 21.49     0.017 A 
HETATM   15  CAF   D T   3      21.202 -21.025   6.233  1.00 24.93     0.002 A 
BRANCH  13  16
HETATM   16  NBD   D T   3      23.735 -18.452   7.311  1.00 29.07    -0.344 N 
HETATM   17  CAP   D T   3      23.300 -17.209   6.666  1.00 43.49     0.140 C 
HETATM   18  CAN   D T   3      23.518 -16.104   7.689  1.00 58.34     0.314 C 
HETATM   19  NAU   D T   3      24.965 -15.858   7.888  1.00 37.54     0.343 N 
HETATM   20  CAO   D T   3      25.738 -17.106   8.099  1.00 35.80     0.314 C 
HETATM   21  CAQ   D T   3      24.842 -18.363   8.274  1.00 24.02     0.140 C 
ENDBRANCH  13  16
ENDBRANCH   6  10
BRANCH   7  22
HETATM   22  CAY   D T   3      17.267 -27.203   8.164  1.00 18.73     0.007 A 
HETATM   23  CAD   D T   3      15.999 -26.870   8.605  1.00 18.59     0.021 A 
HETATM   24  CAC   D T   3      15.286 -27.693   9.500  1.00 18.90     0.099 A 
HETATM   25  NAR   D T   3      15.855 -28.786  10.016  1.00 18.61    -0.244 NA
HETATM   26  CBA   D T   3      17.093 -29.153   9.653  1.00 14.95     0.081 A 
HETATM   27  CAI   D T   3      17.667 -30.297  10.201  1.00 16.02     0.019 A 
HETATM   28  CBB   D T   3      17.845 -28.369   8.748  1.00 17.98     0.018 A 
HETATM   29  CAA   D T   3      18.957 -30.688   9.889  1.00 23.51     0.002 A 
HETATM   30  CAB   D T   3      19.707 -29.933   8.994  1.00 19.31     0.000 A 
HETATM   31  CAJ   D T   3      19.127 -28.797   8.430  1.00 21.46     0.002 A 
ENDBRANCH   7  22
TORSDOF 3
ENDMDL
MODEL 5
REMARK VINA RESULT:    -9.269      1.920     10.964
REMARK INTER + INTRA:         -11.569
REMARK INTER:                 -10.881
REMARK INTRA:                  -0.687
REMARK UNBOUND:                -0.675
REMARK  3 active torsions:
REMARK  status: ('A' for Active; 'I' for Inactive)
REMARK    1  A    between atoms: CAV_22  and  CAW_23 
REMARK    2  A    between atoms: CAX_24  and  NBD_30 
REMARK    3  A    between atoms: CAY_25  and  CAZ_26 
ROOT
HETATM    1  CAK   D T   3      18.993 -25.531   8.359  1.00 20.96     0.102 A 
HETATM    2  CAL   D T   3      16.585 -28.042   5.649  1.00 13.59     0.124 A 
HETATM    3  CAM   D T   3      18.627 -25.258   6.004  1.00 18.11     0.104 A 
HETATM    4  NAS   D T   3      18.239 -26.673   8.392  1.00 13.25    -0.225 NA
HETATM    5  NAT   D T   3      17.224 -26.967   5.127  1.00 15.72    -0.162 NA
HETATM    6  CAW   D T   3      19.241 -24.835   7.170  1.00 22.75     0.038 A 
HETATM    7  CAZ   D T   3      16.802 -28.151   6.948  1.00 12.88     0.057 A 
HETATM    8  CBC   D T   3      17.636 -27.090   7.252  1.00 11.55     0.165 A 
HETATM    9  NBE   D T   3      17.841 -26.384   6.031  1.00 16.74    -0.211 N 
ENDROOT
BRANCH   6  10
HETATM   10  CAV   D T   3      19.993 -23.644   7.124  1.00 21.40     0.003 A 
HETATM   11  CAE   D T   3      20.489 -23.201   5.909  1.00 24.66     0.002 A 
HETATM   12  CAG   D T   3      21.255 -22.041   5.811  1.00 27.57     0.017 A 
HETATM   13  CAX   D T   3      21.596 -21.341   6.953  1.00 20.12     0.056 A 
HETATM   14  CAH   D T   3      21.148 -21.797   8.175  1.00 21.49     0.017 A 
HETATM   15  CAF   D T   3      20.339 -22.942   8.288  1.00 24.93     0.002 A 
BRANCH  13  16
HETATM   16  NBD   D T   3      22.446 -20.199   6.793  1.00 29.07    -0.344 N 
HETATM   17  CAP   D T   3      22.330 -19.347   5.604  1.00 43.49     0.140 C 
HETATM   18  CAN   D T   3      22.316 -17.913   6.112  1.00 58.34     0.314 C 
HETATM   19  NAU   D T   3      23.648 -17.533   6.634  1.00 37.54     0.343 N 
HETATM   20  CAO   D T   3      24.216 -18.547   7.555  1.00 35.80     0.314 C 
HETATM   21  CAQ   D T   3      23.211 -19.671   7.931  1.00 24.02     0.140 C 
ENDBRANCH  13  16
ENDBRANCH   6  10
BRANCH   7  22
HETATM   22  CAY   D T   3      16.291 -29.183   7.840  1.00 18.73     0.007 A 
HETATM   23  CAD   D T   3      15.252 -28.857   8.694  1.00 18.59     0.021 A 
HETATM   24  CAC   D T   3      14.696 -29.802   9.579  1.00 18.90     0.099 A 
HETATM   25  NAR   D T   3      15.218 -31.029   9.677  1.00 18.61    -0.244 NA
HETATM   26  CBA   D T   3      16.244 -31.403   8.900  1.00 14.95     0.081 A 
HETATM   27  CAI   D T   3      16.772 -32.686   9.017  1.00 16.02     0.019 A 
HETATM   28  CBB   D T   3      16.829 -30.496   7.986  1.00 17.98     0.018 A 
HETATM   29  CAA   D T   3      17.858 -33.100   8.267  1.00 23.51     0.002 A 
HETATM   30  CAB   D T   3      18.440 -32.224   7.357  1.00 19.31     0.000 A 
HETATM   31  CAJ   D T   3      17.901 -30.945   7.225  1.00 21.46     0.002 A 
ENDBRANCH   7  22
TORSDOF 3
ENDMDL
MODEL 6
REMARK VINA RESULT:    -9.162      1.609      2.763
REMARK INTER + INTRA:         -11.444
REMARK INTER:                 -11.206
REMARK INTRA:                  -0.238
REMARK UNBOUND:                -0.675
REMARK  3 active torsions:
REMARK  status: ('A' for Active; 'I' for Inactive)
REMARK    1  A    between atoms: CAV_22  and  CAW_23 
REMARK    2  A    between atoms: CAX_24  and  NBD_30 
REMARK    3  A    between atoms: CAY_25  and  CAZ_26 
ROOT
HETATM    1  CAK   D T   3      20.964 -23.545   9.287  1.00 20.96     0.102 A 
HETATM    2  CAL   D T   3      22.333 -20.933   6.009  1.00 13.59     0.124 A 
HETATM    3  CAM   D T   3      20.144 -23.422   7.036  1.00 18.11     0.104 A 
HETATM    4  NAS   D T   3      21.871 -22.545   9.062  1.00 13.25    -0.225 NA
HETATM    5  NAT   D T   3      21.316 -21.792   5.760  1.00 15.72    -0.162 NA
HETATM    6  CAW   D T   3      20.059 -23.965   8.306  1.00 22.75     0.038 A 
HETATM    7  CAZ   D T   3      22.763 -21.038   7.254  1.00 12.88     0.057 A 
HETATM    8  CBC   D T   3      21.959 -22.011   7.819  1.00 11.55     0.165 A 
HETATM    9  NBE   D T   3      21.074 -22.442   6.788  1.00 16.74    -0.211 N 
ENDROOT
BRANCH   6  10
HETATM   10  CAV   D T   3      19.136 -25.010   8.514  1.00 21.40     0.003 A 
HETATM   11  CAE   D T   3      19.224 -25.775   9.665  1.00 24.66     0.002 A 
HETATM   12  CAG   D T   3      18.349 -26.832   9.911  1.00 27.57     0.017 A 
HETATM   13  CAX   D T   3      17.409 -27.183   8.960  1.00 20.12     0.056 A 
HETATM   14  CAH   D T   3      17.339 -26.459   7.788  1.00 21.49     0.017 A 
HETATM   15  CAF   D T   3      18.187 -25.364   7.543  1.00 24.93     0.002 A 
BRANCH  13  16
HETATM   16  NBD   D T   3      16.588 -28.323   9.240  1.00 29.07    -0.344 N 
HETATM   17  CAP   D T   3      16.058 -28.545  10.590  1.00 43.49     0.140 C 
HETATM   18  CAN   D T   3      14.585 -28.881  10.415  1.00 58.34     0.314 C 
HETATM   19  NAU   D T   3      14.427 -30.218   9.800  1.00 37.54     0.343 N 
HETATM   20  CAO   D T   3      15.287 -30.409   8.606  1.00 35.80     0.314 C 
HETATM   21  CAQ   D T   3      15.998 -29.106   8.145  1.00 24.02     0.140 C 
ENDBRANCH  13  16
ENDBRANCH   6  10
BRANCH   7  22
HETATM   22  CAY   D T   3      23.831 -20.272   7.883  1.00 18.73     0.007 A 
HETATM   23  CAD   D T   3      24.748 -20.947   8.669  1.00 18.59     0.021 A 
HETATM   24  CAC   D T   3      25.815 -20.279   9.302  1.00 18.90     0.099 A 
HETATM   25  NAR   D T   3      25.924 -18.949   9.226  1.00 18.61    -0.244 NA
HETATM   26  CBA   D T   3      25.053 -18.229   8.503  1.00 14.95     0.081 A 
HETATM   27  CAI   D T   3      25.185 -16.844   8.436  1.00 16.02     0.019 A 
HETATM   28  CBB   D T   3      23.972 -18.853   7.838  1.00 17.98     0.018 A 
HETATM   29  CAA   D T   3      24.284 -16.059   7.740  1.00 23.51     0.002 A 
HETATM   30  CAB   D T   3      23.221 -16.657   7.073  1.00 19.31     0.000 A 
HETATM   31  CAJ   D T   3      23.098 -18.045   7.124  1.00 21.46     0.002 A 
ENDBRANCH   7  22
TORSDOF 3
ENDMDL
MODEL 7
REMARK VINA RESULT:    -9.088      1.508      2.463
REMARK INTER + INTRA:         -11.357
REMARK INTER:                 -11.329
REMARK INTRA:                  -0.028
REMARK UNBOUND:                -0.675
REMARK  3 active torsions:
REMARK  status: ('A' for Active; 'I' for Inactive)
REMARK    1  A    between atoms: CAV_22  and  CAW_23 
REMARK    2  A    between atoms: CAX_24  and  NBD_30 
REMARK    3  A    between atoms: CAY_25  and  CAZ_26 
ROOT
HETATM    1  CAK   D T   3      19.803 -23.658   5.988  1.00 20.96     0.102 A 
HETATM    2  CAL   D T   3      21.655 -21.749   9.506  1.00 13.59     0.124 A 
HETATM    3  CAM   D T   3      19.695 -24.341   8.285  1.00 18.11     0.104 A 
HETATM    4  NAS   D T   3      20.615 -22.598   6.292  1.00 13.25    -0.225 NA
HETATM    5  NAT   D T   3      20.923 -22.873   9.699  1.00 15.72    -0.162 NA
HETATM    6  CAW   D T   3      19.372 -24.569   6.959  1.00 22.75     0.038 A 
HETATM    7  CAZ   D T   3      21.681 -21.400   8.232  1.00 12.88     0.057 A 
HETATM    8  CBC   D T   3      20.933 -22.371   7.589  1.00 11.55     0.165 A 
HETATM    9  NBE   D T   3      20.481 -23.261   8.607  1.00 16.74    -0.211 N 
ENDROOT
BRANCH   6  10
HETATM   10  CAV   D T   3      18.516 -25.650   6.667  1.00 21.40     0.003 A 
HETATM   11  CAE   D T   3      18.250 -25.968   5.346  1.00 24.66     0.002 A 
HETATM   12  CAG   D T   3      17.396 -27.015   5.003  1.00 27.57     0.017 A 
HETATM   13  CAX   D T   3      16.735 -27.718   5.992  1.00 20.12     0.056 A 
HETATM   14  CAH   D T   3      16.954 -27.382   7.312  1.00 21.49     0.017 A 
HETATM   15  CAF   D T   3      17.845 -26.356   7.677  1.00 24.93     0.002 A 
BRANCH  13  16
HETATM   16  NBD   D T   3      15.815 -28.733   5.573  1.00 29.07    -0.344 N 
HETATM   17  CAP   D T   3      14.979 -29.430   6.555  1.00 43.49     0.140 C 
HETATM   18  CAN   D T   3      13.570 -29.438   5.981  1.00 58.34     0.314 C 
HETATM   19  NAU   D T   3      13.490 -30.342   4.812  1.00 37.54     0.343 N 
HETATM   20  CAO   D T   3      14.590 -30.128   3.841  1.00 35.80     0.314 C 
HETATM   21  CAQ   D T   3      15.453 -28.874   4.155  1.00 24.02     0.140 C 
ENDBRANCH  13  16
ENDBRANCH   6  10
BRANCH   7  22
HETATM   22  CAY   D T   3      22.373 -20.259   7.647  1.00 18.73     0.007 A 
HETATM   23  CAD   D T   3      21.813 -19.651   6.537  1.00 18.59     0.021 A 
HETATM   24  CAC   D T   3      22.416 -18.536   5.921  1.00 18.90     0.099 A 
HETATM   25  NAR   D T   3      23.598 -18.082   6.347  1.00 18.61    -0.244 NA
HETATM   26  CBA   D T   3      24.210 -18.642   7.401  1.00 14.95     0.081 A 
HETATM   27  CAI   D T   3      25.441 -18.152   7.829  1.00 16.02     0.019 A 
HETATM   28  CBB   D T   3      23.641 -19.755   8.062  1.00 17.98     0.018 A 
HETATM   29  CAA   D T   3      26.128 -18.728   8.883  1.00 23.51     0.002 A 
HETATM   30  CAB   D T   3      25.578 -19.816   9.551  1.00 19.31     0.000 A 
HETATM   31  CAJ   D T   3      24.337 -20.296   9.135  1.00 21.46     0.002 A 
ENDBRANCH   7  22
TORSDOF 3
ENDMDL
MODEL 8
REMARK VINA RESULT:    -8.911      4.773     10.792
REMARK INTER + INTRA:         -11.148
REMARK INTER:                 -11.157
REMARK INTRA:                   0.009
REMARK UNBOUND:                -0.675
REMARK  3 active torsions:
REMARK  status: ('A' for Active; 'I' for Inactive)
REMARK    1  A    between atoms: CAV_22  and  CAW_23 
REMARK    2  A    between atoms: CAX_24  and  NBD_30 
REMARK    3  A    between atoms: CAY_25  and  CAZ_26 
ROOT
HETATM    1  CAK   D T   3      24.655 -19.448  10.064  1.00 20.96     0.102 A 
HETATM    2  CAL   D T   3      21.547 -22.257   8.685  1.00 13.59     0.124 A 
HETATM    3  CAM   D T   3      23.323 -20.958  11.369  1.00 18.11     0.104 A 
HETATM    4  NAS   D T   3      24.029 -19.823   8.905  1.00 13.25    -0.225 NA
HETATM    5  NAT   D T   3      21.816 -22.202  10.012  1.00 15.72    -0.162 NA
HETATM    6  CAW   D T   3      24.285 -19.965  11.311  1.00 22.75     0.038 A 
HETATM    7  CAZ   D T   3      22.307 -21.420   8.001  1.00 12.88     0.057 A 
HETATM    8  CBC   D T   3      23.087 -20.796   8.957  1.00 11.55     0.165 A 
HETATM    9  NBE   D T   3      22.713 -21.368  10.209  1.00 16.74    -0.211 N 
ENDROOT
BRANCH   6  10
HETATM   10  CAV   D T   3      24.935 -19.608  12.509  1.00 21.40     0.003 A 
HETATM   11  CAE   D T   3      24.493 -18.505  13.220  1.00 24.66     0.002 A 
HETATM   12  CAG   D T   3      25.112 -18.098  14.401  1.00 27.57     0.017 A 
HETATM   13  CAX   D T   3      26.241 -18.758  14.850  1.00 20.12     0.056 A 
HETATM   14  CAH   D T   3      26.721 -19.830  14.128  1.00 21.49     0.017 A 
HETATM   15  CAF   D T   3      26.083 -20.280  12.958  1.00 24.93     0.002 A 
BRANCH  13  16
HETATM   16  NBD   D T   3      26.874 -18.246  16.029  1.00 29.07    -0.344 N 
HETATM   17  CAP   D T   3      28.293 -18.512  16.285  1.00 43.49     0.140 C 
HETATM   18  CAN   D T   3      28.906 -17.179  16.687  1.00 58.34     0.314 C 
HETATM   19  NAU   D T   3      28.424 -16.768  18.025  1.00 37.54     0.343 N 
HETATM   20  CAO   D T   3      26.952 -16.879  18.166  1.00 35.80     0.314 C 
HETATM   21  CAQ   D T   3      26.227 -17.196  16.829  1.00 24.02     0.140 C 
ENDBRANCH  13  16
ENDBRANCH   6  10
BRANCH   7  22
HETATM   22  CAY   D T   3      22.293 -21.197   6.561  1.00 18.73     0.007 A 
HETATM   23  CAD   D T   3      22.323 -22.300   5.725  1.00 18.59     0.021 A 
HETATM   24  CAC   D T   3      22.301 -22.167   4.323  1.00 18.90     0.099 A 
HETATM   25  NAR   D T   3      22.333 -20.958   3.755  1.00 18.61    -0.244 NA
HETATM   26  CBA   D T   3      22.334 -19.846   4.505  1.00 14.95     0.081 A 
HETATM   27  CAI   D T   3      22.367 -18.596   3.893  1.00 16.02     0.019 A 
HETATM   28  CBB   D T   3      22.343 -19.925   5.917  1.00 17.98     0.018 A 
HETATM   29  CAA   D T   3      22.413 -17.425   4.628  1.00 23.51     0.002 A 
HETATM   30  CAB   D T   3      22.413 -17.484   6.017  1.00 19.31     0.000 A 
HETATM   31  CAJ   D T   3      22.361 -18.735   6.632  1.00 21.46     0.002 A 
ENDBRANCH   7  22
TORSDOF 3
ENDMDL
MODEL 9
REMARK VINA RESULT:    -8.909      5.725      9.480
REMARK INTER + INTRA:         -11.146
REMARK INTER:                 -10.479
REMARK INTRA:                  -0.667
REMARK UNBOUND:                -0.675
REMARK  3 active torsions:
REMARK  status: ('A' for Active; 'I' for Inactive)
REMARK    1  A    between atoms: CAV_22  and  CAW_23 
REMARK    2  A    between atoms: CAX_24  and  NBD_30 
REMARK    3  A    between atoms: CAY_25  and  CAZ_26 
ROOT
HETATM    1  CAK   D T   3      24.627 -18.261  12.048  1.00 20.96     0.102 A 
HETATM    2  CAL   D T   3      26.724 -20.121  15.452  1.00 13.59     0.124 A 
HETATM    3  CAM   D T   3      25.261 -20.557  12.335  1.00 18.11     0.104 A 
HETATM    4  NAS   D T   3      25.188 -17.907  13.245  1.00 13.25    -0.225 NA
HETATM    5  NAT   D T   3      26.376 -20.910  14.406  1.00 15.72    -0.162 NA
HETATM    6  CAW   D T   3      24.694 -19.567  11.551  1.00 22.75     0.038 A 
HETATM    7  CAZ   D T   3      26.349 -18.869  15.261  1.00 12.88     0.057 A 
HETATM    8  CBC   D T   3      25.743 -18.872  14.017  1.00 11.55     0.165 A 
HETATM    9  NBE   D T   3      25.796 -20.220  13.554  1.00 16.74    -0.211 N 
ENDROOT
BRANCH   6  10
HETATM   10  CAV   D T   3      24.101 -19.953  10.332  1.00 21.40     0.003 A 
HETATM   11  CAE   D T   3      24.433 -19.277   9.170  1.00 24.66     0.002 A 
HETATM   12  CAG   D T   3      23.861 -19.606   7.942  1.00 27.57     0.017 A 
HETATM   13  CAX   D T   3      22.884 -20.581   7.877  1.00 20.12     0.056 A 
HETATM   14  CAH   D T   3      22.508 -21.232   9.034  1.00 21.49     0.017 A 
HETATM   15  CAF   D T   3      23.106 -20.941  10.273  1.00 24.93     0.002 A 
BRANCH  13  16
HETATM   16  NBD   D T   3      22.282 -20.822   6.599  1.00 29.07    -0.344 N 
HETATM   17  CAP   D T   3      21.789 -19.704   5.787  1.00 43.49     0.140 C 
HETATM   18  CAN   D T   3      22.311 -19.943   4.378  1.00 58.34     0.314 C 
HETATM   19  NAU   D T   3      21.624 -21.100   3.759  1.00 37.54     0.343 N 
HETATM   20  CAO   D T   3      21.577 -22.286   4.649  1.00 35.80     0.314 C 
HETATM   21  CAQ   D T   3      22.432 -22.125   5.935  1.00 24.02     0.140 C 
ENDBRANCH  13  16
ENDBRANCH   6  10
BRANCH   7  22
HETATM   22  CAY   D T   3      26.560 -17.741  16.159  1.00 18.73     0.007 A 
HETATM   23  CAD   D T   3      27.861 -17.347  16.423  1.00 18.59     0.021 A 
HETATM   24  CAC   D T   3      28.147 -16.259  17.271  1.00 18.90     0.099 A 
HETATM   25  NAR   D T   3      27.163 -15.624  17.916  1.00 18.61    -0.244 NA
HETATM   26  CBA   D T   3      25.881 -15.973  17.729  1.00 14.95     0.081 A 
HETATM   27  CAI   D T   3      24.872 -15.298  18.409  1.00 16.02     0.019 A 
HETATM   28  CBB   D T   3      25.541 -17.049  16.877  1.00 17.98     0.018 A 
HETATM   29  CAA   D T   3      23.541 -15.653  18.280  1.00 23.51     0.002 A 
HETATM   30  CAB   D T   3      23.188 -16.702  17.440  1.00 19.31     0.000 A 
HETATM   31  CAJ   D T   3      24.196 -17.367  16.743  1.00 21.46     0.002 A 
ENDBRANCH   7  22
TORSDOF 3
ENDMDL
