MODEL 1
REMARK VINA RESULT:     -10.9      0.000      0.000
REMARK  3 active torsions:
REMARK  status: ('A' for Active; 'I' for Inactive)
REMARK    1  A    between atoms: CAV_22  and  CAW_23 
REMARK    2  A    between atoms: CAX_24  and  NBD_30 
REMARK    3  A    between atoms: CAY_25  and  CAZ_26 
ROOT
HETATM    1  CAK   D T   3      20.538 -22.421   7.593  1.00 20.96     0.102 A 
HETATM    2  CAL   D T   3      22.454 -19.824   4.588  1.00 13.59     0.124 A 
HETATM    3  CAM   D T   3      20.634 -22.712   5.214  1.00 18.11     0.104 A 
HETATM    4  NAS   D T   3      21.222 -21.237   7.524  1.00 13.25    -0.225 NA
HETATM    5  NAT   D T   3      21.821 -20.942   4.157  1.00 15.72    -0.162 NA
HETATM    6  CAW   D T   3      20.190 -23.149   6.450  1.00 22.75     0.038 A 
HETATM    7  CAZ   D T   3      22.388 -19.705   5.902  1.00 12.88     0.057 A 
HETATM    8  CBC   D T   3      21.659 -20.806   6.316  1.00 11.55     0.165 A 
HETATM    9  NBE   D T   3      21.351 -21.544   5.135  1.00 16.74    -0.211 N 
ENDROOT
BRANCH   6  10
HETATM   10  CAV   D T   3      19.507 -24.381   6.506  1.00 21.40     0.003 A 
HETATM   11  CAE   D T   3      19.195 -24.929   7.739  1.00 24.66     0.002 A 
HETATM   12  CAG   D T   3      18.538 -26.153   7.850  1.00 27.57     0.017 A 
HETATM   13  CAX   D T   3      18.247 -26.885   6.714  1.00 20.12     0.056 A 
HETATM   14  CAH   D T   3      18.594 -26.374   5.481  1.00 21.49     0.017 A 
HETATM   15  CAF   D T   3      19.219 -25.120   5.349  1.00 24.93     0.002 A 
BRANCH  13  16
HETATM   16  NBD   D T   3      17.638 -28.168   6.899  1.00 29.07    -0.344 N 
HETATM   17  CAP   D T   3      18.146 -29.093   7.918  1.00 43.49     0.140 C 
HETATM   18  CAN   D T   3      16.926 -29.609   8.667  1.00 58.34     0.314 C 
HETATM   19  NAU   D T   3      16.130 -30.510   7.804  1.00 37.54     0.343 N 
HETATM   20  CAO   D T   3      15.879 -29.945   6.456  1.00 35.80     0.314 C 
HETATM   21  CAQ   D T   3      16.319 -28.461   6.319  1.00 24.02     0.140 C 
ENDBRANCH  13  16
ENDBRANCH   6  10
BRANCH   7  22
HETATM   22  CAY   D T   3      22.941 -18.631   6.717  1.00 18.73     0.007 A 
HETATM   23  CAD   D T   3      22.528 -17.335   6.462  1.00 18.59     0.021 A 
HETATM   24  CAC   D T   3      23.009 -16.243   7.212  1.00 18.90     0.099 A 
HETATM   25  NAR   D T   3      23.948 -16.423   8.146  1.00 18.61    -0.244 NA
HETATM   26  CBA   D T   3      24.414 -17.649   8.426  1.00 14.95     0.081 A 
HETATM   27  CAI   D T   3      25.391 -17.815   9.403  1.00 16.02     0.019 A 
HETATM   28  CBB   D T   3      23.954 -18.779   7.710  1.00 17.98     0.018 A 
HETATM   29  CAA   D T   3      25.931 -19.055   9.692  1.00 23.51     0.002 A 
HETATM   30  CAB   D T   3      25.484 -20.177   9.005  1.00 19.31     0.000 A 
HETATM   31  CAJ   D T   3      24.492 -20.016   8.038  1.00 21.46     0.002 A 
ENDBRANCH   7  22
TORSDOF 3
ENDMDL
MODEL 2
REMARK VINA RESULT:      -9.1      2.113     10.440
REMARK  3 active torsions:
REMARK  status: ('A' for Active; 'I' for Inactive)
REMARK    1  A    between atoms: CAV_22  and  CAW_23 
REMARK    2  A    between atoms: CAX_24  and  NBD_30 
REMARK    3  A    between atoms: CAY_25  and  CAZ_26 
ROOT
HETATM    1  CAK   D T   3      20.380 -23.672   9.064  1.00 20.96     0.102 A 
HETATM    2  CAL   D T   3      17.903 -26.359   6.597  1.00 13.59     0.124 A 
HETATM    3  CAM   D T   3      20.004 -23.599   6.696  1.00 18.11     0.104 A 
HETATM    4  NAS   D T   3      19.603 -24.791   9.201  1.00 13.25    -0.225 NA
HETATM    5  NAT   D T   3      18.560 -25.348   5.979  1.00 15.72    -0.162 NA
HETATM    6  CAW   D T   3      20.634 -23.089   7.818  1.00 22.75     0.038 A 
HETATM    7  CAZ   D T   3      18.126 -26.359   7.898  1.00 12.88     0.057 A 
HETATM    8  CBC   D T   3      18.984 -25.294   8.105  1.00 11.55     0.165 A 
HETATM    9  NBE   D T   3      19.195 -24.701   6.825  1.00 16.74    -0.211 N 
ENDROOT
BRANCH   6  10
HETATM   10  CAV   D T   3      21.411 -21.923   7.664  1.00 21.40     0.003 A 
HETATM   11  CAE   D T   3      22.421 -21.654   8.571  1.00 24.66     0.002 A 
HETATM   12  CAG   D T   3      23.206 -20.506   8.475  1.00 27.57     0.017 A 
HETATM   13  CAX   D T   3      22.936 -19.567   7.498  1.00 20.12     0.056 A 
HETATM   14  CAH   D T   3      21.902 -19.798   6.615  1.00 21.49     0.017 A 
HETATM   15  CAF   D T   3      21.128 -20.972   6.671  1.00 24.93     0.002 A 
BRANCH  13  16
HETATM   16  NBD   D T   3      23.730 -18.375   7.497  1.00 29.07    -0.344 N 
HETATM   17  CAP   D T   3      23.352 -17.231   6.661  1.00 43.49     0.140 C 
HETATM   18  CAN   D T   3      23.455 -16.003   7.554  1.00 58.34     0.314 C 
HETATM   19  NAU   D T   3      24.871 -15.703   7.865  1.00 37.54     0.343 N 
HETATM   20  CAO   D T   3      25.630 -16.898   8.307  1.00 35.80     0.314 C 
HETATM   21  CAQ   D T   3      24.732 -18.143   8.547  1.00 24.02     0.140 C 
ENDBRANCH  13  16
ENDBRANCH   6  10
BRANCH   7  22
HETATM   22  CAY   D T   3      17.600 -27.298   8.880  1.00 18.73     0.007 A 
HETATM   23  CAD   D T   3      16.455 -26.949   9.575  1.00 18.59     0.021 A 
HETATM   24  CAC   D T   3      15.879 -27.807  10.532  1.00 18.90     0.099 A 
HETATM   25  NAR   D T   3      16.475 -28.958  10.858  1.00 18.61    -0.244 NA
HETATM   26  CBA   D T   3      17.603 -29.346  10.244  1.00 14.95     0.081 A 
HETATM   27  CAI   D T   3      18.207 -30.549  10.598  1.00 16.02     0.019 A 
HETATM   28  CBB   D T   3      18.214 -28.527   9.267  1.00 17.98     0.018 A 
HETATM   29  CAA   D T   3      19.394 -30.966  10.023  1.00 23.51     0.002 A 
HETATM   30  CAB   D T   3      20.004 -30.178   9.053  1.00 19.31     0.000 A 
HETATM   31  CAJ   D T   3      19.390 -28.981   8.684  1.00 21.46     0.002 A 
ENDBRANCH   7  22
TORSDOF 3
ENDMDL
MODEL 3
REMARK VINA RESULT:      -8.5      1.798     10.668
REMARK  3 active torsions:
REMARK  status: ('A' for Active; 'I' for Inactive)
REMARK    1  A    between atoms: CAV_22  and  CAW_23 
REMARK    2  A    between atoms: CAX_24  and  NBD_30 
REMARK    3  A    between atoms: CAY_25  and  CAZ_26 
ROOT
HETATM    1  CAK   D T   3      20.370 -23.039   5.960  1.00 20.96     0.102 A 
HETATM    2  CAL   D T   3      18.859 -25.783   9.063  1.00 13.59     0.124 A 
HETATM    3  CAM   D T   3      20.648 -22.899   8.338  1.00 18.11     0.104 A 
HETATM    4  NAS   D T   3      19.611 -24.174   6.067  1.00 13.25    -0.225 NA
HETATM    5  NAT   D T   3      19.576 -24.703   9.458  1.00 15.72    -0.162 NA
HETATM    6  CAW   D T   3      20.856 -22.358   7.081  1.00 22.75     0.038 A 
HETATM    7  CAZ   D T   3      18.737 -25.830   7.749  1.00 12.88     0.057 A 
HETATM    8  CBC   D T   3      19.406 -24.707   7.296  1.00 11.55     0.165 A 
HETATM    9  NBE   D T   3      19.918 -24.056   8.457  1.00 16.74    -0.211 N 
ENDROOT
BRANCH   6  10
HETATM   10  CAV   D T   3      21.659 -21.204   6.986  1.00 21.40     0.003 A 
HETATM   11  CAE   D T   3      22.632 -20.971   7.944  1.00 24.66     0.002 A 
HETATM   12  CAG   D T   3      23.439 -19.836   7.908  1.00 27.57     0.017 A 
HETATM   13  CAX   D T   3      23.230 -18.873   6.939  1.00 20.12     0.056 A 
HETATM   14  CAH   D T   3      22.234 -19.068   6.005  1.00 21.49     0.017 A 
HETATM   15  CAF   D T   3      21.438 -20.228   6.002  1.00 24.93     0.002 A 
BRANCH  13  16
HETATM   16  NBD   D T   3      24.043 -17.695   6.999  1.00 29.07    -0.344 N 
HETATM   17  CAP   D T   3      23.426 -16.371   7.129  1.00 43.49     0.140 C 
HETATM   18  CAN   D T   3      24.200 -15.650   8.223  1.00 58.34     0.314 C 
HETATM   19  NAU   D T   3      25.563 -15.309   7.756  1.00 37.54     0.343 N 
HETATM   20  CAO   D T   3      26.254 -16.452   7.111  1.00 35.80     0.314 C 
HETATM   21  CAQ   D T   3      25.487 -17.796   7.255  1.00 24.02     0.140 C 
ENDBRANCH  13  16
ENDBRANCH   6  10
BRANCH   7  22
HETATM   22  CAY   D T   3      18.028 -26.835   6.967  1.00 18.73     0.007 A 
HETATM   23  CAD   D T   3      17.302 -26.417   5.866  1.00 18.59     0.021 A 
HETATM   24  CAC   D T   3      16.598 -27.329   5.053  1.00 18.90     0.099 A 
HETATM   25  NAR   D T   3      16.546 -28.625   5.376  1.00 18.61    -0.244 NA
HETATM   26  CBA   D T   3      17.204 -29.094   6.446  1.00 14.95     0.081 A 
HETATM   27  CAI   D T   3      17.137 -30.448   6.764  1.00 16.02     0.019 A 
HETATM   28  CBB   D T   3      17.935 -28.222   7.286  1.00 17.98     0.018 A 
HETATM   29  CAA   D T   3      17.763 -30.966   7.883  1.00 23.51     0.002 A 
HETATM   30  CAB   D T   3      18.494 -30.125   8.714  1.00 19.31     0.000 A 
HETATM   31  CAJ   D T   3      18.577 -28.772   8.387  1.00 21.46     0.002 A 
ENDBRANCH   7  22
TORSDOF 3
ENDMDL
MODEL 4
REMARK VINA RESULT:      -8.3      1.930      3.486
REMARK  3 active torsions:
REMARK  status: ('A' for Active; 'I' for Inactive)
REMARK    1  A    between atoms: CAV_22  and  CAW_23 
REMARK    2  A    between atoms: CAX_24  and  NBD_30 
REMARK    3  A    between atoms: CAY_25  and  CAZ_26 
ROOT
HETATM    1  CAK   D T   3      20.495 -22.466   8.706  1.00 20.96     0.102 A 
HETATM    2  CAL   D T   3      24.604 -21.707  10.115  1.00 13.59     0.124 A 
HETATM    3  CAM   D T   3      21.993 -23.975   9.816  1.00 18.11     0.104 A 
HETATM    4  NAS   D T   3      21.426 -21.463   8.710  1.00 13.25    -0.225 NA
HETATM    5  NAT   D T   3      24.079 -22.941  10.309  1.00 15.72    -0.162 NA
HETATM    6  CAW   D T   3      20.772 -23.743   9.208  1.00 22.75     0.038 A 
HETATM    7  CAZ   D T   3      23.746 -20.904   9.512  1.00 12.88     0.057 A 
HETATM    8  CBC   D T   3      22.623 -21.685   9.305  1.00 11.55     0.165 A 
HETATM    9  NBE   D T   3      22.924 -22.966   9.857  1.00 16.74    -0.211 N 
ENDROOT
BRANCH   6  10
HETATM   10  CAV   D T   3      19.816 -24.778   9.235  1.00 21.40     0.003 A 
HETATM   11  CAE   D T   3      19.838 -25.697  10.270  1.00 24.66     0.002 A 
HETATM   12  CAG   D T   3      18.928 -26.751  10.334  1.00 27.57     0.017 A 
HETATM   13  CAX   D T   3      18.020 -26.940   9.309  1.00 20.12     0.056 A 
HETATM   14  CAH   D T   3      18.017 -26.059   8.247  1.00 21.49     0.017 A 
HETATM   15  CAF   D T   3      18.900 -24.966   8.189  1.00 24.93     0.002 A 
BRANCH  13  16
HETATM   16  NBD   D T   3      17.161 -28.083   9.397  1.00 29.07    -0.344 N 
HETATM   17  CAP   D T   3      16.375 -28.513   8.236  1.00 43.49     0.140 C 
HETATM   18  CAN   D T   3      16.569 -30.018   8.128  1.00 58.34     0.314 C 
HETATM   19  NAU   D T   3      15.880 -30.711   9.240  1.00 37.54     0.343 N 
HETATM   20  CAO   D T   3      16.170 -30.108  10.563  1.00 35.80     0.314 C 
HETATM   21  CAQ   D T   3      17.285 -29.027  10.517  1.00 24.02     0.140 C 
ENDBRANCH  13  16
ENDBRANCH   6  10
BRANCH   7  22
HETATM   22  CAY   D T   3      23.961 -19.514   9.131  1.00 18.73     0.007 A 
HETATM   23  CAD   D T   3      24.583 -18.674  10.038  1.00 18.59     0.021 A 
HETATM   24  CAC   D T   3      24.836 -17.320   9.741  1.00 18.90     0.099 A 
HETATM   25  NAR   D T   3      24.404 -16.785   8.595  1.00 18.61    -0.244 NA
HETATM   26  CBA   D T   3      23.769 -17.535   7.683  1.00 14.95     0.081 A 
HETATM   27  CAI   D T   3      23.328 -16.958   6.495  1.00 16.02     0.019 A 
HETATM   28  CBB   D T   3      23.502 -18.902   7.927  1.00 17.98     0.018 A 
HETATM   29  CAA   D T   3      22.630 -17.683   5.546  1.00 23.51     0.002 A 
HETATM   30  CAB   D T   3      22.367 -19.030   5.767  1.00 19.31     0.000 A 
HETATM   31  CAJ   D T   3      22.824 -19.615   6.948  1.00 21.46     0.002 A 
ENDBRANCH   7  22
TORSDOF 3
ENDMDL
MODEL 5
REMARK VINA RESULT:      -8.3      1.446      2.491
REMARK  3 active torsions:
REMARK  status: ('A' for Active; 'I' for Inactive)
REMARK    1  A    between atoms: CAV_22  and  CAW_23 
REMARK    2  A    between atoms: CAX_24  and  NBD_30 
REMARK    3  A    between atoms: CAY_25  and  CAZ_26 
ROOT
HETATM    1  CAK   D T   3      21.044 -23.134   8.360  1.00 20.96     0.102 A 
HETATM    2  CAL   D T   3      22.439 -19.555   6.194  1.00 13.59     0.124 A 
HETATM    3  CAM   D T   3      20.520 -22.446   6.122  1.00 18.11     0.104 A 
HETATM    4  NAS   D T   3      21.817 -22.024   8.571  1.00 13.25    -0.225 NA
HETATM    5  NAT   D T   3      21.600 -20.404   5.553  1.00 15.72    -0.162 NA
HETATM    6  CAW   D T   3      20.348 -23.341   7.163  1.00 22.75     0.038 A 
HETATM    7  CAZ   D T   3      22.711 -19.973   7.417  1.00 12.88     0.057 A 
HETATM    8  CBC   D T   3      21.990 -21.146   7.553  1.00 11.55     0.165 A 
HETATM    9  NBE   D T   3      21.321 -21.346   6.310  1.00 16.74    -0.211 N 
ENDROOT
BRANCH   6  10
HETATM   10  CAV   D T   3      19.568 -24.490   6.921  1.00 21.40     0.003 A 
HETATM   11  CAE   D T   3      19.394 -24.931   5.621  1.00 24.66     0.002 A 
HETATM   12  CAG   D T   3      18.617 -26.050   5.325  1.00 27.57     0.017 A 
HETATM   13  CAX   D T   3      17.940 -26.706   6.336  1.00 20.12     0.056 A 
HETATM   14  CAH   D T   3      18.067 -26.250   7.631  1.00 21.49     0.017 A 
HETATM   15  CAF   D T   3      18.880 -25.148   7.952  1.00 24.93     0.002 A 
BRANCH  13  16
HETATM   16  NBD   D T   3      17.101 -27.803   5.958  1.00 29.07    -0.344 N 
HETATM   17  CAP   D T   3      16.375 -27.780   4.684  1.00 43.49     0.140 C 
HETATM   18  CAN   D T   3      16.603 -29.141   4.043  1.00 58.34     0.314 C 
HETATM   19  NAU   D T   3      15.879 -30.194   4.789  1.00 37.54     0.343 N 
HETATM   20  CAO   D T   3      16.098 -30.117   6.254  1.00 35.80     0.314 C 
HETATM   21  CAQ   D T   3      17.193 -29.092   6.660  1.00 24.02     0.140 C 
ENDBRANCH  13  16
ENDBRANCH   6  10
BRANCH   7  22
HETATM   22  CAY   D T   3      23.563 -19.318   8.401  1.00 18.73     0.007 A 
HETATM   23  CAD   D T   3      23.691 -19.901   9.650  1.00 18.59     0.021 A 
HETATM   24  CAC   D T   3      24.505 -19.334  10.652  1.00 18.90     0.099 A 
HETATM   25  NAR   D T   3      25.115 -18.163  10.448  1.00 18.61    -0.244 NA
HETATM   26  CBA   D T   3      25.011 -17.529   9.270  1.00 14.95     0.081 A 
HETATM   27  CAI   D T   3      25.656 -16.310   9.079  1.00 16.02     0.019 A 
HETATM   28  CBB   D T   3      24.218 -18.063   8.228  1.00 17.98     0.018 A 
HETATM   29  CAA   D T   3      25.540 -15.601   7.897  1.00 23.51     0.002 A 
HETATM   30  CAB   D T   3      24.772 -16.116   6.858  1.00 19.31     0.000 A 
HETATM   31  CAJ   D T   3      24.140 -17.346   7.042  1.00 21.46     0.002 A 
ENDBRANCH   7  22
TORSDOF 3
ENDMDL
MODEL 6
REMARK VINA RESULT:      -8.0      2.403      3.505
REMARK  3 active torsions:
REMARK  status: ('A' for Active; 'I' for Inactive)
REMARK    1  A    between atoms: CAV_22  and  CAW_23 
REMARK    2  A    between atoms: CAX_24  and  NBD_30 
REMARK    3  A    between atoms: CAY_25  and  CAZ_26 
ROOT
HETATM    1  CAK   D T   3      20.098 -22.958   8.379  1.00 20.96     0.102 A 
HETATM    2  CAL   D T   3      24.066 -21.225   9.214  1.00 13.59     0.124 A 
HETATM    3  CAM   D T   3      21.821 -23.802   9.818  1.00 18.11     0.104 A 
HETATM    4  NAS   D T   3      20.868 -21.890   8.004  1.00 13.25    -0.225 NA
HETATM    5  NAT   D T   3      23.735 -22.388   9.825  1.00 15.72    -0.162 NA
HETATM    6  CAW   D T   3      20.571 -23.951   9.244  1.00 22.75     0.038 A 
HETATM    7  CAZ   D T   3      23.088 -20.788   8.440  1.00 12.88     0.057 A 
HETATM    8  CBC   D T   3      22.093 -21.740   8.564  1.00 11.55     0.165 A 
HETATM    9  NBE   D T   3      22.590 -22.717   9.476  1.00 16.74    -0.211 N 
ENDROOT
BRANCH   6  10
HETATM   10  CAV   D T   3      19.782 -25.042   9.660  1.00 21.40     0.003 A 
HETATM   11  CAE   D T   3      19.972 -25.577  10.923  1.00 24.66     0.002 A 
HETATM   12  CAG   D T   3      19.233 -26.668  11.375  1.00 27.57     0.017 A 
HETATM   13  CAX   D T   3      18.332 -27.288  10.530  1.00 20.12     0.056 A 
HETATM   14  CAH   D T   3      18.164 -26.795   9.252  1.00 21.49     0.017 A 
HETATM   15  CAF   D T   3      18.872 -25.669   8.795  1.00 24.93     0.002 A 
BRANCH  13  16
HETATM   16  NBD   D T   3      17.656 -28.449  11.029  1.00 29.07    -0.344 N 
HETATM   17  CAP   D T   3      16.194 -28.541  10.969  1.00 43.49     0.140 C 
HETATM   18  CAN   D T   3      15.879 -29.925  10.420  1.00 58.34     0.314 C 
HETATM   19  NAU   D T   3      16.213 -30.967  11.417  1.00 37.54     0.343 N 
HETATM   20  CAO   D T   3      17.561 -30.789  12.008  1.00 35.80     0.314 C 
HETATM   21  CAQ   D T   3      18.400 -29.685  11.307  1.00 24.02     0.140 C 
ENDBRANCH  13  16
ENDBRANCH   6  10
BRANCH   7  22
HETATM   22  CAY   D T   3      23.087 -19.582   7.622  1.00 18.73     0.007 A 
HETATM   23  CAD   D T   3      22.365 -19.590   6.442  1.00 18.59     0.021 A 
HETATM   24  CAC   D T   3      22.306 -18.460   5.602  1.00 18.90     0.099 A 
HETATM   25  NAR   D T   3      23.019 -17.366   5.885  1.00 18.61    -0.244 NA
HETATM   26  CBA   D T   3      23.763 -17.300   7.000  1.00 14.95     0.081 A 
HETATM   27  CAI   D T   3      24.497 -16.150   7.276  1.00 16.02     0.019 A 
HETATM   28  CBB   D T   3      23.846 -18.402   7.882  1.00 17.98     0.018 A 
HETATM   29  CAA   D T   3      25.312 -16.055   8.390  1.00 23.51     0.002 A 
HETATM   30  CAB   D T   3      25.398 -17.126   9.273  1.00 19.31     0.000 A 
HETATM   31  CAJ   D T   3      24.648 -18.271   9.007  1.00 21.46     0.002 A 
ENDBRANCH   7  22
TORSDOF 3
ENDMDL
