MODEL 1
REMARK VINA RESULT:    -6.705      0.000      0.000
REMARK INTER + INTRA:          -7.948
REMARK INTER:                  -7.489
REMARK INTRA:                  -0.459
REMARK UNBOUND:                -0.459
REMARK  2 active torsions:
REMARK  status: ('A' for Active; 'I' for Inactive)
REMARK    1  A    between atoms: C4_4  and  C7_7 
REMARK    2  A    between atoms: C5_5  and  C15_15 
ROOT
HETATM    1  N1    D T 609     -24.286 -12.569  10.395  1.00 18.00    -0.194 NA
HETATM    2  C2    D T 609     -25.342 -12.358   9.491  1.00 17.14     0.239 A 
HETATM    3  C3    D T 609     -23.436 -11.542  10.690  1.00 20.02     0.187 A 
HETATM    4  C4    D T 609     -23.552 -10.208  10.075  1.00 21.22     0.051 A 
HETATM    5  C5    D T 609     -24.707 -10.058   9.141  1.00 23.03     0.065 A 
HETATM    6  N6    D T 609     -25.555 -11.132   8.843  1.00 19.22    -0.219 NA
HETATM    7  N13   D T 609     -22.399 -11.716  11.537  1.00 13.94    -0.127 N 
HETATM    8  N14   D T 609     -26.197 -13.443   9.213  1.00 16.83    -0.060 NA
ENDROOT
BRANCH   4   9
HETATM    9  C7    D T 609     -22.665  -9.092  10.365  1.00 23.59     0.004 A 
HETATM   10  C8    D T 609     -21.508  -8.843   9.544  1.00 24.10     0.001 A 
HETATM   11  C9    D T 609     -20.637  -7.769   9.794  1.00 24.84     0.011 A 
HETATM   12  C10   D T 609     -20.885  -6.910  10.881  1.00 26.64     0.058 A 
HETATM   13  C11   D T 609     -22.006  -7.096  11.758  1.00 26.94     0.011 A 
HETATM   14 CL1    D T 609     -19.791  -5.668  11.058  1.00 30.15    -0.082 Cl
HETATM   15  C12   D T 609     -22.882  -8.194  11.477  1.00 26.89     0.001 A 
ENDBRANCH   4   9
BRANCH   5  16
HETATM   16  C15   D T 609     -24.977  -8.693   8.439  1.00 22.10     0.046 C 
HETATM   17  C16   D T 609     -26.336  -8.061   8.494  1.00 27.93     0.007 C 
ENDBRANCH   5  16
TORSDOF 2
ENDMDL
MODEL 2
REMARK VINA RESULT:    -6.619      3.660      5.672
REMARK INTER + INTRA:          -7.852
REMARK INTER:                  -7.445
REMARK INTRA:                  -0.407
REMARK UNBOUND:                -0.459
REMARK  2 active torsions:
REMARK  status: ('A' for Active; 'I' for Inactive)
REMARK    1  A    between atoms: C4_4  and  C7_7 
REMARK    2  A    between atoms: C5_5  and  C15_15 
ROOT
HETATM    1  N1    D T 609     -20.304  -8.447   9.560  1.00 18.00    -0.194 NA
HETATM    2  C2    D T 609     -20.092  -8.628  10.938  1.00 17.14     0.239 A 
HETATM    3  C3    D T 609     -21.558  -8.609   9.045  1.00 20.02     0.187 A 
HETATM    4  C4    D T 609     -22.716  -9.001   9.868  1.00 21.22     0.051 A 
HETATM    5  C5    D T 609     -22.413  -9.157  11.322  1.00 23.03     0.065 A 
HETATM    6  N6    D T 609     -21.115  -9.001  11.824  1.00 19.22    -0.219 NA
HETATM    7  N13   D T 609     -21.793  -8.464   7.723  1.00 13.94    -0.127 N 
HETATM    8  N14   D T 609     -18.784  -8.451  11.431  1.00 16.83    -0.060 NA
ENDROOT
BRANCH   4   9
HETATM    9  C7    D T 609     -24.064  -9.183   9.353  1.00 23.59     0.004 A 
HETATM   10  C8    D T 609     -24.540 -10.494   8.991  1.00 24.10     0.001 A 
HETATM   11  C9    D T 609     -25.839 -10.702   8.499  1.00 24.84     0.011 A 
HETATM   12  C10   D T 609     -26.707  -9.607   8.340  1.00 26.64     0.058 A 
HETATM   13  C11   D T 609     -26.308  -8.266   8.661  1.00 26.94     0.011 A 
HETATM   14 CL1    D T 609     -28.222  -9.990   7.765  1.00 30.15    -0.082 Cl
HETATM   15  C12   D T 609     -24.981  -8.081   9.168  1.00 26.89     0.001 A 
ENDBRANCH   4   9
BRANCH   5  16
HETATM   16  C15   D T 609     -23.545  -9.538  12.323  1.00 22.10     0.046 C 
HETATM   17  C16   D T 609     -23.220  -9.904  13.740  1.00 27.93     0.007 C 
ENDBRANCH   5  16
TORSDOF 2
ENDMDL
MODEL 3
REMARK VINA RESULT:    -6.502      1.564      2.874
REMARK INTER + INTRA:          -7.721
REMARK INTER:                  -7.174
REMARK INTRA:                  -0.548
REMARK UNBOUND:                -0.459
REMARK  2 active torsions:
REMARK  status: ('A' for Active; 'I' for Inactive)
REMARK    1  A    between atoms: C4_4  and  C7_7 
REMARK    2  A    between atoms: C5_5  and  C15_15 
ROOT
HETATM    1  N1    D T 609     -24.804  -9.934   8.389  1.00 18.00    -0.194 NA
HETATM    2  C2    D T 609     -25.049 -10.991   9.282  1.00 17.14     0.239 A 
HETATM    3  C3    D T 609     -23.784  -9.062   8.640  1.00 20.02     0.187 A 
HETATM    4  C4    D T 609     -22.931  -9.156   9.838  1.00 21.22     0.051 A 
HETATM    5  C5    D T 609     -23.242 -10.313  10.728  1.00 23.03     0.065 A 
HETATM    6  N6    D T 609     -24.305 -11.185  10.456  1.00 19.22    -0.219 NA
HETATM    7  N13   D T 609     -23.535  -8.023   7.814  1.00 13.94    -0.127 N 
HETATM    8  N14   D T 609     -26.111 -11.870   8.988  1.00 16.83    -0.060 NA
ENDROOT
BRANCH   4   9
HETATM    9  C7    D T 609     -21.837  -8.245  10.138  1.00 23.59     0.004 A 
HETATM   10  C8    D T 609     -20.503  -8.521   9.665  1.00 24.10     0.001 A 
HETATM   11  C9    D T 609     -19.428  -7.657   9.931  1.00 24.84     0.011 A 
HETATM   12  C10   D T 609     -19.643  -6.491  10.689  1.00 26.64     0.058 A 
HETATM   13  C11   D T 609     -20.936  -6.150  11.211  1.00 26.94     0.011 A 
HETATM   14 CL1    D T 609     -18.293  -5.544  10.919  1.00 30.15    -0.082 Cl
HETATM   15  C12   D T 609     -22.017  -7.043  10.920  1.00 26.89     0.001 A 
ENDBRANCH   4   9
BRANCH   5  16
HETATM   16  C15   D T 609     -22.402 -10.561  12.017  1.00 22.10     0.046 C 
HETATM   17  C16   D T 609     -22.752  -9.869  13.301  1.00 27.93     0.007 C 
ENDBRANCH   5  16
TORSDOF 2
ENDMDL
MODEL 4
REMARK VINA RESULT:    -6.456      3.284      4.300
REMARK INTER + INTRA:          -7.670
REMARK INTER:                  -7.224
REMARK INTRA:                  -0.446
REMARK UNBOUND:                -0.459
REMARK  2 active torsions:
REMARK  status: ('A' for Active; 'I' for Inactive)
REMARK    1  A    between atoms: C4_4  and  C7_7 
REMARK    2  A    between atoms: C5_5  and  C15_15 
ROOT
HETATM    1  N1    D T 609     -24.536 -10.290   9.529  1.00 18.00    -0.194 NA
HETATM    2  C2    D T 609     -24.465  -8.923   9.209  1.00 17.14     0.239 A 
HETATM    3  C3    D T 609     -23.841 -10.769  10.602  1.00 20.02     0.187 A 
HETATM    4  C4    D T 609     -22.979  -9.916  11.440  1.00 21.22     0.051 A 
HETATM    5  C5    D T 609     -22.970  -8.475  11.048  1.00 23.03     0.065 A 
HETATM    6  N6    D T 609     -23.679  -8.012   9.933  1.00 19.22    -0.219 NA
HETATM    7  N13   D T 609     -23.870 -12.080  10.923  1.00 13.94    -0.127 N 
HETATM    8  N14   D T 609     -25.197  -8.467   8.095  1.00 16.83    -0.060 NA
ENDROOT
BRANCH   4   9
HETATM    9  C7    D T 609     -22.225 -10.392  12.589  1.00 23.59     0.004 A 
HETATM   10  C8    D T 609     -20.909 -10.955  12.420  1.00 24.10     0.001 A 
HETATM   11  C9    D T 609     -20.153 -11.415  13.511  1.00 24.84     0.011 A 
HETATM   12  C10   D T 609     -20.689 -11.340  14.810  1.00 26.64     0.058 A 
HETATM   13  C11   D T 609     -21.996 -10.808  15.065  1.00 26.94     0.011 A 
HETATM   14 CL1    D T 609     -19.686 -11.902  16.015  1.00 30.15    -0.082 Cl
HETATM   15  C12   D T 609     -22.745 -10.339  13.937  1.00 26.89     0.001 A 
ENDBRANCH   4   9
BRANCH   5  16
HETATM   16  C15   D T 609     -22.129  -7.446  11.862  1.00 22.10     0.046 C 
HETATM   17  C16   D T 609     -21.107  -6.586  11.181  1.00 27.93     0.007 C 
ENDBRANCH   5  16
TORSDOF 2
ENDMDL
MODEL 5
REMARK VINA RESULT:    -6.179      2.103      3.757
REMARK INTER + INTRA:          -7.360
REMARK INTER:                  -7.048
REMARK INTRA:                  -0.312
REMARK UNBOUND:                -0.459
REMARK  2 active torsions:
REMARK  status: ('A' for Active; 'I' for Inactive)
REMARK    1  A    between atoms: C4_4  and  C7_7 
REMARK    2  A    between atoms: C5_5  and  C15_15 
ROOT
HETATM    1  N1    D T 609     -28.112 -10.090   7.902  1.00 18.00    -0.194 NA
HETATM    2  C2    D T 609     -28.146 -11.488   8.039  1.00 17.14     0.239 A 
HETATM    3  C3    D T 609     -26.969  -9.410   8.209  1.00 20.02     0.187 A 
HETATM    4  C4    D T 609     -25.755 -10.076   8.715  1.00 21.22     0.051 A 
HETATM    5  C5    D T 609     -25.864 -11.562   8.816  1.00 23.03     0.065 A 
HETATM    6  N6    D T 609     -27.055 -12.234   8.510  1.00 19.22    -0.219 NA
HETATM    7  N13   D T 609     -26.909  -8.065   8.109  1.00 13.94    -0.127 N 
HETATM    8  N14   D T 609     -29.345 -12.154   7.712  1.00 16.83    -0.060 NA
ENDROOT
BRANCH   4   9
HETATM    9  C7    D T 609     -24.521  -9.385   9.052  1.00 23.59     0.004 A 
HETATM   10  C8    D T 609     -24.171  -9.138  10.429  1.00 24.10     0.001 A 
HETATM   11  C9    D T 609     -22.983  -8.480  10.786  1.00 24.84     0.011 A 
HETATM   12  C10   D T 609     -22.104  -8.034   9.780  1.00 26.64     0.058 A 
HETATM   13  C11   D T 609     -22.384  -8.225   8.386  1.00 26.94     0.011 A 
HETATM   14 CL1    D T 609     -20.724  -7.286  10.336  1.00 30.15    -0.082 Cl
HETATM   15  C12   D T 609     -23.599  -8.905   8.048  1.00 26.89     0.001 A 
ENDBRANCH   4   9
BRANCH   5  16
HETATM   16  C15   D T 609     -24.650 -12.407   9.306  1.00 22.10     0.046 C 
HETATM   17  C16   D T 609     -24.777 -13.889   9.494  1.00 27.93     0.007 C 
ENDBRANCH   5  16
TORSDOF 2
ENDMDL
MODEL 6
REMARK VINA RESULT:    -6.092      4.251      5.654
REMARK INTER + INTRA:          -7.264
REMARK INTER:                  -6.778
REMARK INTRA:                  -0.486
REMARK UNBOUND:                -0.459
REMARK  2 active torsions:
REMARK  status: ('A' for Active; 'I' for Inactive)
REMARK    1  A    between atoms: C4_4  and  C7_7 
REMARK    2  A    between atoms: C5_5  and  C15_15 
ROOT
HETATM    1  N1    D T 609     -21.498  -8.737  10.629  1.00 18.00    -0.194 NA
HETATM    2  C2    D T 609     -22.686  -9.160  10.009  1.00 17.14     0.239 A 
HETATM    3  C3    D T 609     -20.957  -9.487  11.633  1.00 20.02     0.187 A 
HETATM    4  C4    D T 609     -21.582 -10.726  12.130  1.00 21.22     0.051 A 
HETATM    5  C5    D T 609     -22.830 -11.118  11.410  1.00 23.03     0.065 A 
HETATM    6  N6    D T 609     -23.374 -10.322  10.394  1.00 19.22    -0.219 NA
HETATM    7  N13   D T 609     -19.828  -9.098  12.264  1.00 13.94    -0.127 N 
HETATM    8  N14   D T 609     -23.214  -8.359   8.977  1.00 16.83    -0.060 NA
ENDROOT
BRANCH   4   9
HETATM    9  C7    D T 609     -21.034 -11.550  13.197  1.00 23.59     0.004 A 
HETATM   10  C8    D T 609     -21.291 -11.227  14.578  1.00 24.10     0.001 A 
HETATM   11  C9    D T 609     -20.783 -12.008  15.629  1.00 24.84     0.011 A 
HETATM   12  C10   D T 609     -19.989 -13.133  15.340  1.00 26.64     0.058 A 
HETATM   13  C11   D T 609     -19.671 -13.515  13.994  1.00 26.94     0.011 A 
HETATM   14 CL1    D T 609     -19.463 -13.982  16.673  1.00 30.15    -0.082 Cl
HETATM   15  C12   D T 609     -20.207 -12.707  12.939  1.00 26.89     0.001 A 
ENDBRANCH   4   9
BRANCH   5  16
HETATM   16  C15   D T 609     -23.586 -12.423  11.804  1.00 22.10     0.046 C 
HETATM   17  C16   D T 609     -23.242 -13.731  11.156  1.00 27.93     0.007 C 
ENDBRANCH   5  16
TORSDOF 2
ENDMDL
MODEL 7
REMARK VINA RESULT:    -6.056      3.681      4.590
REMARK INTER + INTRA:          -7.223
REMARK INTER:                  -6.800
REMARK INTRA:                  -0.423
REMARK UNBOUND:                -0.459
REMARK  2 active torsions:
REMARK  status: ('A' for Active; 'I' for Inactive)
REMARK    1  A    between atoms: C4_4  and  C7_7 
REMARK    2  A    between atoms: C5_5  and  C15_15 
ROOT
HETATM    1  N1    D T 609     -23.441  -7.833  10.339  1.00 18.00    -0.194 NA
HETATM    2  C2    D T 609     -24.182  -8.729   9.550  1.00 17.14     0.239 A 
HETATM    3  C3    D T 609     -22.719  -8.305  11.397  1.00 20.02     0.187 A 
HETATM    4  C4    D T 609     -22.701  -9.729  11.780  1.00 21.22     0.051 A 
HETATM    5  C5    D T 609     -23.498 -10.618  10.884  1.00 23.03     0.065 A 
HETATM    6  N6    D T 609     -24.243 -10.106   9.814  1.00 19.22    -0.219 NA
HETATM    7  N13   D T 609     -22.013  -7.470  12.189  1.00 13.94    -0.127 N 
HETATM    8  N14   D T 609     -24.915  -8.202   8.467  1.00 16.83    -0.060 NA
ENDROOT
BRANCH   4   9
HETATM    9  C7    D T 609     -21.944 -10.267  12.900  1.00 23.59     0.004 A 
HETATM   10  C8    D T 609     -20.575 -10.682  12.727  1.00 24.10     0.001 A 
HETATM   11  C9    D T 609     -19.816 -11.197  13.791  1.00 24.84     0.011 A 
HETATM   12  C10   D T 609     -20.401 -11.328  15.064  1.00 26.64     0.058 A 
HETATM   13  C11   D T 609     -21.762 -10.954  15.318  1.00 26.94     0.011 A 
HETATM   14 CL1    D T 609     -19.391 -11.935  16.241  1.00 30.15    -0.082 Cl
HETATM   15  C12   D T 609     -22.513 -10.424  14.219  1.00 26.89     0.001 A 
ENDBRANCH   4   9
BRANCH   5  16
HETATM   16  C15   D T 609     -23.548 -12.154  11.144  1.00 22.10     0.046 C 
HETATM   17  C16   D T 609     -24.326 -13.057  10.236  1.00 27.93     0.007 C 
ENDBRANCH   5  16
TORSDOF 2
ENDMDL
MODEL 8
REMARK VINA RESULT:    -6.055      2.331      3.599
REMARK INTER + INTRA:          -7.223
REMARK INTER:                  -6.889
REMARK INTRA:                  -0.334
REMARK UNBOUND:                -0.459
REMARK  2 active torsions:
REMARK  status: ('A' for Active; 'I' for Inactive)
REMARK    1  A    between atoms: C4_4  and  C7_7 
REMARK    2  A    between atoms: C5_5  and  C15_15 
ROOT
HETATM    1  N1    D T 609     -26.285  -8.440   8.188  1.00 18.00    -0.194 NA
HETATM    2  C2    D T 609     -26.939  -9.668   7.991  1.00 17.14     0.239 A 
HETATM    3  C3    D T 609     -25.118  -8.404   8.897  1.00 20.02     0.187 A 
HETATM    4  C4    D T 609     -24.514  -9.604   9.503  1.00 21.22     0.051 A 
HETATM    5  C5    D T 609     -25.258 -10.871   9.234  1.00 23.03     0.065 A 
HETATM    6  N6    D T 609     -26.462 -10.879   8.517  1.00 19.22    -0.219 NA
HETATM    7  N13   D T 609     -24.476  -7.238   9.124  1.00 13.94    -0.127 N 
HETATM    8  N14   D T 609     -28.140  -9.665   7.254  1.00 16.83    -0.060 NA
ENDROOT
BRANCH   4   9
HETATM    9  C7    D T 609     -23.275  -9.603  10.264  1.00 23.59     0.004 A 
HETATM   10  C8    D T 609     -23.298  -9.662  11.704  1.00 24.10     0.001 A 
HETATM   11  C9    D T 609     -22.118  -9.670  12.465  1.00 24.84     0.011 A 
HETATM   12  C10   D T 609     -20.871  -9.608  11.817  1.00 26.64     0.058 A 
HETATM   13  C11   D T 609     -20.758  -9.531  10.389  1.00 26.94     0.011 A 
HETATM   14 CL1    D T 609     -19.550  -9.643  12.832  1.00 30.15    -0.082 Cl
HETATM   15  C12   D T 609     -21.976  -9.531   9.634  1.00 26.89     0.001 A 
ENDBRANCH   4   9
BRANCH   5  16
HETATM   16  C15   D T 609     -24.723 -12.228   9.784  1.00 22.10     0.046 C 
HETATM   17  C16   D T 609     -25.131 -13.523   9.150  1.00 27.93     0.007 C 
ENDBRANCH   5  16
TORSDOF 2
ENDMDL
MODEL 9
REMARK VINA RESULT:    -6.010      3.224      4.845
REMARK INTER + INTRA:          -7.172
REMARK INTER:                  -6.635
REMARK INTRA:                  -0.537
REMARK UNBOUND:                -0.459
REMARK  2 active torsions:
REMARK  status: ('A' for Active; 'I' for Inactive)
REMARK    1  A    between atoms: C4_4  and  C7_7 
REMARK    2  A    between atoms: C5_5  and  C15_15 
ROOT
HETATM    1  N1    D T 609     -22.872 -14.723  11.281  1.00 18.00    -0.194 NA
HETATM    2  C2    D T 609     -21.900 -15.399  12.038  1.00 17.14     0.239 A 
HETATM    3  C3    D T 609     -22.942 -13.361  11.336  1.00 20.02     0.187 A 
HETATM    4  C4    D T 609     -22.056 -12.549  12.190  1.00 21.22     0.051 A 
HETATM    5  C5    D T 609     -21.040 -13.338  12.949  1.00 23.03     0.065 A 
HETATM    6  N6    D T 609     -20.999 -14.737  12.886  1.00 19.22    -0.219 NA
HETATM    7  N13   D T 609     -23.878 -12.681  10.639  1.00 13.94    -0.127 N 
HETATM    8  N14   D T 609     -21.859 -16.805  11.953  1.00 16.83    -0.060 NA
ENDROOT
BRANCH   4   9
HETATM    9  C7    D T 609     -22.103 -11.098  12.274  1.00 23.59     0.004 A 
HETATM   10  C8    D T 609     -21.396 -10.285  11.317  1.00 24.10     0.001 A 
HETATM   11  C9    D T 609     -21.429  -8.881  11.368  1.00 24.84     0.011 A 
HETATM   12  C10   D T 609     -22.161  -8.238  12.384  1.00 26.64     0.058 A 
HETATM   13  C11   D T 609     -22.879  -8.972  13.386  1.00 26.94     0.011 A 
HETATM   14 CL1    D T 609     -22.133  -6.574  12.322  1.00 30.15    -0.082 Cl
HETATM   15  C12   D T 609     -22.836 -10.402  13.308  1.00 26.89     0.001 A 
ENDBRANCH   4   9
BRANCH   5  16
HETATM   16  C15   D T 609     -20.012 -12.614  13.869  1.00 22.10     0.046 C 
HETATM   17  C16   D T 609     -20.311 -12.390  15.321  1.00 27.93     0.007 C 
ENDBRANCH   5  16
TORSDOF 2
ENDMDL
