MODEL 1
REMARK VINA RESULT:    -9.395      0.000      0.000
REMARK INTER + INTRA:         -11.398
REMARK INTER:                 -11.043
REMARK INTRA:                  -0.355
REMARK UNBOUND:                -0.355
REMARK  3 active torsions:
REMARK  status: ('A' for Active; 'I' for Inactive)
REMARK    1  A    between atoms: C4_6  and  C5_7 
REMARK    2  A    between atoms: C5_7  and  C6_8 
REMARK    3  A    between atoms: C5_7  and  C12_16 
ROOT
HETATM    1  C12   D T 526       9.220  -5.790   2.557  0.85 36.74     0.021 A 
HETATM    2  C13   D T 526       8.177  -6.723   2.565  0.85 36.68    -0.000 A 
HETATM    3  C14   D T 526       7.563  -7.117   3.766  0.85 39.54     0.016 A 
HETATM    4  C15   D T 526       9.661  -5.247   3.781  0.85 39.08    -0.000 A 
HETATM    5  C16   D T 526       9.072  -5.630   4.984  0.85 40.00     0.017 A 
HETATM    6  C17   D T 526       8.025  -6.558   4.982  0.85 40.79     0.062 A 
HETATM    7  N4    D T 526       7.434  -6.927   6.218  0.85 42.34    -0.294 N 
HETATM    8  C18   D T 526       7.904  -6.341   7.513  0.85 43.53     0.134 C 
HETATM    9  C19   D T 526       6.398  -7.850   6.238  0.85 41.43     0.261 A 
HETATM   10  O1    D T 526       5.887  -8.171   7.312  0.85 42.98    -0.267 OA
HETATM   11  C20   D T 526       5.950  -8.395   5.042  0.85 40.93     0.061 A 
HETATM   12  C21   D T 526       6.502  -8.056   3.795  0.85 40.09     0.006 A 
HETATM   13  C22   D T 526       5.922  -8.691   2.665  0.85 38.51     0.001 A 
HETATM   14  C23   D T 526       6.650  -9.468   1.773  0.85 37.22     0.011 A 
HETATM   15  C24   D T 526       6.002 -10.078   0.701  0.85 38.32     0.058 A 
HETATM   16 CL2    D T 526       6.935 -11.052  -0.357  0.85 39.14    -0.082 Cl
HETATM   17  C25   D T 526       4.624  -9.934   0.471  0.85 38.76     0.011 A 
HETATM   18  C26   D T 526       3.873  -9.153   1.351  0.85 39.13     0.001 A 
HETATM   19  C27   D T 526       4.541  -8.542   2.428  0.85 40.58     0.000 A 
ENDROOT
BRANCH   1  20
HETATM   20  C5    D T 526       9.940  -5.381   1.237  0.85 35.96     0.342 C 
HETATM   21  N3    D T 526      10.884  -4.256   1.478  0.85 33.38     0.629 N 
BRANCH  20  22
HETATM   22  C4    D T 526      10.834  -6.602   0.884  0.85 36.74     0.100 A 
HETATM   23  N1    D T 526      11.847  -6.640   0.033  0.85 38.12    -0.308 N 
HETATM   24  C1    D T 526      12.377  -5.508  -0.808  0.85 35.33     0.132 C 
HETATM   25  C2    D T 526      12.338  -7.877   0.024  0.85 38.34     0.178 A 
HETATM   26  N2    D T 526      11.634  -8.600   0.890  0.85 36.49    -0.223 NA
HETATM   27  C3    D T 526      10.703  -7.821   1.410  0.85 36.47     0.116 A 
ENDBRANCH  20  22
BRANCH  20  28
HETATM   28  C6    D T 526       8.819  -5.174   0.167  0.85 36.17     0.021 A 
HETATM   29  C7    D T 526       8.792  -5.934  -1.012  0.85 36.92    -0.001 A 
HETATM   30  C8    D T 526       7.764  -5.797  -1.961  0.85 39.20     0.011 A 
HETATM   31  C9    D T 526       6.720  -4.889  -1.734  0.85 42.64     0.058 A 
HETATM   32 CL1    D T 526       5.429  -4.694  -2.896  0.85 49.10    -0.082 Cl
HETATM   33  C10   D T 526       6.717  -4.132  -0.553  0.85 40.97     0.011 A 
HETATM   34  C11   D T 526       7.750  -4.285   0.391  0.85 38.69    -0.001 A 
ENDBRANCH  20  28
ENDBRANCH   1  20
TORSDOF 3
ENDMDL
MODEL 2
REMARK VINA RESULT:    -9.159      2.528      4.853
REMARK INTER + INTRA:         -11.121
REMARK INTER:                 -10.745
REMARK INTRA:                  -0.376
REMARK UNBOUND:                -0.355
REMARK  3 active torsions:
REMARK  status: ('A' for Active; 'I' for Inactive)
REMARK    1  A    between atoms: C4_6  and  C5_7 
REMARK    2  A    between atoms: C5_7  and  C6_8 
REMARK    3  A    between atoms: C5_7  and  C12_16 
ROOT
HETATM    1  C12   D T 526       8.366  -6.480   3.082  0.85 36.74     0.021 A 
HETATM    2  C13   D T 526       8.630  -6.317   4.446  0.85 36.68    -0.000 A 
HETATM    3  C14   D T 526       7.799  -6.893   5.422  0.85 39.54     0.016 A 
HETATM    4  C15   D T 526       7.240  -7.232   2.689  0.85 39.08    -0.000 A 
HETATM    5  C16   D T 526       6.399  -7.806   3.639  0.85 40.00     0.017 A 
HETATM    6  C17   D T 526       6.674  -7.644   5.002  0.85 40.79     0.062 A 
HETATM    7  N4    D T 526       5.809  -8.244   5.952  0.85 42.34    -0.294 N 
HETATM    8  C18   D T 526       4.620  -9.046   5.526  0.85 43.53     0.134 C 
HETATM    9  C19   D T 526       6.062  -8.090   7.308  0.85 41.43     0.261 A 
HETATM   10  O1    D T 526       5.310  -8.610   8.133  0.85 42.98    -0.267 OA
HETATM   11  C20   D T 526       7.168  -7.353   7.714  0.85 40.93     0.061 A 
HETATM   12  C21   D T 526       8.053  -6.745   6.809  0.85 40.09     0.006 A 
HETATM   13  C22   D T 526       9.142  -6.038   7.384  0.85 38.51     0.001 A 
HETATM   14  C23   D T 526       9.385  -4.692   7.145  0.85 37.22     0.011 A 
HETATM   15  C24   D T 526      10.462  -4.064   7.767  0.85 38.32     0.058 A 
HETATM   16 CL2    D T 526      10.706  -2.394   7.467  0.85 39.14    -0.082 Cl
HETATM   17  C25   D T 526      11.334  -4.743   8.633  0.85 38.76     0.011 A 
HETATM   18  C26   D T 526      11.113  -6.099   8.884  0.85 39.13     0.001 A 
HETATM   19  C27   D T 526      10.022  -6.719   8.247  0.85 40.58     0.000 A 
ENDROOT
BRANCH   1  20
HETATM   20  C5    D T 526       9.252  -5.806   1.992  0.85 35.96     0.342 C 
HETATM   21  N3    D T 526      10.053  -4.695   2.574  0.85 33.38     0.629 N 
BRANCH  20  22
HETATM   22  C4    D T 526      10.285  -6.897   1.596  0.85 36.74     0.100 A 
HETATM   23  N1    D T 526      11.353  -6.754   0.827  0.85 38.12    -0.308 N 
HETATM   24  C1    D T 526      11.824  -5.499   0.141  0.85 35.33     0.132 C 
HETATM   25  C2    D T 526      11.964  -7.933   0.739  0.85 38.34     0.178 A 
HETATM   26  N2    D T 526      11.277  -8.803   1.475  0.85 36.49    -0.223 NA
HETATM   27  C3    D T 526      10.240  -8.170   1.992  0.85 36.47     0.116 A 
ENDBRANCH  20  22
BRANCH  20  28
HETATM   28  C6    D T 526       8.301  -5.468   0.796  0.85 36.17     0.021 A 
HETATM   29  C7    D T 526       7.530  -4.296   0.792  0.85 36.92    -0.001 A 
HETATM   30  C8    D T 526       6.709  -3.952  -0.297  0.85 39.20     0.011 A 
HETATM   31  C9    D T 526       6.657  -4.784  -1.423  0.85 42.64     0.058 A 
HETATM   32 CL1    D T 526       5.644  -4.384  -2.791  0.85 49.10    -0.082 Cl
HETATM   33  C10   D T 526       7.435  -5.951  -1.448  0.85 40.97     0.011 A 
HETATM   34  C11   D T 526       8.256  -6.279  -0.354  0.85 38.69    -0.001 A 
ENDBRANCH  20  28
ENDBRANCH   1  20
TORSDOF 3
ENDMDL
MODEL 3
REMARK VINA RESULT:    -8.889      3.656      7.125
REMARK INTER + INTRA:         -10.803
REMARK INTER:                 -10.906
REMARK INTRA:                   0.103
REMARK UNBOUND:                -0.355
REMARK  3 active torsions:
REMARK  status: ('A' for Active; 'I' for Inactive)
REMARK    1  A    between atoms: C4_6  and  C5_7 
REMARK    2  A    between atoms: C5_7  and  C6_8 
REMARK    3  A    between atoms: C5_7  and  C12_16 
ROOT
HETATM    1  C12   D T 526       5.407  -8.340   2.602  0.85 36.74     0.021 A 
HETATM    2  C13   D T 526       6.358  -7.579   1.914  0.85 36.68    -0.000 A 
HETATM    3  C14   D T 526       6.101  -7.090   0.622  0.85 39.54     0.016 A 
HETATM    4  C15   D T 526       4.175  -8.624   1.976  0.85 39.08    -0.000 A 
HETATM    5  C16   D T 526       3.903  -8.155   0.693  0.85 40.00     0.017 A 
HETATM    6  C17   D T 526       4.857  -7.389   0.015  0.85 40.79     0.062 A 
HETATM    7  N4    D T 526       4.556  -6.915  -1.289  0.85 42.34    -0.294 N 
HETATM    8  C18   D T 526       3.243  -7.216  -1.942  0.85 43.53     0.134 C 
HETATM    9  C19   D T 526       5.491  -6.158  -1.979  0.85 41.43     0.261 A 
HETATM   10  O1    D T 526       5.229  -5.749  -3.111  0.85 42.98    -0.267 OA
HETATM   11  C20   D T 526       6.709  -5.868  -1.378  0.85 40.93     0.061 A 
HETATM   12  C21   D T 526       7.048  -6.311  -0.089  0.85 40.09     0.006 A 
HETATM   13  C22   D T 526       8.327  -5.919   0.387  0.85 38.51     0.001 A 
HETATM   14  C23   D T 526       9.300  -6.824   0.789  0.85 37.22     0.011 A 
HETATM   15  C24   D T 526      10.540  -6.359   1.221  0.85 38.32     0.058 A 
HETATM   16 CL2    D T 526      11.720  -7.515   1.679  0.85 39.14    -0.082 Cl
HETATM   17  C25   D T 526      10.855  -4.992   1.279  0.85 38.76     0.011 A 
HETATM   18  C26   D T 526       9.890  -4.062   0.886  0.85 39.13     0.001 A 
HETATM   19  C27   D T 526       8.642  -4.547   0.452  0.85 40.58     0.000 A 
ENDROOT
BRANCH   1  20
HETATM   20  C5    D T 526       5.698  -8.928   4.015  0.85 35.96     0.342 C 
HETATM   21  N3    D T 526       4.433  -9.318   4.696  0.85 33.38     0.629 N 
BRANCH  20  22
HETATM   22  C4    D T 526       6.446 -10.261   3.739  0.85 36.74     0.100 A 
HETATM   23  N1    D T 526       6.775 -11.198   4.615  0.85 38.12    -0.308 N 
HETATM   24  C1    D T 526       6.509 -11.196   6.097  0.85 35.33     0.132 C 
HETATM   25  C2    D T 526       7.408 -12.172   3.966  0.85 38.34     0.178 A 
HETATM   26  N2    D T 526       7.453 -11.841   2.678  0.85 36.49    -0.223 NA
HETATM   27  C3    D T 526       6.873 -10.662   2.540  0.85 36.47     0.116 A 
ENDBRANCH  20  22
BRANCH  20  28
HETATM   28  C6    D T 526       6.626  -7.899   4.740  0.85 36.17     0.021 A 
HETATM   29  C7    D T 526       6.591  -7.748   6.134  0.85 36.92    -0.001 A 
HETATM   30  C8    D T 526       7.454  -6.864   6.807  0.85 39.20     0.011 A 
HETATM   31  C9    D T 526       8.391  -6.115   6.081  0.85 42.64     0.058 A 
HETATM   32 CL1    D T 526       9.476  -5.007   6.889  0.85 49.10    -0.082 Cl
HETATM   33  C10   D T 526       8.456  -6.265   4.689  0.85 40.97     0.011 A 
HETATM   34  C11   D T 526       7.591  -7.158   4.030  0.85 38.69    -0.001 A 
ENDBRANCH  20  28
ENDBRANCH   1  20
TORSDOF 3
ENDMDL
MODEL 4
REMARK VINA RESULT:    -8.695      2.697      4.564
REMARK INTER + INTRA:         -10.576
REMARK INTER:                 -10.417
REMARK INTRA:                  -0.158
REMARK UNBOUND:                -0.355
REMARK  3 active torsions:
REMARK  status: ('A' for Active; 'I' for Inactive)
REMARK    1  A    between atoms: C4_6  and  C5_7 
REMARK    2  A    between atoms: C5_7  and  C6_8 
REMARK    3  A    between atoms: C5_7  and  C12_16 
ROOT
HETATM    1  C12   D T 526       7.966  -5.199   0.711  0.85 36.74     0.021 A 
HETATM    2  C13   D T 526       7.856  -5.976   1.869  0.85 36.68    -0.000 A 
HETATM    3  C14   D T 526       8.892  -6.021   2.818  0.85 39.54     0.016 A 
HETATM    4  C15   D T 526       9.146  -4.456   0.497  0.85 39.08    -0.000 A 
HETATM    5  C16   D T 526      10.188  -4.491   1.421  0.85 40.00     0.017 A 
HETATM    6  C17   D T 526      10.066  -5.266   2.579  0.85 40.79     0.062 A 
HETATM    7  N4    D T 526      11.137  -5.281   3.510  0.85 42.34    -0.294 N 
HETATM    8  C18   D T 526      12.383  -4.484   3.277  0.85 43.53     0.134 C 
HETATM    9  C19   D T 526      11.037  -6.047   4.662  0.85 41.43     0.261 A 
HETATM   10  O1    D T 526      11.968  -6.061   5.469  0.85 42.98    -0.267 OA
HETATM   11  C20   D T 526       9.883  -6.785   4.891  0.85 40.93     0.061 A 
HETATM   12  C21   D T 526       8.797  -6.797   4.000  0.85 40.09     0.006 A 
HETATM   13  C22   D T 526       7.685  -7.592   4.385  0.85 38.51     0.001 A 
HETATM   14  C23   D T 526       7.184  -8.627   3.606  0.85 37.22     0.011 A 
HETATM   15  C24   D T 526       6.104  -9.377   4.066  0.85 38.32     0.058 A 
HETATM   16 CL2    D T 526       5.539 -10.664   3.085  0.85 39.14    -0.082 Cl
HETATM   17  C25   D T 526       5.481  -9.125   5.299  0.85 38.76     0.011 A 
HETATM   18  C26   D T 526       5.964  -8.086   6.097  0.85 39.13     0.001 A 
HETATM   19  C27   D T 526       7.054  -7.337   5.618  0.85 40.58     0.000 A 
ENDROOT
BRANCH   1  20
HETATM   20  C5    D T 526       6.845  -5.179  -0.370  0.85 35.96     0.342 C 
HETATM   21  N3    D T 526       6.255  -3.818  -0.494  0.85 33.38     0.629 N 
BRANCH  20  22
HETATM   22  C4    D T 526       7.590  -5.429  -1.711  0.85 36.74     0.100 A 
HETATM   23  N1    D T 526       7.159  -5.163  -2.934  0.85 38.12    -0.308 N 
HETATM   24  C1    D T 526       5.837  -4.557  -3.325  0.85 35.33     0.132 C 
HETATM   25  C2    D T 526       8.101  -5.535  -3.798  0.85 38.34     0.178 A 
HETATM   26  N2    D T 526       9.126  -6.016  -3.100  0.85 36.49    -0.223 NA
HETATM   27  C3    D T 526       8.808  -5.962  -1.819  0.85 36.47     0.116 A 
ENDBRANCH  20  22
BRANCH  20  28
HETATM   28  C6    D T 526       5.881  -6.362  -0.030  0.85 36.17     0.021 A 
HETATM   29  C7    D T 526       5.020  -6.301   1.076  0.85 36.92    -0.001 A 
HETATM   30  C8    D T 526       4.111  -7.334   1.367  0.85 39.20     0.011 A 
HETATM   31  C9    D T 526       4.040  -8.457   0.533  0.85 42.64     0.058 A 
HETATM   32 CL1    D T 526       2.922  -9.758   0.871  0.85 49.10    -0.082 Cl
HETATM   33  C10   D T 526       4.879  -8.531  -0.589  0.85 40.97     0.011 A 
HETATM   34  C11   D T 526       5.779  -7.487  -0.871  0.85 38.69    -0.001 A 
ENDBRANCH  20  28
ENDBRANCH   1  20
TORSDOF 3
ENDMDL
MODEL 5
REMARK VINA RESULT:    -8.646      3.504      6.673
REMARK INTER + INTRA:         -10.517
REMARK INTER:                  -9.940
REMARK INTRA:                  -0.578
REMARK UNBOUND:                -0.355
REMARK  3 active torsions:
REMARK  status: ('A' for Active; 'I' for Inactive)
REMARK    1  A    between atoms: C4_6  and  C5_7 
REMARK    2  A    between atoms: C5_7  and  C6_8 
REMARK    3  A    between atoms: C5_7  and  C12_16 
ROOT
HETATM    1  C12   D T 526       6.256  -8.459   4.627  0.85 36.74     0.021 A 
HETATM    2  C13   D T 526       6.693  -7.694   3.539  0.85 36.68    -0.000 A 
HETATM    3  C14   D T 526       5.907  -7.560   2.382  0.85 39.54     0.016 A 
HETATM    4  C15   D T 526       5.009  -9.110   4.547  0.85 39.08    -0.000 A 
HETATM    5  C16   D T 526       4.217  -8.998   3.406  0.85 40.00     0.017 A 
HETATM    6  C17   D T 526       4.658  -8.225   2.326  0.85 40.79     0.062 A 
HETATM    7  N4    D T 526       3.832  -8.117   1.177  0.85 42.34    -0.294 N 
HETATM    8  C18   D T 526       2.506  -8.807   1.104  0.85 43.53     0.134 C 
HETATM    9  C19   D T 526       4.254  -7.360   0.095  0.85 41.43     0.261 A 
HETATM   10  O1    D T 526       3.537  -7.268  -0.903  0.85 42.98    -0.267 OA
HETATM   11  C20   D T 526       5.480  -6.710   0.155  0.85 40.93     0.061 A 
HETATM   12  C21   D T 526       6.328  -6.785   1.273  0.85 40.09     0.006 A 
HETATM   13  C22   D T 526       7.541  -6.053   1.183  0.85 38.51     0.001 A 
HETATM   14  C23   D T 526       8.794  -6.637   1.312  0.85 37.22     0.011 A 
HETATM   15  C24   D T 526       9.938  -5.853   1.187  0.85 38.32     0.058 A 
HETATM   16 CL2    D T 526      11.464  -6.624   1.324  0.85 39.14    -0.082 Cl
HETATM   17  C25   D T 526       9.884  -4.472   0.941  0.85 38.76     0.011 A 
HETATM   18  C26   D T 526       8.635  -3.860   0.813  0.85 39.13     0.001 A 
HETATM   19  C27   D T 526       7.488  -4.665   0.943  0.85 40.58     0.000 A 
ENDROOT
BRANCH   1  20
HETATM   20  C5    D T 526       7.139  -8.654   5.896  0.85 35.96     0.342 C 
HETATM   21  N3    D T 526       6.319  -9.137   7.040  0.85 33.38     0.629 N 
BRANCH  20  22
HETATM   22  C4    D T 526       8.084  -9.834   5.538  0.85 36.74     0.100 A 
HETATM   23  N1    D T 526       9.061 -10.337   6.277  0.85 38.12    -0.308 N 
HETATM   24  C1    D T 526       9.498  -9.883   7.645  0.85 35.33     0.132 C 
HETATM   25  C2    D T 526       9.625 -11.335   5.600  0.85 38.34     0.178 A 
HETATM   26  N2    D T 526       8.978 -11.458   4.444  0.85 36.49    -0.223 NA
HETATM   27  C3    D T 526       8.040 -10.530   4.401  0.85 36.47     0.116 A 
ENDBRANCH  20  22
BRANCH  20  28
HETATM   28  C6    D T 526       7.941  -7.325   6.085  0.85 36.17     0.021 A 
HETATM   29  C7    D T 526       7.845  -6.583   7.271  0.85 36.92    -0.001 A 
HETATM   30  C8    D T 526       8.598  -5.413   7.478  0.85 39.20     0.011 A 
HETATM   31  C9    D T 526       9.485  -4.968   6.488  0.85 42.64     0.058 A 
HETATM   32 CL1    D T 526      10.432  -3.517   6.715  0.85 49.10    -0.082 Cl
HETATM   33  C10   D T 526       9.611  -5.706   5.301  0.85 40.97     0.011 A 
HETATM   34  C11   D T 526       8.856  -6.878   5.112  0.85 38.69    -0.001 A 
ENDBRANCH  20  28
ENDBRANCH   1  20
TORSDOF 3
ENDMDL
MODEL 6
REMARK VINA RESULT:    -8.541      2.099      3.281
REMARK INTER + INTRA:         -10.394
REMARK INTER:                  -9.811
REMARK INTRA:                  -0.584
REMARK UNBOUND:                -0.355
REMARK  3 active torsions:
REMARK  status: ('A' for Active; 'I' for Inactive)
REMARK    1  A    between atoms: C4_6  and  C5_7 
REMARK    2  A    between atoms: C5_7  and  C6_8 
REMARK    3  A    between atoms: C5_7  and  C12_16 
ROOT
HETATM    1  C12   D T 526       8.054  -5.819   1.971  0.85 36.74     0.021 A 
HETATM    2  C13   D T 526       7.484  -6.704   2.894  0.85 36.68    -0.000 A 
HETATM    3  C14   D T 526       7.929  -6.753   4.225  0.85 39.54     0.016 A 
HETATM    4  C15   D T 526       9.099  -4.972   2.393  0.85 39.08    -0.000 A 
HETATM    5  C16   D T 526       9.561  -5.009   3.706  0.85 40.00     0.017 A 
HETATM    6  C17   D T 526       8.981  -5.891   4.624  0.85 40.79     0.062 A 
HETATM    7  N4    D T 526       9.462  -5.906   5.959  0.85 42.34    -0.294 N 
HETATM    8  C18   D T 526      10.567  -4.998   6.399  0.85 43.53     0.134 C 
HETATM    9  C19   D T 526       8.902  -6.778   6.882  0.85 41.43     0.261 A 
HETATM   10  O1    D T 526       9.321  -6.792   8.040  0.85 42.98    -0.267 OA
HETATM   11  C20   D T 526       7.871  -7.620   6.485  0.85 40.93     0.061 A 
HETATM   12  C21   D T 526       7.361  -7.636   5.177  0.85 40.09     0.006 A 
HETATM   13  C22   D T 526       6.298  -8.546   4.935  0.85 38.51     0.001 A 
HETATM   14  C23   D T 526       6.354  -9.543   3.970  0.85 37.22     0.011 A 
HETATM   15  C24   D T 526       5.278 -10.411   3.811  0.85 38.32     0.058 A 
HETATM   16 CL2    D T 526       5.404 -11.645   2.627  0.85 39.14    -0.082 Cl
HETATM   17  C25   D T 526       4.112 -10.320   4.588  0.85 38.76     0.011 A 
HETATM   18  C26   D T 526       4.030  -9.321   5.561  0.85 39.13     0.001 A 
HETATM   19  C27   D T 526       5.125  -8.451   5.709  0.85 40.58     0.000 A 
ENDROOT
BRANCH   1  20
HETATM   20  C5    D T 526       7.602  -5.790   0.480  0.85 35.96     0.342 C 
HETATM   21  N3    D T 526       7.241  -4.407   0.065  0.85 33.38     0.629 N 
BRANCH  20  22
HETATM   22  C4    D T 526       8.883  -6.142  -0.325  0.85 36.74     0.100 A 
HETATM   23  N1    D T 526       9.054  -6.078  -1.636  0.85 38.12    -0.308 N 
HETATM   24  C1    D T 526       8.043  -5.656  -2.670  0.85 35.33     0.132 C 
HETATM   25  C2    D T 526      10.296  -6.469  -1.914  0.85 38.34     0.178 A 
HETATM   26  N2    D T 526      10.899  -6.757  -0.764  0.85 36.49    -0.223 NA
HETATM   27  C3    D T 526      10.029  -6.567   0.211  0.85 36.47     0.116 A 
ENDBRANCH  20  22
BRANCH  20  28
HETATM   28  C6    D T 526       6.514  -6.903   0.326  0.85 36.17     0.021 A 
HETATM   29  C7    D T 526       5.152  -6.579   0.246  0.85 36.92    -0.001 A 
HETATM   30  C8    D T 526       4.165  -7.563   0.056  0.85 39.20     0.011 A 
HETATM   31  C9    D T 526       4.536  -8.908  -0.073  0.85 42.64     0.058 A 
HETATM   32 CL1    D T 526       3.331 -10.154  -0.308  0.85 49.10    -0.082 Cl
HETATM   33  C10   D T 526       5.894  -9.252  -0.015  0.85 40.97     0.011 A 
HETATM   34  C11   D T 526       6.871  -8.256   0.169  0.85 38.69    -0.001 A 
ENDBRANCH  20  28
ENDBRANCH   1  20
TORSDOF 3
ENDMDL
MODEL 7
REMARK VINA RESULT:    -8.191      2.681      6.251
REMARK INTER + INTRA:          -9.983
REMARK INTER:                 -10.164
REMARK INTRA:                   0.181
REMARK UNBOUND:                -0.355
REMARK  3 active torsions:
REMARK  status: ('A' for Active; 'I' for Inactive)
REMARK    1  A    between atoms: C4_6  and  C5_7 
REMARK    2  A    between atoms: C5_7  and  C6_8 
REMARK    3  A    between atoms: C5_7  and  C12_16 
ROOT
HETATM    1  C12   D T 526       6.212  -8.440   4.195  0.85 36.74     0.021 A 
HETATM    2  C13   D T 526       7.129  -7.468   3.778  0.85 36.68    -0.000 A 
HETATM    3  C14   D T 526       7.851  -6.702   4.707  0.85 39.54     0.016 A 
HETATM    4  C15   D T 526       6.011  -8.640   5.577  0.85 39.08    -0.000 A 
HETATM    5  C16   D T 526       6.711  -7.886   6.516  0.85 40.00     0.017 A 
HETATM    6  C17   D T 526       7.631  -6.921   6.089  0.85 40.79     0.062 A 
HETATM    7  N4    D T 526       8.338  -6.170   7.063  0.85 42.34    -0.294 N 
HETATM    8  C18   D T 526       8.123  -6.394   8.527  0.85 43.53     0.134 C 
HETATM    9  C19   D T 526       9.251  -5.206   6.659  0.85 41.43     0.261 A 
HETATM   10  O1    D T 526       9.864  -4.553   7.505  0.85 42.98    -0.267 OA
HETATM   11  C20   D T 526       9.463  -4.995   5.303  0.85 40.93     0.061 A 
HETATM   12  C21   D T 526       8.789  -5.718   4.304  0.85 40.09     0.006 A 
HETATM   13  C22   D T 526       9.128  -5.392   2.965  0.85 38.51     0.001 A 
HETATM   14  C23   D T 526       8.198  -4.960   2.028  0.85 37.22     0.011 A 
HETATM   15  C24   D T 526       8.615  -4.637   0.739  0.85 38.32     0.058 A 
HETATM   16 CL2    D T 526       7.437  -4.080  -0.375  0.85 39.14    -0.082 Cl
HETATM   17  C25   D T 526       9.956  -4.738   0.332  0.85 38.76     0.011 A 
HETATM   18  C26   D T 526      10.908  -5.175   1.255  0.85 39.13     0.001 A 
HETATM   19  C27   D T 526      10.471  -5.499   2.552  0.85 40.58     0.000 A 
ENDROOT
BRANCH   1  20
HETATM   20  C5    D T 526       5.371  -9.262   3.175  0.85 35.96     0.342 C 
HETATM   21  N3    D T 526       3.946  -9.332   3.600  0.85 33.38     0.629 N 
BRANCH  20  22
HETATM   22  C4    D T 526       5.374  -8.402   1.881  0.85 36.74     0.100 A 
HETATM   23  N1    D T 526       6.342  -8.300   0.983  0.85 38.12    -0.308 N 
HETATM   24  C1    D T 526       7.681  -8.989   1.001  0.85 35.33     0.132 C 
HETATM   25  C2    D T 526       5.942  -7.458   0.033  0.85 38.34     0.178 A 
HETATM   26  N2    D T 526       4.713  -7.054   0.339  0.85 36.49    -0.223 NA
HETATM   27  C3    D T 526       4.368  -7.624   1.479  0.85 36.47     0.116 A 
ENDBRANCH  20  22
BRANCH  20  28
HETATM   28  C6    D T 526       6.132 -10.611   2.958  0.85 36.17     0.021 A 
HETATM   29  C7    D T 526       7.262 -10.936   3.723  0.85 36.92    -0.001 A 
HETATM   30  C8    D T 526       7.929 -12.166   3.577  0.85 39.20     0.011 A 
HETATM   31  C9    D T 526       7.458 -13.111   2.655  0.85 42.64     0.058 A 
HETATM   32 CL1    D T 526       8.267 -14.647   2.450  0.85 49.10    -0.082 Cl
HETATM   33  C10   D T 526       6.318 -12.814   1.894  0.85 40.97     0.011 A 
HETATM   34  C11   D T 526       5.658 -11.582   2.056  0.85 38.69    -0.001 A 
ENDBRANCH  20  28
ENDBRANCH   1  20
TORSDOF 3
ENDMDL
MODEL 8
REMARK VINA RESULT:    -8.113      2.901      6.090
REMARK INTER + INTRA:          -9.891
REMARK INTER:                  -9.802
REMARK INTRA:                  -0.090
REMARK UNBOUND:                -0.355
REMARK  3 active torsions:
REMARK  status: ('A' for Active; 'I' for Inactive)
REMARK    1  A    between atoms: C4_6  and  C5_7 
REMARK    2  A    between atoms: C5_7  and  C6_8 
REMARK    3  A    between atoms: C5_7  and  C12_16 
ROOT
HETATM    1  C12   D T 526       6.525  -9.162   3.615  0.85 36.74     0.021 A 
HETATM    2  C13   D T 526       7.288  -8.002   3.446  0.85 36.68    -0.000 A 
HETATM    3  C14   D T 526       7.731  -7.254   4.550  0.85 39.54     0.016 A 
HETATM    4  C15   D T 526       6.192  -9.577   4.921  0.85 39.08    -0.000 A 
HETATM    5  C16   D T 526       6.614  -8.846   6.030  0.85 40.00     0.017 A 
HETATM    6  C17   D T 526       7.383  -7.691   5.851  0.85 40.79     0.062 A 
HETATM    7  N4    D T 526       7.809  -6.967   6.995  0.85 42.34    -0.294 N 
HETATM    8  C18   D T 526       7.456  -7.418   8.378  0.85 43.53     0.134 C 
HETATM    9  C19   D T 526       8.568  -5.817   6.838  0.85 41.43     0.261 A 
HETATM   10  O1    D T 526       8.936  -5.188   7.832  0.85 42.98    -0.267 OA
HETATM   11  C20   D T 526       8.906  -5.393   5.559  0.85 40.93     0.061 A 
HETATM   12  C21   D T 526       8.510  -6.081   4.399  0.85 40.09     0.006 A 
HETATM   13  C22   D T 526       8.949  -5.526   3.168  0.85 38.51     0.001 A 
HETATM   14  C23   D T 526       8.080  -5.138   2.157  0.85 37.22     0.011 A 
HETATM   15  C24   D T 526       8.588  -4.579   0.987  0.85 38.32     0.058 A 
HETATM   16 CL2    D T 526       7.477  -4.087  -0.222  0.85 39.14    -0.082 Cl
HETATM   17  C25   D T 526       9.964  -4.394   0.774  0.85 38.76     0.011 A 
HETATM   18  C26   D T 526      10.857  -4.782   1.774  0.85 39.13     0.001 A 
HETATM   19  C27   D T 526      10.329  -5.346   2.950  0.85 40.58     0.000 A 
ENDROOT
BRANCH   1  20
HETATM   20  C5    D T 526       5.987  -9.973   2.398  0.85 35.96     0.342 C 
HETATM   21  N3    D T 526       4.909 -10.907   2.820  0.85 33.38     0.629 N 
BRANCH  20  22
HETATM   22  C4    D T 526       5.289  -8.914   1.500  0.85 36.74     0.100 A 
HETATM   23  N1    D T 526       4.081  -8.396   1.656  0.85 38.12    -0.308 N 
HETATM   24  C1    D T 526       3.084  -8.712   2.741  0.85 35.33     0.132 C 
HETATM   25  C2    D T 526       3.868  -7.530   0.668  0.85 38.34     0.178 A 
HETATM   26  N2    D T 526       4.960  -7.502  -0.090  0.85 36.49    -0.223 NA
HETATM   27  C3    D T 526       5.828  -8.360   0.413  0.85 36.47     0.116 A 
ENDBRANCH  20  22
BRANCH  20  28
HETATM   28  C6    D T 526       7.239 -10.581   1.684  0.85 36.17     0.021 A 
HETATM   29  C7    D T 526       7.107 -11.350   0.519  0.85 36.92    -0.001 A 
HETATM   30  C8    D T 526       8.224 -11.863  -0.164  0.85 39.20     0.011 A 
HETATM   31  C9    D T 526       9.516 -11.595   0.311  0.85 42.64     0.058 A 
HETATM   32 CL1    D T 526      10.924 -12.219  -0.515  0.85 49.10    -0.082 Cl
HETATM   33  C10   D T 526       9.672 -10.811   1.463  0.85 40.97     0.011 A 
HETATM   34  C11   D T 526       8.544 -10.301   2.132  0.85 38.69    -0.001 A 
ENDBRANCH  20  28
ENDBRANCH   1  20
TORSDOF 3
ENDMDL
MODEL 9
REMARK VINA RESULT:    -8.017      3.968      7.544
REMARK INTER + INTRA:          -9.778
REMARK INTER:                  -9.546
REMARK INTRA:                  -0.232
REMARK UNBOUND:                -0.355
REMARK  3 active torsions:
REMARK  status: ('A' for Active; 'I' for Inactive)
REMARK    1  A    between atoms: C4_6  and  C5_7 
REMARK    2  A    between atoms: C5_7  and  C6_8 
REMARK    3  A    between atoms: C5_7  and  C12_16 
ROOT
HETATM    1  C12   D T 526      10.680  -6.362   4.487  0.85 36.74     0.021 A 
HETATM    2  C13   D T 526      10.336  -6.094   3.157  0.85 36.68    -0.000 A 
HETATM    3  C14   D T 526      11.295  -6.148   2.132  0.85 39.54     0.016 A 
HETATM    4  C15   D T 526      12.018  -6.683   4.794  0.85 39.08    -0.000 A 
HETATM    5  C16   D T 526      12.987  -6.735   3.794  0.85 40.00     0.017 A 
HETATM    6  C17   D T 526      12.632  -6.472   2.467  0.85 40.79     0.062 A 
HETATM    7  N4    D T 526      13.633  -6.538   1.463  0.85 42.34    -0.294 N 
HETATM    8  C18   D T 526      15.050  -6.886   1.798  0.85 43.53     0.134 C 
HETATM    9  C19   D T 526      13.302  -6.277   0.142  0.85 41.43     0.261 A 
HETATM   10  O1    D T 526      14.172  -6.333  -0.729  0.85 42.98    -0.267 OA
HETATM   11  C20   D T 526      11.989  -5.959  -0.181  0.85 40.93     0.061 A 
HETATM   12  C21   D T 526      10.965  -5.887   0.778  0.85 40.09     0.006 A 
HETATM   13  C22   D T 526       9.673  -5.563   0.285  0.85 38.51     0.001 A 
HETATM   14  C23   D T 526       8.943  -4.467   0.726  0.85 37.22     0.011 A 
HETATM   15  C24   D T 526       7.692  -4.204   0.175  0.85 38.32     0.058 A 
HETATM   16 CL2    D T 526       6.840  -2.823   0.728  0.85 39.14    -0.082 Cl
HETATM   17  C25   D T 526       7.118  -5.015  -0.819  0.85 38.76     0.011 A 
HETATM   18  C26   D T 526       7.831  -6.126  -1.273  0.85 39.13     0.001 A 
HETATM   19  C27   D T 526       9.094  -6.380  -0.706  0.85 40.58     0.000 A 
ENDROOT
BRANCH   1  20
HETATM   20  C5    D T 526       9.636  -6.258   5.638  0.85 35.96     0.342 C 
HETATM   21  N3    D T 526       8.317  -5.809   5.117  0.85 33.38     0.629 N 
BRANCH  20  22
HETATM   22  C4    D T 526       9.419  -7.725   6.103  0.85 36.74     0.100 A 
HETATM   23  N1    D T 526       8.519  -8.173   6.964  0.85 38.12    -0.308 N 
HETATM   24  C1    D T 526       7.488  -7.367   7.710  0.85 35.33     0.132 C 
HETATM   25  C2    D T 526       8.674  -9.489   7.084  0.85 38.34     0.178 A 
HETATM   26  N2    D T 526       9.665  -9.856   6.276  0.85 36.49    -0.223 NA
HETATM   27  C3    D T 526      10.131  -8.772   5.683  0.85 36.47     0.116 A 
ENDBRANCH  20  22
BRANCH  20  28
HETATM   28  C6    D T 526      10.304  -5.402   6.764  0.85 36.17     0.021 A 
HETATM   29  C7    D T 526      10.266  -4.001   6.728  0.85 36.92    -0.001 A 
HETATM   30  C8    D T 526      10.816  -3.216   7.757  0.85 39.20     0.011 A 
HETATM   31  C9    D T 526      11.411  -3.835   8.865  0.85 42.64     0.058 A 
HETATM   32 CL1    D T 526      12.105  -2.886  10.159  0.85 49.10    -0.082 Cl
HETATM   33  C10   D T 526      11.443  -5.235   8.931  0.85 40.97     0.011 A 
HETATM   34  C11   D T 526      10.882  -6.007   7.897  0.85 38.69    -0.001 A 
ENDBRANCH  20  28
ENDBRANCH   1  20
TORSDOF 3
ENDMDL
