MODEL 1
REMARK VINA RESULT:    -8.728      0.000      0.000
REMARK INTER + INTRA:         -10.938
REMARK INTER:                 -10.259
REMARK INTRA:                  -0.679
REMARK UNBOUND:                -0.679
REMARK  3 active torsions:
REMARK  status: ('A' for Active; 'I' for Inactive)
REMARK    1  A    between atoms: C4_6  and  C5_7 
REMARK    2  A    between atoms: C5_7  and  C6_8 
REMARK    3  A    between atoms: C5_7  and  C12_16 
ROOT
HETATM    1  C12   D T 526       4.682  -7.344   3.283  0.85 36.74     0.021 A 
HETATM    2  C13   D T 526       5.840  -6.587   3.073  0.85 36.68    -0.000 A 
HETATM    3  C14   D T 526       6.119  -6.017   1.821  0.85 39.54     0.016 A 
HETATM    4  C15   D T 526       3.788  -7.538   2.209  0.85 39.08    -0.000 A 
HETATM    5  C16   D T 526       4.050  -6.986   0.956  0.85 40.00     0.017 A 
HETATM    6  C17   D T 526       5.208  -6.226   0.757  0.85 40.79     0.062 A 
HETATM    7  N4    D T 526       5.448  -5.668  -0.524  0.85 42.34    -0.294 N 
HETATM    8  C18   D T 526       4.492  -5.872  -1.656  0.85 43.53     0.134 C 
HETATM    9  C19   D T 526       6.594  -4.915  -0.741  0.85 41.43     0.261 A 
HETATM   10  O1    D T 526       6.804  -4.431  -1.855  0.85 42.98    -0.267 OA
HETATM   11  C20   D T 526       7.486  -4.712   0.304  0.85 40.93     0.061 A 
HETATM   12  C21   D T 526       7.284  -5.243   1.591  0.85 40.09     0.006 A 
HETATM   13  C22   D T 526       8.281  -4.933   2.552  0.85 38.51     0.001 A 
HETATM   14  C23   D T 526       9.001  -5.902   3.238  0.85 37.22     0.011 A 
HETATM   15  C24   D T 526       9.981  -5.517   4.150  0.85 38.32     0.058 A 
HETATM   16 CL2    D T 526      10.866  -6.748   4.951  0.85 39.14    -0.082 Cl
HETATM   17  C25   D T 526      10.275  -4.170   4.420  0.85 38.76     0.011 A 
HETATM   18  C26   D T 526       9.558  -3.179   3.748  0.85 39.13     0.001 A 
HETATM   19  C27   D T 526       8.571  -3.583   2.830  0.85 40.58     0.000 A 
ENDROOT
BRANCH   1  20
HETATM   20  C5    D T 526       4.385  -8.022   4.653  0.85 35.96     0.342 C 
HETATM   21  N3    D T 526       2.924  -8.252   4.824  0.85 33.38     0.629 N 
BRANCH  20  22
HETATM   22  C4    D T 526       5.015  -9.437   4.535  0.85 36.74     0.100 A 
HETATM   23  N1    D T 526       5.171 -10.333   5.497  0.85 38.12    -0.308 N 
HETATM   24  C1    D T 526       4.781 -10.196   6.946  0.85 35.33     0.132 C 
HETATM   25  C2    D T 526       5.756 -11.409   4.975  0.85 38.34     0.178 A 
HETATM   26  N2    D T 526       5.943 -11.180   3.678  0.85 36.49    -0.223 NA
HETATM   27  C3    D T 526       5.499  -9.965   3.409  0.85 36.47     0.116 A 
ENDBRANCH  20  22
BRANCH  20  28
HETATM   28  C6    D T 526       5.119  -7.167   5.738  0.85 36.17     0.021 A 
HETATM   29  C7    D T 526       4.399  -6.449   6.705  0.85 36.92    -0.001 A 
HETATM   30  C8    D T 526       5.043  -5.715   7.716  0.85 39.20     0.011 A 
HETATM   31  C9    D T 526       6.443  -5.700   7.786  0.85 42.64     0.058 A 
HETATM   32 CL1    D T 526       7.273  -4.797   9.032  0.85 49.10    -0.082 Cl
HETATM   33  C10   D T 526       7.182  -6.429   6.840  0.85 40.97     0.011 A 
HETATM   34  C11   D T 526       6.524  -7.161   5.837  0.85 38.69    -0.001 A 
ENDBRANCH  20  28
ENDBRANCH   1  20
TORSDOF 3
ENDMDL
MODEL 2
REMARK VINA RESULT:    -8.403      3.824      7.459
REMARK INTER + INTRA:         -10.556
REMARK INTER:                 -10.275
REMARK INTRA:                  -0.281
REMARK UNBOUND:                -0.679
REMARK  3 active torsions:
REMARK  status: ('A' for Active; 'I' for Inactive)
REMARK    1  A    between atoms: C4_6  and  C5_7 
REMARK    2  A    between atoms: C5_7  and  C6_8 
REMARK    3  A    between atoms: C5_7  and  C12_16 
ROOT
HETATM    1  C12   D T 526       8.505  -4.648   4.831  0.85 36.74     0.021 A 
HETATM    2  C13   D T 526       7.445  -5.559   4.915  0.85 36.68    -0.000 A 
HETATM    3  C14   D T 526       6.865  -5.887   6.150  0.85 39.54     0.016 A 
HETATM    4  C15   D T 526       8.995  -4.060   6.015  0.85 39.08    -0.000 A 
HETATM    5  C16   D T 526       8.437  -4.377   7.253  0.85 40.00     0.017 A 
HETATM    6  C17   D T 526       7.375  -5.285   7.325  0.85 40.79     0.062 A 
HETATM    7  N4    D T 526       6.818  -5.586   8.595  0.85 42.34    -0.294 N 
HETATM    8  C18   D T 526       7.340  -4.952   9.846  0.85 43.53     0.134 C 
HETATM    9  C19   D T 526       5.767  -6.487   8.688  0.85 41.43     0.261 A 
HETATM   10  O1    D T 526       5.284  -6.750   9.790  0.85 42.98    -0.267 OA
HETATM   11  C20   D T 526       5.269  -7.076   7.532  0.85 40.93     0.061 A 
HETATM   12  C21   D T 526       5.787  -6.803   6.254  0.85 40.09     0.006 A 
HETATM   13  C22   D T 526       5.160  -7.476   5.173  0.85 38.51     0.001 A 
HETATM   14  C23   D T 526       5.844  -8.305   4.295  0.85 37.22     0.011 A 
HETATM   15  C24   D T 526       5.152  -8.949   3.273  0.85 38.32     0.058 A 
HETATM   16 CL2    D T 526       6.032  -9.987   2.230  0.85 39.14    -0.082 Cl
HETATM   17  C25   D T 526       3.769  -8.790   3.080  0.85 38.76     0.011 A 
HETATM   18  C26   D T 526       3.061  -7.955   3.946  0.85 39.13     0.001 A 
HETATM   19  C27   D T 526       3.775  -7.310   4.974  0.85 40.58     0.000 A 
ENDROOT
BRANCH   1  20
HETATM   20  C5    D T 526       9.188  -4.311   3.473  0.85 35.96     0.342 C 
HETATM   21  N3    D T 526       9.925  -3.021   3.557  0.85 33.38     0.629 N 
BRANCH  20  22
HETATM   22  C4    D T 526      10.282  -5.402   3.305  0.85 36.74     0.100 A 
HETATM   23  N1    D T 526      11.374  -5.341   2.559  0.85 38.12    -0.308 N 
HETATM   24  C1    D T 526      11.818  -4.199   1.682  0.85 35.33     0.132 C 
HETATM   25  C2    D T 526      12.039  -6.486   2.695  0.85 38.34     0.178 A 
HETATM   26  N2    D T 526      11.360  -7.250   3.547  0.85 36.49    -0.223 NA
HETATM   27  C3    D T 526      10.276  -6.589   3.914  0.85 36.47     0.116 A 
ENDBRANCH  20  22
BRANCH  20  28
HETATM   28  C6    D T 526       8.083  -4.448   2.375  0.85 36.17     0.021 A 
HETATM   29  C7    D T 526       6.883  -3.726   2.460  0.85 36.92    -0.001 A 
HETATM   30  C8    D T 526       5.901  -3.799   1.457  0.85 39.20     0.011 A 
HETATM   31  C9    D T 526       6.113  -4.599   0.326  0.85 42.64     0.058 A 
HETATM   32 CL1    D T 526       4.910  -4.710  -0.936  0.85 49.10    -0.082 Cl
HETATM   33  C10   D T 526       7.315  -5.314   0.212  0.85 40.97     0.011 A 
HETATM   34  C11   D T 526       8.291  -5.228   1.220  0.85 38.69    -0.001 A 
ENDBRANCH  20  28
ENDBRANCH   1  20
TORSDOF 3
ENDMDL
MODEL 3
REMARK VINA RESULT:    -7.706      2.888      5.624
REMARK INTER + INTRA:          -9.736
REMARK INTER:                  -9.059
REMARK INTRA:                  -0.677
REMARK UNBOUND:                -0.679
REMARK  3 active torsions:
REMARK  status: ('A' for Active; 'I' for Inactive)
REMARK    1  A    between atoms: C4_6  and  C5_7 
REMARK    2  A    between atoms: C5_7  and  C6_8 
REMARK    3  A    between atoms: C5_7  and  C12_16 
ROOT
HETATM    1  C12   D T 526       9.162  -6.013   2.696  0.85 36.74     0.021 A 
HETATM    2  C13   D T 526       7.788  -6.276   2.749  0.85 36.68    -0.000 A 
HETATM    3  C14   D T 526       6.962  -6.050   1.637  0.85 39.54     0.016 A 
HETATM    4  C15   D T 526       9.715  -5.506   1.503  0.85 39.08    -0.000 A 
HETATM    5  C16   D T 526       8.911  -5.269   0.389  0.85 40.00     0.017 A 
HETATM    6  C17   D T 526       7.540  -5.539   0.450  0.85 40.79     0.062 A 
HETATM    7  N4    D T 526       6.743  -5.298  -0.699  0.85 42.34    -0.294 N 
HETATM    8  C18   D T 526       7.339  -4.766  -1.964  0.85 43.53     0.134 C 
HETATM    9  C19   D T 526       5.380  -5.556  -0.656  0.85 41.43     0.261 A 
HETATM   10  O1    D T 526       4.688  -5.345  -1.653  0.85 42.98    -0.267 OA
HETATM   11  C20   D T 526       4.817  -6.057   0.511  0.85 40.93     0.061 A 
HETATM   12  C21   D T 526       5.570  -6.316   1.669  0.85 40.09     0.006 A 
HETATM   13  C22   D T 526       4.848  -6.839   2.774  0.85 38.51     0.001 A 
HETATM   14  C23   D T 526       4.809  -6.221   4.016  0.85 37.22     0.011 A 
HETATM   15  C24   D T 526       4.057  -6.785   5.044  0.85 38.32     0.058 A 
HETATM   16 CL2    D T 526       4.013  -5.972   6.553  0.85 39.14    -0.082 Cl
HETATM   17  C25   D T 526       3.330  -7.977   4.883  0.85 38.76     0.011 A 
HETATM   18  C26   D T 526       3.361  -8.619   3.644  0.85 39.13     0.001 A 
HETATM   19  C27   D T 526       4.125  -8.038   2.615  0.85 40.58     0.000 A 
ENDROOT
BRANCH   1  20
HETATM   20  C5    D T 526      10.081  -6.214   3.937  0.85 35.96     0.342 C 
HETATM   21  N3    D T 526      11.322  -6.946   3.563  0.85 33.38     0.629 N 
BRANCH  20  22
HETATM   22  C4    D T 526      10.546  -4.781   4.316  0.85 36.74     0.100 A 
HETATM   23  N1    D T 526      11.376  -4.432   5.287  0.85 38.12    -0.308 N 
HETATM   24  C1    D T 526      12.068  -5.342   6.268  0.85 35.33     0.132 C 
HETATM   25  C2    D T 526      11.503  -3.107   5.273  0.85 38.34     0.178 A 
HETATM   26  N2    D T 526      10.761  -2.639   4.274  0.85 36.49    -0.223 NA
HETATM   27  C3    D T 526      10.164  -3.664   3.693  0.85 36.47     0.116 A 
ENDBRANCH  20  22
BRANCH  20  28
HETATM   28  C6    D T 526       9.182  -6.830   5.059  0.85 36.17     0.021 A 
HETATM   29  C7    D T 526       8.369  -6.019   5.865  0.85 36.92    -0.001 A 
HETATM   30  C8    D T 526       7.519  -6.561   6.844  0.85 39.20     0.011 A 
HETATM   31  C9    D T 526       7.455  -7.949   7.025  0.85 42.64     0.058 A 
HETATM   32 CL1    D T 526       6.407  -8.652   8.234  0.85 49.10    -0.082 Cl
HETATM   33  C10   D T 526       8.245  -8.780   6.215  0.85 40.97     0.011 A 
HETATM   34  C11   D T 526       9.088  -8.225   5.237  0.85 38.69    -0.001 A 
ENDBRANCH  20  28
ENDBRANCH   1  20
TORSDOF 3
ENDMDL
MODEL 4
REMARK VINA RESULT:    -7.439      4.288      8.044
REMARK INTER + INTRA:          -9.423
REMARK INTER:                  -8.734
REMARK INTRA:                  -0.689
REMARK UNBOUND:                -0.679
REMARK  3 active torsions:
REMARK  status: ('A' for Active; 'I' for Inactive)
REMARK    1  A    between atoms: C4_6  and  C5_7 
REMARK    2  A    between atoms: C5_7  and  C6_8 
REMARK    3  A    between atoms: C5_7  and  C12_16 
ROOT
HETATM    1  C12   D T 526       9.841  -4.073   5.680  0.85 36.74     0.021 A 
HETATM    2  C13   D T 526       8.669  -4.760   6.017  0.85 36.68    -0.000 A 
HETATM    3  C14   D T 526       8.323  -4.993   7.358  0.85 39.54     0.016 A 
HETATM    4  C15   D T 526      10.686  -3.616   6.712  0.85 39.08    -0.000 A 
HETATM    5  C16   D T 526      10.364  -3.843   8.049  0.85 40.00     0.017 A 
HETATM    6  C17   D T 526       9.188  -4.526   8.377  0.85 40.79     0.062 A 
HETATM    7  N4    D T 526       8.877  -4.737   9.744  0.85 42.34    -0.294 N 
HETATM    8  C18   D T 526       9.776  -4.244  10.834  0.85 43.53     0.134 C 
HETATM    9  C19   D T 526       7.717  -5.417  10.088  0.85 41.43     0.261 A 
HETATM   10  O1    D T 526       7.448  -5.602  11.276  0.85 42.98    -0.267 OA
HETATM   11  C20   D T 526       6.871  -5.873   9.086  0.85 40.93     0.061 A 
HETATM   12  C21   D T 526       7.137  -5.681   7.719  0.85 40.09     0.006 A 
HETATM   13  C22   D T 526       6.167  -6.195   6.820  0.85 38.51     0.001 A 
HETATM   14  C23   D T 526       6.464  -7.125   5.832  0.85 37.22     0.011 A 
HETATM   15  C24   D T 526       5.450  -7.599   5.003  0.85 38.32     0.058 A 
HETATM   16 CL2    D T 526       5.858  -8.769   3.818  0.85 39.14    -0.082 Cl
HETATM   17  C25   D T 526       4.118  -7.168   5.116  0.85 38.76     0.011 A 
HETATM   18  C26   D T 526       3.797  -6.228   6.097  0.85 39.13     0.001 A 
HETATM   19  C27   D T 526       4.832  -5.757   6.926  0.85 40.58     0.000 A 
ENDROOT
BRANCH   1  20
HETATM   20  C5    D T 526      10.260  -3.850   4.197  0.85 35.96     0.342 C 
HETATM   21  N3    D T 526      10.816  -2.483   4.004  0.85 33.38     0.629 N 
BRANCH  20  22
HETATM   22  C4    D T 526      11.455  -4.817   3.979  0.85 36.74     0.100 A 
HETATM   23  N1    D T 526      12.246  -4.897   2.919  0.85 38.12    -0.308 N 
HETATM   24  C1    D T 526      12.171  -4.073   1.660  0.85 35.33     0.132 C 
HETATM   25  C2    D T 526      13.140  -5.859   3.135  0.85 38.34     0.178 A 
HETATM   26  N2    D T 526      12.911  -6.360   4.346  0.85 36.49    -0.223 NA
HETATM   27  C3    D T 526      11.870  -5.729   4.860  0.85 36.47     0.116 A 
ENDBRANCH  20  22
BRANCH  20  28
HETATM   28  C6    D T 526       9.031  -4.266   3.322  0.85 36.17     0.021 A 
HETATM   29  C7    D T 526       8.068  -3.324   2.930  0.85 36.92    -0.001 A 
HETATM   30  C8    D T 526       6.985  -3.671   2.104  0.85 39.20     0.011 A 
HETATM   31  C9    D T 526       6.855  -4.986   1.636  0.85 42.64     0.058 A 
HETATM   32 CL1    D T 526       5.518  -5.447   0.608  0.85 49.10    -0.082 Cl
HETATM   33  C10   D T 526       7.819  -5.939   2.000  0.85 40.97     0.011 A 
HETATM   34  C11   D T 526       8.899  -5.577   2.823  0.85 38.69    -0.001 A 
ENDBRANCH  20  28
ENDBRANCH   1  20
TORSDOF 3
ENDMDL
MODEL 5
REMARK VINA RESULT:    -7.364      3.201      5.467
REMARK INTER + INTRA:          -9.335
REMARK INTER:                  -9.264
REMARK INTRA:                  -0.071
REMARK UNBOUND:                -0.679
REMARK  3 active torsions:
REMARK  status: ('A' for Active; 'I' for Inactive)
REMARK    1  A    between atoms: C4_6  and  C5_7 
REMARK    2  A    between atoms: C5_7  and  C6_8 
REMARK    3  A    between atoms: C5_7  and  C12_16 
ROOT
HETATM    1  C12   D T 526       6.370  -8.737   2.942  0.85 36.74     0.021 A 
HETATM    2  C13   D T 526       7.501  -7.996   3.306  0.85 36.68    -0.000 A 
HETATM    3  C14   D T 526       8.769  -8.594   3.381  0.85 39.54     0.016 A 
HETATM    4  C15   D T 526       6.517 -10.110   2.653  0.85 39.08    -0.000 A 
HETATM    5  C16   D T 526       7.766 -10.724   2.728  0.85 40.00     0.017 A 
HETATM    6  C17   D T 526       8.891  -9.974   3.088  0.85 40.79     0.062 A 
HETATM    7  N4    D T 526      10.153 -10.619   3.150  0.85 42.34    -0.294 N 
HETATM    8  C18   D T 526      10.301 -12.074   2.836  0.85 43.53     0.134 C 
HETATM    9  C19   D T 526      11.279  -9.892   3.509  0.85 41.43     0.261 A 
HETATM   10  O1    D T 526      12.375 -10.453   3.564  0.85 42.98    -0.267 OA
HETATM   11  C20   D T 526      11.155  -8.539   3.796  0.85 40.93     0.061 A 
HETATM   12  C21   D T 526       9.926  -7.859   3.742  0.85 40.09     0.006 A 
HETATM   13  C22   D T 526       9.969  -6.474   4.050  0.85 38.51     0.001 A 
HETATM   14  C23   D T 526       9.225  -5.900   5.072  0.85 37.22     0.011 A 
HETATM   15  C24   D T 526       9.340  -4.535   5.327  0.85 38.32     0.058 A 
HETATM   16 CL2    D T 526       8.426  -3.875   6.618  0.85 39.14    -0.082 Cl
HETATM   17  C25   D T 526      10.184  -3.696   4.580  0.85 38.76     0.011 A 
HETATM   18  C26   D T 526      10.936  -4.250   3.543  0.85 39.13     0.001 A 
HETATM   19  C27   D T 526      10.808  -5.630   3.296  0.85 40.58     0.000 A 
ENDROOT
BRANCH   1  20
HETATM   20  C5    D T 526       4.951  -8.098   2.901  0.85 35.96     0.342 C 
HETATM   21  N3    D T 526       3.896  -9.146   2.969  0.85 33.38     0.629 N 
BRANCH  20  22
HETATM   22  C4    D T 526       4.838  -7.311   4.236  0.85 36.74     0.100 A 
HETATM   23  N1    D T 526       4.804  -7.807   5.464  0.85 38.12    -0.308 N 
HETATM   24  C1    D T 526       4.857  -9.258   5.865  0.85 35.33     0.132 C 
HETATM   25  C2    D T 526       4.699  -6.794   6.321  0.85 38.34     0.178 A 
HETATM   26  N2    D T 526       4.689  -5.666   5.616  0.85 36.49    -0.223 NA
HETATM   27  C3    D T 526       4.763  -5.983   4.336  0.85 36.47     0.116 A 
ENDBRANCH  20  22
BRANCH  20  28
HETATM   28  C6    D T 526       4.937  -7.129   1.673  0.85 36.17     0.021 A 
HETATM   29  C7    D T 526       5.886  -6.103   1.547  0.85 36.92    -0.001 A 
HETATM   30  C8    D T 526       5.918  -5.255   0.427  0.85 39.20     0.011 A 
HETATM   31  C9    D T 526       4.994  -5.434  -0.612  0.85 42.64     0.058 A 
HETATM   32 CL1    D T 526       5.010  -4.395  -2.018  0.85 49.10    -0.082 Cl
HETATM   33  C10   D T 526       4.050  -6.467  -0.516  0.85 40.97     0.011 A 
HETATM   34  C11   D T 526       4.032  -7.310   0.608  0.85 38.69    -0.001 A 
ENDBRANCH  20  28
ENDBRANCH   1  20
TORSDOF 3
ENDMDL
MODEL 6
REMARK VINA RESULT:    -7.297      3.132      5.595
REMARK INTER + INTRA:          -9.256
REMARK INTER:                  -8.920
REMARK INTRA:                  -0.336
REMARK UNBOUND:                -0.679
REMARK  3 active torsions:
REMARK  status: ('A' for Active; 'I' for Inactive)
REMARK    1  A    between atoms: C4_6  and  C5_7 
REMARK    2  A    between atoms: C5_7  and  C6_8 
REMARK    3  A    between atoms: C5_7  and  C12_16 
ROOT
HETATM    1  C12   D T 526       7.279  -7.767   4.549  0.85 36.74     0.021 A 
HETATM    2  C13   D T 526       7.462  -6.901   3.465  0.85 36.68    -0.000 A 
HETATM    3  C14   D T 526       8.269  -5.758   3.575  0.85 39.54     0.016 A 
HETATM    4  C15   D T 526       7.915  -7.473   5.772  0.85 39.08    -0.000 A 
HETATM    5  C16   D T 526       8.715  -6.340   5.906  0.85 40.00     0.017 A 
HETATM    6  C17   D T 526       8.896  -5.483   4.815  0.85 40.79     0.062 A 
HETATM    7  N4    D T 526       9.722  -4.340   4.971  0.85 42.34    -0.294 N 
HETATM    8  C18   D T 526      10.399  -4.039   6.271  0.85 43.53     0.134 C 
HETATM    9  C19   D T 526       9.910  -3.476   3.902  0.85 41.43     0.261 A 
HETATM   10  O1    D T 526      10.625  -2.483   4.038  0.85 42.98    -0.267 OA
HETATM   11  C20   D T 526       9.292  -3.750   2.688  0.85 40.93     0.061 A 
HETATM   12  C21   D T 526       8.471  -4.873   2.487  0.85 40.09     0.006 A 
HETATM   13  C22   D T 526       7.925  -5.017   1.185  0.85 38.51     0.001 A 
HETATM   14  C23   D T 526       6.561  -5.088   0.937  0.85 37.22     0.011 A 
HETATM   15  C24   D T 526       6.103  -5.206  -0.373  0.85 38.32     0.058 A 
HETATM   16 CL2    D T 526       4.409  -5.260  -0.634  0.85 39.14    -0.082 Cl
HETATM   17  C25   D T 526       6.972  -5.265  -1.476  0.85 38.76     0.011 A 
HETATM   18  C26   D T 526       8.348  -5.203  -1.250  0.85 39.13     0.001 A 
HETATM   19  C27   D T 526       8.796  -5.085   0.079  0.85 40.58     0.000 A 
ENDROOT
BRANCH   1  20
HETATM   20  C5    D T 526       6.348  -9.012   4.453  0.85 35.96     0.342 C 
HETATM   21  N3    D T 526       5.538  -9.163   5.693  0.85 33.38     0.629 N 
BRANCH  20  22
HETATM   22  C4    D T 526       5.331  -8.655   3.335  0.85 36.74     0.100 A 
HETATM   23  N1    D T 526       4.383  -7.731   3.372  0.85 38.12    -0.308 N 
HETATM   24  C1    D T 526       4.055  -6.804   4.514  0.85 35.33     0.132 C 
HETATM   25  C2    D T 526       3.733  -7.752   2.211  0.85 38.34     0.178 A 
HETATM   26  N2    D T 526       4.298  -8.683   1.447  0.85 36.49    -0.223 NA
HETATM   27  C3    D T 526       5.272  -9.246   2.140  0.85 36.47     0.116 A 
ENDBRANCH  20  22
BRANCH  20  28
HETATM   28  C6    D T 526       7.257 -10.212   4.027  0.85 36.17     0.021 A 
HETATM   29  C7    D T 526       8.304 -10.039   3.110  0.85 36.92    -0.001 A 
HETATM   30  C8    D T 526       9.160 -11.095   2.754  0.85 39.20     0.011 A 
HETATM   31  C9    D T 526       8.989 -12.360   3.332  0.85 42.64     0.058 A 
HETATM   32 CL1    D T 526      10.038 -13.693   2.909  0.85 49.10    -0.082 Cl
HETATM   33  C10   D T 526       7.961 -12.550   4.268  0.85 40.97     0.011 A 
HETATM   34  C11   D T 526       7.114 -11.483   4.618  0.85 38.69    -0.001 A 
ENDBRANCH  20  28
ENDBRANCH   1  20
TORSDOF 3
ENDMDL
MODEL 7
REMARK VINA RESULT:    -7.144      2.926      4.628
REMARK INTER + INTRA:          -9.076
REMARK INTER:                  -9.604
REMARK INTRA:                   0.528
REMARK UNBOUND:                -0.679
REMARK  3 active torsions:
REMARK  status: ('A' for Active; 'I' for Inactive)
REMARK    1  A    between atoms: C4_6  and  C5_7 
REMARK    2  A    between atoms: C5_7  and  C6_8 
REMARK    3  A    between atoms: C5_7  and  C12_16 
ROOT
HETATM    1  C12   D T 526       6.347  -6.647   5.000  0.85 36.74     0.021 A 
HETATM    2  C13   D T 526       6.850  -6.033   3.847  0.85 36.68    -0.000 A 
HETATM    3  C14   D T 526       7.924  -5.131   3.914  0.85 39.54     0.016 A 
HETATM    4  C15   D T 526       6.932  -6.344   6.246  0.85 39.08    -0.000 A 
HETATM    5  C16   D T 526       7.995  -5.446   6.335  0.85 40.00     0.017 A 
HETATM    6  C17   D T 526       8.494  -4.840   5.177  0.85 40.79     0.062 A 
HETATM    7  N4    D T 526       9.581  -3.936   5.291  0.85 42.34    -0.294 N 
HETATM    8  C18   D T 526      10.200  -3.624   6.616  0.85 43.53     0.134 C 
HETATM    9  C19   D T 526      10.086  -3.323   4.153  0.85 41.43     0.261 A 
HETATM   10  O1    D T 526      11.030  -2.536   4.252  0.85 42.98    -0.267 OA
HETATM   11  C20   D T 526       9.524  -3.611   2.916  0.85 40.93     0.061 A 
HETATM   12  C21   D T 526       8.450  -4.503   2.757  0.85 40.09     0.006 A 
HETATM   13  C22   D T 526       7.999  -4.700   1.425  0.85 38.51     0.001 A 
HETATM   14  C23   D T 526       6.693  -4.456   1.023  0.85 37.22     0.011 A 
HETATM   15  C24   D T 526       6.334  -4.651  -0.309  0.85 38.32     0.058 A 
HETATM   16 CL2    D T 526       4.718  -4.310  -0.768  0.85 39.14    -0.082 Cl
HETATM   17  C25   D T 526       7.246  -5.098  -1.280  0.85 38.76     0.011 A 
HETATM   18  C26   D T 526       8.563  -5.355  -0.896  0.85 39.13     0.001 A 
HETATM   19  C27   D T 526       8.911  -5.155   0.452  0.85 40.58     0.000 A 
ENDROOT
BRANCH   1  20
HETATM   20  C5    D T 526       5.126  -7.613   4.946  0.85 35.96     0.342 C 
HETATM   21  N3    D T 526       3.948  -6.940   4.335  0.85 33.38     0.629 N 
BRANCH  20  22
HETATM   22  C4    D T 526       5.544  -8.715   3.935  0.85 36.74     0.100 A 
HETATM   23  N1    D T 526       6.678  -9.400   3.911  0.85 38.12    -0.308 N 
HETATM   24  C1    D T 526       7.844  -9.269   4.856  0.85 35.33     0.132 C 
HETATM   25  C2    D T 526       6.635 -10.243   2.881  0.85 38.34     0.178 A 
HETATM   26  N2    D T 526       5.459 -10.090   2.280  0.85 36.49    -0.223 NA
HETATM   27  C3    D T 526       4.793  -9.144   2.919  0.85 36.47     0.116 A 
ENDBRANCH  20  22
BRANCH  20  28
HETATM   28  C6    D T 526       4.963  -8.201   6.386  0.85 36.17     0.021 A 
HETATM   29  C7    D T 526       4.602  -7.383   7.467  0.85 36.92    -0.001 A 
HETATM   30  C8    D T 526       4.403  -7.904   8.757  0.85 39.20     0.011 A 
HETATM   31  C9    D T 526       4.551  -9.279   8.988  0.85 42.64     0.058 A 
HETATM   32 CL1    D T 526       4.311  -9.956  10.581  0.85 49.10    -0.082 Cl
HETATM   33  C10   D T 526       4.893 -10.118   7.916  0.85 40.97     0.011 A 
HETATM   34  C11   D T 526       5.084  -9.584   6.629  0.85 38.69    -0.001 A 
ENDBRANCH  20  28
ENDBRANCH   1  20
TORSDOF 3
ENDMDL
MODEL 8
REMARK VINA RESULT:    -7.087      3.256      5.565
REMARK INTER + INTRA:          -9.009
REMARK INTER:                  -9.064
REMARK INTRA:                   0.056
REMARK UNBOUND:                -0.679
REMARK  3 active torsions:
REMARK  status: ('A' for Active; 'I' for Inactive)
REMARK    1  A    between atoms: C4_6  and  C5_7 
REMARK    2  A    between atoms: C5_7  and  C6_8 
REMARK    3  A    between atoms: C5_7  and  C12_16 
ROOT
HETATM    1  C12   D T 526       7.412  -7.261   5.715  0.85 36.74     0.021 A 
HETATM    2  C13   D T 526       7.802  -6.499   4.608  0.85 36.68    -0.000 A 
HETATM    3  C14   D T 526       8.746  -5.467   4.731  0.85 39.54     0.016 A 
HETATM    4  C15   D T 526       7.979  -6.976   6.974  0.85 39.08    -0.000 A 
HETATM    5  C16   D T 526       8.914  -5.952   7.120  0.85 40.00     0.017 A 
HETATM    6  C17   D T 526       9.300  -5.199   6.006  0.85 40.79     0.062 A 
HETATM    7  N4    D T 526      10.259  -4.167   6.176  0.85 42.34    -0.294 N 
HETATM    8  C18   D T 526      10.861  -3.875   7.515  0.85 43.53     0.134 C 
HETATM    9  C19   D T 526      10.652  -3.407   5.084  0.85 41.43     0.261 A 
HETATM   10  O1    D T 526      11.483  -2.510   5.232  0.85 42.98    -0.267 OA
HETATM   11  C20   D T 526      10.106  -3.674   3.835  0.85 40.93     0.061 A 
HETATM   12  C21   D T 526       9.158  -4.689   3.620  0.85 40.09     0.006 A 
HETATM   13  C22   D T 526       8.707  -4.844   2.283  0.85 38.51     0.001 A 
HETATM   14  C23   D T 526       7.371  -4.750   1.916  0.85 37.22     0.011 A 
HETATM   15  C24   D T 526       7.012  -4.891   0.578  0.85 38.32     0.058 A 
HETATM   16 CL2    D T 526       5.355  -4.737   0.167  0.85 39.14    -0.082 Cl
HETATM   17  C25   D T 526       7.953  -5.135  -0.436  0.85 38.76     0.011 A 
HETATM   18  C26   D T 526       9.301  -5.241  -0.090  0.85 39.13     0.001 A 
HETATM   19  C27   D T 526       9.650  -5.097   1.266  0.85 40.58     0.000 A 
ENDROOT
BRANCH   1  20
HETATM   20  C5    D T 526       6.331  -8.376   5.601  0.85 35.96     0.342 C 
HETATM   21  N3    D T 526       6.935  -9.721   5.801  0.85 33.38     0.629 N 
BRANCH  20  22
HETATM   22  C4    D T 526       5.406  -8.151   6.829  0.85 36.74     0.100 A 
HETATM   23  N1    D T 526       4.782  -9.072   7.548  0.85 38.12    -0.308 N 
HETATM   24  C1    D T 526       4.810 -10.564   7.343  0.85 35.33     0.132 C 
HETATM   25  C2    D T 526       4.091  -8.457   8.506  0.85 38.34     0.178 A 
HETATM   26  N2    D T 526       4.309  -7.151   8.387  0.85 36.49    -0.223 NA
HETATM   27  C3    D T 526       5.107  -6.961   7.352  0.85 36.47     0.116 A 
ENDBRANCH  20  22
BRANCH  20  28
HETATM   28  C6    D T 526       5.564  -8.114   4.263  0.85 36.17     0.021 A 
HETATM   29  C7    D T 526       6.168  -8.360   3.021  0.85 36.92    -0.001 A 
HETATM   30  C8    D T 526       5.477  -8.176   1.811  0.85 39.20     0.011 A 
HETATM   31  C9    D T 526       4.141  -7.750   1.825  0.85 42.64     0.058 A 
HETATM   32 CL1    D T 526       3.257  -7.513   0.337  0.85 49.10    -0.082 Cl
HETATM   33  C10   D T 526       3.512  -7.518   3.058  0.85 40.97     0.011 A 
HETATM   34  C11   D T 526       4.214  -7.710   4.261  0.85 38.69    -0.001 A 
ENDBRANCH  20  28
ENDBRANCH   1  20
TORSDOF 3
ENDMDL
MODEL 9
REMARK VINA RESULT:    -6.885      2.845      5.698
REMARK INTER + INTRA:          -8.772
REMARK INTER:                  -9.219
REMARK INTRA:                   0.447
REMARK UNBOUND:                -0.679
REMARK  3 active torsions:
REMARK  status: ('A' for Active; 'I' for Inactive)
REMARK    1  A    between atoms: C4_6  and  C5_7 
REMARK    2  A    between atoms: C5_7  and  C6_8 
REMARK    3  A    between atoms: C5_7  and  C12_16 
ROOT
HETATM    1  C12   D T 526       9.293  -6.267   2.417  0.85 36.74     0.021 A 
HETATM    2  C13   D T 526       7.911  -6.402   2.587  0.85 36.68    -0.000 A 
HETATM    3  C14   D T 526       7.014  -6.051   1.564  0.85 39.54     0.016 A 
HETATM    4  C15   D T 526       9.785  -5.764   1.195  0.85 39.08    -0.000 A 
HETATM    5  C16   D T 526       8.913  -5.404   0.169  0.85 40.00     0.017 A 
HETATM    6  C17   D T 526       7.532  -5.547   0.347  0.85 40.79     0.062 A 
HETATM    7  N4    D T 526       6.664  -5.183  -0.714  0.85 42.34    -0.294 N 
HETATM    8  C18   D T 526       7.194  -4.655  -2.010  0.85 43.53     0.134 C 
HETATM    9  C19   D T 526       5.292  -5.313  -0.555  0.85 41.43     0.261 A 
HETATM   10  O1    D T 526       4.537  -4.995  -1.475  0.85 42.98    -0.267 OA
HETATM   11  C20   D T 526       4.788  -5.808   0.641  0.85 40.93     0.061 A 
HETATM   12  C21   D T 526       5.612  -6.186   1.716  0.85 40.09     0.006 A 
HETATM   13  C22   D T 526       4.943  -6.686   2.864  0.85 38.51     0.001 A 
HETATM   14  C23   D T 526       5.075  -6.121   4.125  0.85 37.22     0.011 A 
HETATM   15  C24   D T 526       4.366  -6.656   5.199  0.85 38.32     0.058 A 
HETATM   16 CL2    D T 526       4.535  -5.908   6.732  0.85 39.14    -0.082 Cl
HETATM   17  C25   D T 526       3.514  -7.766   5.064  0.85 38.76     0.011 A 
HETATM   18  C26   D T 526       3.372  -8.355   3.806  0.85 39.13     0.001 A 
HETATM   19  C27   D T 526       4.095  -7.804   2.732  0.85 40.58     0.000 A 
ENDROOT
BRANCH   1  20
HETATM   20  C5    D T 526      10.295  -6.606   3.560  0.85 35.96     0.342 C 
HETATM   21  N3    D T 526      10.372  -8.077   3.776  0.85 33.38     0.629 N 
BRANCH  20  22
HETATM   22  C4    D T 526      11.684  -6.199   2.997  0.85 36.74     0.100 A 
HETATM   23  N1    D T 526      12.178  -4.976   2.877  0.85 38.12    -0.308 N 
HETATM   24  C1    D T 526      11.509  -3.679   3.251  0.85 35.33     0.132 C 
HETATM   25  C2    D T 526      13.396  -5.067   2.346  0.85 38.34     0.178 A 
HETATM   26  N2    D T 526      13.660  -6.356   2.156  0.85 36.49    -0.223 NA
HETATM   27  C3    D T 526      12.605  -7.051   2.545  0.85 36.47     0.116 A 
ENDBRANCH  20  22
BRANCH  20  28
HETATM   28  C6    D T 526       9.896  -5.711   4.779  0.85 36.17     0.021 A 
HETATM   29  C7    D T 526       8.759  -4.890   4.734  0.85 36.92    -0.001 A 
HETATM   30  C8    D T 526       8.358  -4.117   5.838  0.85 39.20     0.011 A 
HETATM   31  C9    D T 526       9.094  -4.165   7.030  0.85 42.64     0.058 A 
HETATM   32 CL1    D T 526       8.620  -3.215   8.418  0.85 49.10    -0.082 Cl
HETATM   33  C10   D T 526      10.223  -4.995   7.102  0.85 40.97     0.011 A 
HETATM   34  C11   D T 526      10.610  -5.767   5.992  0.85 38.69    -0.001 A 
ENDBRANCH  20  28
ENDBRANCH   1  20
TORSDOF 3
ENDMDL
