MODEL 1
REMARK VINA RESULT:    -9.325      0.000      0.000
REMARK INTER + INTRA:         -11.343
REMARK INTER:                 -10.961
REMARK INTRA:                  -0.383
REMARK UNBOUND:                -0.383
REMARK  3 active torsions:
REMARK  status: ('A' for Active; 'I' for Inactive)
REMARK    1  A    between atoms: C4_6  and  C5_7 
REMARK    2  A    between atoms: C5_7  and  C6_8 
REMARK    3  A    between atoms: C5_7  and  C12_16 
ROOT
HETATM    1  C12   D T 526      -0.881   9.170  -7.126  0.85 36.74     0.021 A 
HETATM    2  C13   D T 526       0.488   8.883  -7.133  0.85 36.68    -0.000 A 
HETATM    3  C14   D T 526       1.412   9.731  -6.501  0.85 39.54     0.016 A 
HETATM    4  C15   D T 526      -1.331  10.339  -6.477  0.85 39.08    -0.000 A 
HETATM    5  C16   D T 526      -0.430  11.197  -5.848  0.85 40.00     0.017 A 
HETATM    6  C17   D T 526       0.936  10.898  -5.856  0.85 40.79     0.062 A 
HETATM    7  N4    D T 526       1.834  11.783  -5.204  0.85 42.34    -0.294 N 
HETATM    8  C18   D T 526       1.348  13.016  -4.511  0.85 43.53     0.134 C 
HETATM    9  C19   D T 526       3.193  11.505  -5.204  0.85 41.43     0.261 A 
HETATM   10  O1    D T 526       3.973  12.274  -4.638  0.85 42.98    -0.267 OA
HETATM   11  C20   D T 526       3.656  10.359  -5.838  0.85 40.93     0.061 A 
HETATM   12  C21   D T 526       2.802   9.454  -6.491  0.85 40.09     0.006 A 
HETATM   13  C22   D T 526       3.429   8.324  -7.079  0.85 38.51     0.001 A 
HETATM   14  C23   D T 526       3.326   8.013  -8.429  0.85 37.22     0.011 A 
HETATM   15  C24   D T 526       3.991   6.899  -8.934  0.85 38.32     0.058 A 
HETATM   16 CL2    D T 526       3.862   6.573 -10.611  0.85 39.14    -0.082 Cl
HETATM   17  C25   D T 526       4.769   6.053  -8.126  0.85 38.76     0.011 A 
HETATM   18  C26   D T 526       4.881   6.341  -6.764  0.85 39.13     0.001 A 
HETATM   19  C27   D T 526       4.203   7.470  -6.268  0.85 40.58     0.000 A 
ENDROOT
BRANCH   1  20
HETATM   20  C5    D T 526      -1.911   8.265  -7.864  0.85 35.96     0.342 C 
HETATM   21  N3    D T 526      -3.305   8.687  -7.554  0.85 33.38     0.629 N 
BRANCH  20  22
HETATM   22  C4    D T 526      -1.707   8.586  -9.370  0.85 36.74     0.100 A 
HETATM   23  N1    D T 526      -2.512   8.279 -10.376  0.85 38.12    -0.308 N 
HETATM   24  C1    D T 526      -3.821   7.536 -10.305  0.85 35.33     0.132 C 
HETATM   25  C2    D T 526      -1.965   8.734 -11.502  0.85 38.34     0.178 A 
HETATM   26  N2    D T 526      -0.825   9.340 -11.183  0.85 36.49    -0.223 NA
HETATM   27  C3    D T 526      -0.661   9.240  -9.876  0.85 36.47     0.116 A 
ENDBRANCH  20  22
BRANCH  20  28
HETATM   28  C6    D T 526      -1.510   6.787  -7.543  0.85 36.17     0.021 A 
HETATM   29  C7    D T 526      -1.145   5.897  -8.563  0.85 36.92    -0.001 A 
HETATM   30  C8    D T 526      -0.735   4.580  -8.287  0.85 39.20     0.011 A 
HETATM   31  C9    D T 526      -0.666   4.132  -6.961  0.85 42.64     0.058 A 
HETATM   32 CL1    D T 526      -0.160   2.501  -6.588  0.85 49.10    -0.082 Cl
HETATM   33  C10   D T 526      -1.008   5.013  -5.924  0.85 40.97     0.011 A 
HETATM   34  C11   D T 526      -1.413   6.329  -6.214  0.85 38.69    -0.001 A 
ENDBRANCH  20  28
ENDBRANCH   1  20
TORSDOF 3
ENDMDL
MODEL 2
REMARK VINA RESULT:    -9.026      2.638      5.007
REMARK INTER + INTRA:         -10.991
REMARK INTER:                 -10.625
REMARK INTRA:                  -0.366
REMARK UNBOUND:                -0.383
REMARK  3 active torsions:
REMARK  status: ('A' for Active; 'I' for Inactive)
REMARK    1  A    between atoms: C4_6  and  C5_7 
REMARK    2  A    between atoms: C5_7  and  C6_8 
REMARK    3  A    between atoms: C5_7  and  C12_16 
ROOT
HETATM    1  C12   D T 526       0.415   9.786  -6.765  0.85 36.74     0.021 A 
HETATM    2  C13   D T 526       0.420  11.033  -6.129  0.85 36.68    -0.000 A 
HETATM    3  C14   D T 526       1.590  11.547  -5.547  0.85 39.54     0.016 A 
HETATM    4  C15   D T 526       1.609   9.037  -6.810  0.85 39.08    -0.000 A 
HETATM    5  C16   D T 526       2.779   9.527  -6.233  0.85 40.00     0.017 A 
HETATM    6  C17   D T 526       2.776  10.776  -5.605  0.85 40.79     0.062 A 
HETATM    7  N4    D T 526       3.981  11.258  -5.031  0.85 42.34    -0.294 N 
HETATM    8  C18   D T 526       5.246  10.460  -5.090  0.85 43.53     0.134 C 
HETATM    9  C19   D T 526       3.997  12.493  -4.400  0.85 41.43     0.261 A 
HETATM   10  O1    D T 526       5.044  12.911  -3.902  0.85 42.98    -0.267 OA
HETATM   11  C20   D T 526       2.831  13.246  -4.346  0.85 40.93     0.061 A 
HETATM   12  C21   D T 526       1.617  12.811  -4.904  0.85 40.09     0.006 A 
HETATM   13  C22   D T 526       0.520  13.702  -4.776  0.85 38.51     0.001 A 
HETATM   14  C23   D T 526      -0.673  13.356  -4.154  0.85 37.22     0.011 A 
HETATM   15  C24   D T 526      -1.695  14.297  -4.048  0.85 38.32     0.058 A 
HETATM   16 CL2    D T 526      -3.136  13.835  -3.244  0.85 39.14    -0.082 Cl
HETATM   17  C25   D T 526      -1.577  15.600  -4.557  0.85 38.76     0.011 A 
HETATM   18  C26   D T 526      -0.390  15.969  -5.193  0.85 39.13     0.001 A 
HETATM   19  C27   D T 526       0.633  15.008  -5.294  0.85 40.58     0.000 A 
ENDROOT
BRANCH   1  20
HETATM   20  C5    D T 526      -0.886   9.183  -7.371  0.85 35.96     0.342 C 
HETATM   21  N3    D T 526      -2.091   9.881  -6.843  0.85 33.38     0.629 N 
BRANCH  20  22
HETATM   22  C4    D T 526      -0.824   9.550  -8.879  0.85 36.74     0.100 A 
HETATM   23  N1    D T 526      -1.759   9.356  -9.796  0.85 38.12    -0.308 N 
HETATM   24  C1    D T 526      -3.112   8.722  -9.601  0.85 35.33     0.132 C 
HETATM   25  C2    D T 526      -1.303   9.810 -10.962  0.85 38.34     0.178 A 
HETATM   26  N2    D T 526      -0.085  10.305 -10.755  0.85 36.49    -0.223 NA
HETATM   27  C3    D T 526       0.214  10.135  -9.480  0.85 36.47     0.116 A 
ENDBRANCH  20  22
BRANCH  20  28
HETATM   28  C6    D T 526      -0.794   7.634  -7.164  0.85 36.17     0.021 A 
HETATM   29  C7    D T 526      -1.319   7.024  -6.016  0.85 36.92    -0.001 A 
HETATM   30  C8    D T 526      -1.288   5.630  -5.836  0.85 39.20     0.011 A 
HETATM   31  C9    D T 526      -0.735   4.809  -6.829  0.85 42.64     0.058 A 
HETATM   32 CL1    D T 526      -0.682   3.073  -6.633  0.85 49.10    -0.082 Cl
HETATM   33  C10   D T 526      -0.222   5.398  -7.994  0.85 40.97     0.011 A 
HETATM   34  C11   D T 526      -0.264   6.794  -8.162  0.85 38.69    -0.001 A 
ENDBRANCH  20  28
ENDBRANCH   1  20
TORSDOF 3
ENDMDL
MODEL 3
REMARK VINA RESULT:    -8.750      3.676      7.154
REMARK INTER + INTRA:         -10.667
REMARK INTER:                 -10.874
REMARK INTRA:                   0.207
REMARK UNBOUND:                -0.383
REMARK  3 active torsions:
REMARK  status: ('A' for Active; 'I' for Inactive)
REMARK    1  A    between atoms: C4_6  and  C5_7 
REMARK    2  A    between atoms: C5_7  and  C6_8 
REMARK    3  A    between atoms: C5_7  and  C12_16 
ROOT
HETATM    1  C12   D T 526       3.414   7.681  -6.668  0.85 36.74     0.021 A 
HETATM    2  C13   D T 526       2.075   7.469  -7.014  0.85 36.68    -0.000 A 
HETATM    3  C14   D T 526       1.547   6.172  -7.114  0.85 39.54     0.016 A 
HETATM    4  C15   D T 526       4.242   6.566  -6.425  0.85 39.08    -0.000 A 
HETATM    5  C16   D T 526       3.739   5.270  -6.524  0.85 40.00     0.017 A 
HETATM    6  C17   D T 526       2.398   5.068  -6.865  0.85 40.79     0.062 A 
HETATM    7  N4    D T 526       1.906   3.740  -6.954  0.85 42.34    -0.294 N 
HETATM    8  C18   D T 526       2.789   2.562  -6.687  0.85 43.53     0.134 C 
HETATM    9  C19   D T 526       0.580   3.520  -7.294  0.85 41.43     0.261 A 
HETATM   10  O1    D T 526       0.153   2.365  -7.372  0.85 42.98    -0.267 OA
HETATM   11  C20   D T 526      -0.252   4.605  -7.537  0.85 40.93     0.061 A 
HETATM   12  C21   D T 526       0.191   5.936  -7.457  0.85 40.09     0.006 A 
HETATM   13  C22   D T 526      -0.785   6.933  -7.721  0.85 38.51     0.001 A 
HETATM   14  C23   D T 526      -0.646   7.887  -8.720  0.85 37.22     0.011 A 
HETATM   15  C24   D T 526      -1.661   8.817  -8.932  0.85 38.32     0.058 A 
HETATM   16 CL2    D T 526      -1.461   9.956 -10.198  0.85 39.14    -0.082 Cl
HETATM   17  C25   D T 526      -2.836   8.842  -8.163  0.85 38.76     0.011 A 
HETATM   18  C26   D T 526      -2.994   7.896  -7.148  0.85 39.13     0.001 A 
HETATM   19  C27   D T 526      -1.961   6.964  -6.944  0.85 40.58     0.000 A 
ENDROOT
BRANCH   1  20
HETATM   20  C5    D T 526       4.025   9.112  -6.601  0.85 35.96     0.342 C 
HETATM   21  N3    D T 526       5.259   9.123  -5.769  0.85 33.38     0.629 N 
BRANCH  20  22
HETATM   22  C4    D T 526       4.501   9.404  -8.051  0.85 36.74     0.100 A 
HETATM   23  N1    D T 526       5.276  10.396  -8.460  0.85 38.12    -0.308 N 
HETATM   24  C1    D T 526       5.880  11.491  -7.620  0.85 35.33     0.132 C 
HETATM   25  C2    D T 526       5.438  10.283  -9.777  0.85 38.34     0.178 A 
HETATM   26  N2    D T 526       4.772   9.202 -10.176  0.85 36.49    -0.223 NA
HETATM   27  C3    D T 526       4.188   8.669  -9.119  0.85 36.47     0.116 A 
ENDBRANCH  20  22
BRANCH  20  28
HETATM   28  C6    D T 526       2.860  10.071  -6.186  0.85 36.17     0.021 A 
HETATM   29  C7    D T 526       1.526   9.767  -6.493  0.85 36.92    -0.001 A 
HETATM   30  C8    D T 526       0.463  10.592  -6.085  0.85 39.20     0.011 A 
HETATM   31  C9    D T 526       0.724  11.748  -5.336  0.85 42.64     0.058 A 
HETATM   32 CL1    D T 526      -0.576  12.794  -4.815  0.85 49.10    -0.082 Cl
HETATM   33  C10   D T 526       2.050  12.061  -5.001  0.85 40.97     0.011 A 
HETATM   34  C11   D T 526       3.102  11.223  -5.412  0.85 38.69    -0.001 A 
ENDBRANCH  20  28
ENDBRANCH   1  20
TORSDOF 3
ENDMDL
MODEL 4
REMARK VINA RESULT:    -8.561      3.574      7.002
REMARK INTER + INTRA:         -10.446
REMARK INTER:                 -10.317
REMARK INTRA:                  -0.129
REMARK UNBOUND:                -0.383
REMARK  3 active torsions:
REMARK  status: ('A' for Active; 'I' for Inactive)
REMARK    1  A    between atoms: C4_6  and  C5_7 
REMARK    2  A    between atoms: C5_7  and  C6_8 
REMARK    3  A    between atoms: C5_7  and  C12_16 
ROOT
HETATM    1  C12   D T 526       1.718   7.554  -7.202  0.85 36.74     0.021 A 
HETATM    2  C13   D T 526       0.616   7.430  -8.054  0.85 36.68    -0.000 A 
HETATM    3  C14   D T 526      -0.001   6.187  -8.270  0.85 39.54     0.016 A 
HETATM    4  C15   D T 526       2.217   6.403  -6.558  0.85 39.08    -0.000 A 
HETATM    5  C16   D T 526       1.623   5.158  -6.763  0.85 40.00     0.017 A 
HETATM    6  C17   D T 526       0.518   5.046  -7.613  0.85 40.79     0.062 A 
HETATM    7  N4    D T 526      -0.074   3.770  -7.801  0.85 42.34    -0.294 N 
HETATM    8  C18   D T 526       0.457   2.554  -7.108  0.85 43.53     0.134 C 
HETATM    9  C19   D T 526      -1.168   3.637  -8.643  0.85 41.43     0.261 A 
HETATM   10  O1    D T 526      -1.682   2.529  -8.806  0.85 42.98    -0.267 OA
HETATM   11  C20   D T 526      -1.674   4.759  -9.286  0.85 40.93     0.061 A 
HETATM   12  C21   D T 526      -1.123   6.042  -9.125  0.85 40.09     0.006 A 
HETATM   13  C22   D T 526      -1.763   7.087  -9.841  0.85 38.51     0.001 A 
HETATM   14  C23   D T 526      -1.105   7.895 -10.759  0.85 37.22     0.011 A 
HETATM   15  C24   D T 526      -1.811   8.885 -11.438  0.85 38.32     0.058 A 
HETATM   16 CL2    D T 526      -0.964   9.836 -12.586  0.85 39.14    -0.082 Cl
HETATM   17  C25   D T 526      -3.180   9.116 -11.229  0.85 38.76     0.011 A 
HETATM   18  C26   D T 526      -3.861   8.321 -10.304  0.85 39.13     0.001 A 
HETATM   19  C27   D T 526      -3.136   7.326  -9.624  0.85 40.58     0.000 A 
ENDROOT
BRANCH   1  20
HETATM   20  C5    D T 526       2.441   8.917  -6.992  0.85 35.96     0.342 C 
HETATM   21  N3    D T 526       3.673   8.743  -6.175  0.85 33.38     0.629 N 
BRANCH  20  22
HETATM   22  C4    D T 526       2.937   9.321  -8.408  0.85 36.74     0.100 A 
HETATM   23  N1    D T 526       3.904   8.756  -9.115  0.85 38.12    -0.308 N 
HETATM   24  C1    D T 526       4.764   7.587  -8.714  0.85 35.33     0.132 C 
HETATM   25  C2    D T 526       4.011   9.408 -10.270  0.85 38.34     0.178 A 
HETATM   26  N2    D T 526       3.092  10.370 -10.281  0.85 36.49    -0.223 NA
HETATM   27  C3    D T 526       2.440  10.323  -9.133  0.85 36.47     0.116 A 
ENDBRANCH  20  22
BRANCH  20  28
HETATM   28  C6    D T 526       1.356   9.917  -6.468  0.85 36.17     0.021 A 
HETATM   29  C7    D T 526      -0.011   9.635  -6.595  0.85 36.92    -0.001 A 
HETATM   30  C8    D T 526      -0.998  10.498  -6.087  0.85 39.20     0.011 A 
HETATM   31  C9    D T 526      -0.623  11.670  -5.416  0.85 42.64     0.058 A 
HETATM   32 CL1    D T 526      -1.826  12.762  -4.773  0.85 49.10    -0.082 Cl
HETATM   33  C10   D T 526       0.741  11.961  -5.260  0.85 40.97     0.011 A 
HETATM   34  C11   D T 526       1.717  11.086  -5.770  0.85 38.69    -0.001 A 
ENDBRANCH  20  28
ENDBRANCH   1  20
TORSDOF 3
ENDMDL
MODEL 5
REMARK VINA RESULT:    -8.547      2.150      3.362
REMARK INTER + INTRA:         -10.429
REMARK INTER:                  -9.657
REMARK INTRA:                  -0.772
REMARK UNBOUND:                -0.383
REMARK  3 active torsions:
REMARK  status: ('A' for Active; 'I' for Inactive)
REMARK    1  A    between atoms: C4_6  and  C5_7 
REMARK    2  A    between atoms: C5_7  and  C6_8 
REMARK    3  A    between atoms: C5_7  and  C12_16 
ROOT
HETATM    1  C12   D T 526      -0.245   9.745  -6.443  0.85 36.74     0.021 A 
HETATM    2  C13   D T 526       1.004  10.306  -6.155  0.85 36.68    -0.000 A 
HETATM    3  C14   D T 526       1.112  11.550  -5.512  0.85 39.54     0.016 A 
HETATM    4  C15   D T 526      -1.411  10.453  -6.085  0.85 39.08    -0.000 A 
HETATM    5  C16   D T 526      -1.326  11.692  -5.451  0.85 40.00     0.017 A 
HETATM    6  C17   D T 526      -0.073  12.241  -5.163  0.85 40.79     0.062 A 
HETATM    7  N4    D T 526      -0.011  13.501  -4.511  0.85 42.34    -0.294 N 
HETATM    8  C18   D T 526      -1.254  14.241  -4.127  0.85 43.53     0.134 C 
HETATM    9  C19   D T 526       1.222  14.064  -4.220  0.85 41.43     0.261 A 
HETATM   10  O1    D T 526       1.275  15.158  -3.654  0.85 42.98    -0.267 OA
HETATM   11  C20   D T 526       2.382  13.382  -4.564  0.85 40.93     0.061 A 
HETATM   12  C21   D T 526       2.368  12.132  -5.206  0.85 40.09     0.006 A 
HETATM   13  C22   D T 526       3.638  11.560  -5.479  0.85 38.51     0.001 A 
HETATM   14  C23   D T 526       4.056  11.210  -6.756  0.85 37.22     0.011 A 
HETATM   15  C24   D T 526       5.328  10.675  -6.944  0.85 38.32     0.058 A 
HETATM   16 CL2    D T 526       5.812  10.288  -8.542  0.85 39.14    -0.082 Cl
HETATM   17  C25   D T 526       6.222  10.460  -5.883  0.85 38.76     0.011 A 
HETATM   18  C26   D T 526       5.821  10.798  -4.588  0.85 39.13     0.001 A 
HETATM   19  C27   D T 526       4.533  11.336  -4.413  0.85 40.58     0.000 A 
ENDROOT
BRANCH   1  20
HETATM   20  C5    D T 526      -0.379   8.390  -7.199  0.85 35.96     0.342 C 
HETATM   21  N3    D T 526      -1.558   7.625  -6.709  0.85 33.38     0.629 N 
BRANCH  20  22
HETATM   22  C4    D T 526      -0.722   8.788  -8.660  0.85 36.74     0.100 A 
HETATM   23  N1    D T 526      -0.990   7.979  -9.674  0.85 38.12    -0.308 N 
HETATM   24  C1    D T 526      -1.019   6.474  -9.659  0.85 35.33     0.132 C 
HETATM   25  C2    D T 526      -1.227   8.725 -10.752  0.85 38.34     0.178 A 
HETATM   26  N2    D T 526      -1.122  10.002 -10.392  0.85 36.49    -0.223 NA
HETATM   27  C3    D T 526      -0.801  10.040  -9.111  0.85 36.47     0.116 A 
ENDBRANCH  20  22
BRANCH  20  28
HETATM   28  C6    D T 526       1.023   7.698  -7.117  0.85 36.17     0.021 A 
HETATM   29  C7    D T 526       1.248   6.617  -6.253  0.85 36.92    -0.001 A 
HETATM   30  C8    D T 526       2.486   5.953  -6.203  0.85 39.20     0.011 A 
HETATM   31  C9    D T 526       3.532   6.358  -7.044  0.85 42.64     0.058 A 
HETATM   32 CL1    D T 526       5.082   5.552  -7.003  0.85 49.10    -0.082 Cl
HETATM   33  C10   D T 526       3.321   7.425  -7.930  0.85 40.97     0.011 A 
HETATM   34  C11   D T 526       2.076   8.077  -7.973  0.85 38.69    -0.001 A 
ENDBRANCH  20  28
ENDBRANCH   1  20
TORSDOF 3
ENDMDL
MODEL 6
REMARK VINA RESULT:    -8.478      3.535      6.712
REMARK INTER + INTRA:         -10.348
REMARK INTER:                  -9.838
REMARK INTRA:                  -0.510
REMARK UNBOUND:                -0.383
REMARK  3 active torsions:
REMARK  status: ('A' for Active; 'I' for Inactive)
REMARK    1  A    between atoms: C4_6  and  C5_7 
REMARK    2  A    between atoms: C5_7  and  C6_8 
REMARK    3  A    between atoms: C5_7  and  C12_16 
ROOT
HETATM    1  C12   D T 526       3.276  10.124  -6.292  0.85 36.74     0.021 A 
HETATM    2  C13   D T 526       2.194   9.271  -6.535  0.85 36.68    -0.000 A 
HETATM    3  C14   D T 526       2.350   7.876  -6.516  0.85 39.54     0.016 A 
HETATM    4  C15   D T 526       4.544   9.563  -6.031  0.85 39.08    -0.000 A 
HETATM    5  C16   D T 526       4.721   8.181  -6.013  0.85 40.00     0.017 A 
HETATM    6  C17   D T 526       3.632   7.337  -6.252  0.85 40.79     0.062 A 
HETATM    7  N4    D T 526       3.834   5.932  -6.221  0.85 42.34    -0.294 N 
HETATM    8  C18   D T 526       5.180   5.345  -5.936  0.85 43.53     0.134 C 
HETATM    9  C19   D T 526       2.767   5.079  -6.460  0.85 41.43     0.261 A 
HETATM   10  O1    D T 526       2.944   3.859  -6.433  0.85 42.98    -0.267 OA
HETATM   11  C20   D T 526       1.511   5.612  -6.718  0.85 40.93     0.061 A 
HETATM   12  C21   D T 526       1.264   6.995  -6.754  0.85 40.09     0.006 A 
HETATM   13  C22   D T 526      -0.076   7.380  -7.019  0.85 38.51     0.001 A 
HETATM   14  C23   D T 526      -0.438   8.193  -8.085  0.85 37.22     0.011 A 
HETATM   15  C24   D T 526      -1.779   8.506  -8.290  0.85 38.32     0.058 A 
HETATM   16 CL2    D T 526      -2.182   9.485  -9.638  0.85 39.14    -0.082 Cl
HETATM   17  C25   D T 526      -2.802   8.037  -7.450  0.85 38.76     0.011 A 
HETATM   18  C26   D T 526      -2.461   7.224  -6.366  0.85 39.13     0.001 A 
HETATM   19  C27   D T 526      -1.103   6.917  -6.170  0.85 40.58     0.000 A 
ENDROOT
BRANCH   1  20
HETATM   20  C5    D T 526       3.129  11.673  -6.359  0.85 35.96     0.342 C 
HETATM   21  N3    D T 526       4.286  12.344  -5.706  0.85 33.38     0.629 N 
BRANCH  20  22
HETATM   22  C4    D T 526       3.252  12.014  -7.870  0.85 36.74     0.100 A 
HETATM   23  N1    D T 526       3.117  13.201  -8.442  0.85 38.12    -0.308 N 
HETATM   24  C1    D T 526       2.803  14.510  -7.767  0.85 35.33     0.132 C 
HETATM   25  C2    D T 526       3.296  13.055  -9.753  0.85 38.34     0.178 A 
HETATM   26  N2    D T 526       3.561  11.772  -9.986  0.85 36.49    -0.223 NA
HETATM   27  C3    D T 526       3.523  11.132  -8.831  0.85 36.47     0.116 A 
ENDBRANCH  20  22
BRANCH  20  28
HETATM   28  C6    D T 526       1.697  12.004  -5.821  0.85 36.17     0.021 A 
HETATM   29  C7    D T 526       1.511  12.898  -4.757  0.85 36.92    -0.001 A 
HETATM   30  C8    D T 526       0.229  13.244  -4.294  0.85 39.20     0.011 A 
HETATM   31  C9    D T 526      -0.907  12.703  -4.911  0.85 42.64     0.058 A 
HETATM   32 CL1    D T 526      -2.513  13.114  -4.357  0.85 49.10    -0.082 Cl
HETATM   33  C10   D T 526      -0.744  11.821  -5.990  0.85 40.97     0.011 A 
HETATM   34  C11   D T 526       0.544  11.488  -6.446  0.85 38.69    -0.001 A 
ENDBRANCH  20  28
ENDBRANCH   1  20
TORSDOF 3
ENDMDL
MODEL 7
REMARK VINA RESULT:    -8.287      2.998      6.676
REMARK INTER + INTRA:         -10.123
REMARK INTER:                  -9.470
REMARK INTRA:                  -0.653
REMARK UNBOUND:                -0.383
REMARK  3 active torsions:
REMARK  status: ('A' for Active; 'I' for Inactive)
REMARK    1  A    between atoms: C4_6  and  C5_7 
REMARK    2  A    between atoms: C5_7  and  C6_8 
REMARK    3  A    between atoms: C5_7  and  C12_16 
ROOT
HETATM    1  C12   D T 526      -0.934  10.939  -9.001  0.85 36.74     0.021 A 
HETATM    2  C13   D T 526      -1.290   9.594  -8.854  0.85 36.68    -0.000 A 
HETATM    3  C14   D T 526      -2.294   9.016  -9.647  0.85 39.54     0.016 A 
HETATM    4  C15   D T 526      -1.607  11.723  -9.961  0.85 39.08    -0.000 A 
HETATM    5  C16   D T 526      -2.611  11.170 -10.755  0.85 40.00     0.017 A 
HETATM    6  C17   D T 526      -2.956   9.823 -10.603  0.85 40.79     0.062 A 
HETATM    7  N4    D T 526      -3.976   9.281 -11.427  0.85 42.34    -0.294 N 
HETATM    8  C18   D T 526      -4.680  10.117 -12.449  0.85 43.53     0.134 C 
HETATM    9  C19   D T 526      -4.335   7.948 -11.289  0.85 41.43     0.261 A 
HETATM   10  O1    D T 526      -5.221   7.477 -12.005  0.85 42.98    -0.267 OA
HETATM   11  C20   D T 526      -3.683   7.160 -10.350  0.85 40.93     0.061 A 
HETATM   12  C21   D T 526      -2.665   7.654  -9.517  0.85 40.09     0.006 A 
HETATM   13  C22   D T 526      -2.090   6.718  -8.617  0.85 38.51     0.001 A 
HETATM   14  C23   D T 526      -2.074   6.897  -7.240  0.85 37.22     0.011 A 
HETATM   15  C24   D T 526      -1.511   5.919  -6.424  0.85 38.32     0.058 A 
HETATM   16 CL2    D T 526      -1.543   6.168  -4.728  0.85 39.14    -0.082 Cl
HETATM   17  C25   D T 526      -0.939   4.744  -6.937  0.85 38.76     0.011 A 
HETATM   18  C26   D T 526      -0.936   4.546  -8.319  0.85 39.13     0.001 A 
HETATM   19  C27   D T 526      -1.508   5.542  -9.132  0.85 40.58     0.000 A 
ENDROOT
BRANCH   1  20
HETATM   20  C5    D T 526       0.144  11.604  -8.095  0.85 35.96     0.342 C 
HETATM   21  N3    D T 526       0.717  12.811  -8.752  0.85 33.38     0.629 N 
BRANCH  20  22
HETATM   22  C4    D T 526      -0.649  12.138  -6.870  0.85 36.74     0.100 A 
HETATM   23  N1    D T 526      -0.157  12.612  -5.736  0.85 38.12    -0.308 N 
HETATM   24  C1    D T 526       1.294  12.743  -5.353  0.85 35.33     0.132 C 
HETATM   25  C2    D T 526      -1.175  12.958  -4.951  0.85 38.34     0.178 A 
HETATM   26  N2    D T 526      -2.301  12.712  -5.616  0.85 36.49    -0.223 NA
HETATM   27  C3    D T 526      -1.978  12.199  -6.789  0.85 36.47     0.116 A 
ENDBRANCH  20  22
BRANCH  20  28
HETATM   28  C6    D T 526       1.132  10.466  -7.675  0.85 36.17     0.021 A 
HETATM   29  C7    D T 526       0.712   9.404  -6.862  0.85 36.92    -0.001 A 
HETATM   30  C8    D T 526       1.573   8.348  -6.516  0.85 39.20     0.011 A 
HETATM   31  C9    D T 526       2.888   8.331  -7.001  0.85 42.64     0.058 A 
HETATM   32 CL1    D T 526       3.982   7.032  -6.588  0.85 49.10    -0.082 Cl
HETATM   33  C10   D T 526       3.323   9.374  -7.833  0.85 40.97     0.011 A 
HETATM   34  C11   D T 526       2.449  10.422  -8.174  0.85 38.69    -0.001 A 
ENDBRANCH  20  28
ENDBRANCH   1  20
TORSDOF 3
ENDMDL
MODEL 8
REMARK VINA RESULT:    -8.189      2.666      6.241
REMARK INTER + INTRA:         -10.008
REMARK INTER:                 -10.196
REMARK INTRA:                   0.187
REMARK UNBOUND:                -0.383
REMARK  3 active torsions:
REMARK  status: ('A' for Active; 'I' for Inactive)
REMARK    1  A    between atoms: C4_6  and  C5_7 
REMARK    2  A    between atoms: C5_7  and  C6_8 
REMARK    3  A    between atoms: C5_7  and  C12_16 
ROOT
HETATM    1  C12   D T 526       3.370   9.596  -6.362  0.85 36.74     0.021 A 
HETATM    2  C13   D T 526       1.977   9.508  -6.455  0.85 36.68    -0.000 A 
HETATM    3  C14   D T 526       1.149  10.538  -5.980  0.85 39.54     0.016 A 
HETATM    4  C15   D T 526       3.944  10.741  -5.771  0.85 39.08    -0.000 A 
HETATM    5  C16   D T 526       3.140  11.772  -5.288  0.85 40.00     0.017 A 
HETATM    6  C17   D T 526       1.749  11.677  -5.390  0.85 40.79     0.062 A 
HETATM    7  N4    D T 526       0.951  12.742  -4.898  0.85 42.34    -0.294 N 
HETATM    8  C18   D T 526       1.568  13.957  -4.279  0.85 43.53     0.134 C 
HETATM    9  C19   D T 526      -0.431  12.664  -4.987  0.85 41.43     0.261 A 
HETATM   10  O1    D T 526      -1.124  13.589  -4.559  0.85 42.98    -0.267 OA
HETATM   11  C20   D T 526      -1.016  11.544  -5.566  0.85 40.93     0.061 A 
HETATM   12  C21   D T 526      -0.264  10.469  -6.071  0.85 40.09     0.006 A 
HETATM   13  C22   D T 526      -1.010   9.405  -6.643  0.85 38.51     0.001 A 
HETATM   14  C23   D T 526      -0.925   8.092  -6.199  0.85 37.22     0.011 A 
HETATM   15  C24   D T 526      -1.708   7.109  -6.799  0.85 38.32     0.058 A 
HETATM   16 CL2    D T 526      -1.595   5.508  -6.196  0.85 39.14    -0.082 Cl
HETATM   17  C25   D T 526      -2.590   7.386  -7.856  0.85 38.76     0.011 A 
HETATM   18  C26   D T 526      -2.686   8.698  -8.325  0.85 39.13     0.001 A 
HETATM   19  C27   D T 526      -1.888   9.681  -7.711  0.85 40.58     0.000 A 
ENDROOT
BRANCH   1  20
HETATM   20  C5    D T 526       4.298   8.441  -6.841  0.85 35.96     0.342 C 
HETATM   21  N3    D T 526       5.313   8.112  -5.803  0.85 33.38     0.629 N 
BRANCH  20  22
HETATM   22  C4    D T 526       3.368   7.198  -6.918  0.85 36.74     0.100 A 
HETATM   23  N1    D T 526       2.522   6.883  -7.887  0.85 38.12    -0.308 N 
HETATM   24  C1    D T 526       2.249   7.659  -9.149  0.85 35.33     0.132 C 
HETATM   25  C2    D T 526       1.920   5.742  -7.560  0.85 38.34     0.178 A 
HETATM   26  N2    D T 526       2.413   5.343  -6.390  0.85 36.49    -0.223 NA
HETATM   27  C3    D T 526       3.294   6.242  -5.991  0.85 36.47     0.116 A 
ENDBRANCH  20  22
BRANCH  20  28
HETATM   28  C6    D T 526       4.814   8.848  -8.261  0.85 36.17     0.021 A 
HETATM   29  C7    D T 526       4.472  10.083  -8.830  0.85 36.92    -0.001 A 
HETATM   30  C8    D T 526       4.967  10.485 -10.083  0.85 39.20     0.011 A 
HETATM   31  C9    D T 526       5.842   9.649 -10.790  0.85 42.64     0.058 A 
HETATM   32 CL1    D T 526       6.474  10.122 -12.350  0.85 49.10    -0.082 Cl
HETATM   33  C10   D T 526       6.213   8.418 -10.229  0.85 40.97     0.011 A 
HETATM   34  C11   D T 526       5.714   8.030  -8.973  0.85 38.69    -0.001 A 
ENDBRANCH  20  28
ENDBRANCH   1  20
TORSDOF 3
ENDMDL
MODEL 9
REMARK VINA RESULT:    -8.088      2.989      3.555
REMARK INTER + INTRA:          -9.889
REMARK INTER:                 -10.540
REMARK INTRA:                   0.651
REMARK UNBOUND:                -0.383
REMARK  3 active torsions:
REMARK  status: ('A' for Active; 'I' for Inactive)
REMARK    1  A    between atoms: C4_6  and  C5_7 
REMARK    2  A    between atoms: C5_7  and  C6_8 
REMARK    3  A    between atoms: C5_7  and  C12_16 
ROOT
HETATM    1  C12   D T 526      -0.313   7.855  -8.834  0.85 36.74     0.021 A 
HETATM    2  C13   D T 526       0.973   7.478  -8.434  0.85 36.68    -0.000 A 
HETATM    3  C14   D T 526       2.114   8.034  -9.035  0.85 39.54     0.016 A 
HETATM    4  C15   D T 526      -0.457   8.806  -9.867  0.85 39.08    -0.000 A 
HETATM    5  C16   D T 526       0.663   9.365 -10.481  0.85 40.00     0.017 A 
HETATM    6  C17   D T 526       1.945   8.986 -10.069  0.85 40.79     0.062 A 
HETATM    7  N4    D T 526       3.069   9.574 -10.704  0.85 42.34    -0.294 N 
HETATM    8  C18   D T 526       2.908  10.587 -11.793  0.85 43.53     0.134 C 
HETATM    9  C19   D T 526       4.348   9.208 -10.313  0.85 41.43     0.261 A 
HETATM   10  O1    D T 526       5.325   9.718 -10.865  0.85 42.98    -0.267 OA
HETATM   11  C20   D T 526       4.511   8.274  -9.298  0.85 40.93     0.061 A 
HETATM   12  C21   D T 526       3.426   7.670  -8.639  0.85 40.09     0.006 A 
HETATM   13  C22   D T 526       3.759   6.744  -7.615  0.85 38.51     0.001 A 
HETATM   14  C23   D T 526       3.339   5.421  -7.620  0.85 37.22     0.011 A 
HETATM   15  C24   D T 526       3.728   4.569  -6.589  0.85 38.32     0.058 A 
HETATM   16 CL2    D T 526       3.214   2.936  -6.654  0.85 39.14    -0.082 Cl
HETATM   17  C25   D T 526       4.533   4.996  -5.520  0.85 38.76     0.011 A 
HETATM   18  C26   D T 526       4.960   6.325  -5.489  0.85 39.13     0.001 A 
HETATM   19  C27   D T 526       4.559   7.174  -6.537  0.85 40.58     0.000 A 
ENDROOT
BRANCH   1  20
HETATM   20  C5    D T 526      -1.586   7.211  -8.210  0.85 35.96     0.342 C 
HETATM   21  N3    D T 526      -2.046   7.987  -7.026  0.85 33.38     0.629 N 
BRANCH  20  22
HETATM   22  C4    D T 526      -2.691   7.403  -9.285  0.85 36.74     0.100 A 
HETATM   23  N1    D T 526      -3.597   8.367  -9.347  0.85 38.12    -0.308 N 
HETATM   24  C1    D T 526      -3.781   9.510  -8.384  0.85 35.33     0.132 C 
HETATM   25  C2    D T 526      -4.354   8.160 -10.422  0.85 38.34     0.178 A 
HETATM   26  N2    D T 526      -3.898   7.070 -11.036  0.85 36.49    -0.223 NA
HETATM   27  C3    D T 526      -2.885   6.600 -10.332  0.85 36.47     0.116 A 
ENDBRANCH  20  22
BRANCH  20  28
HETATM   28  C6    D T 526      -1.258   5.695  -8.003  0.85 36.17     0.021 A 
HETATM   29  C7    D T 526      -0.812   5.212  -6.765  0.85 36.92    -0.001 A 
HETATM   30  C8    D T 526      -0.561   3.846  -6.548  0.85 39.20     0.011 A 
HETATM   31  C9    D T 526      -0.770   2.923  -7.582  0.85 42.64     0.058 A 
HETATM   32 CL1    D T 526      -0.465   1.219  -7.342  0.85 49.10    -0.082 Cl
HETATM   33  C10   D T 526      -1.235   3.383  -8.824  0.85 40.97     0.011 A 
HETATM   34  C11   D T 526      -1.487   4.752  -9.025  0.85 38.69    -0.001 A 
ENDBRANCH  20  28
ENDBRANCH   1  20
TORSDOF 3
ENDMDL
