MODEL 1
REMARK VINA RESULT:    -9.067      0.000      0.000
REMARK INTER + INTRA:         -11.336
REMARK INTER:                 -10.657
REMARK INTRA:                  -0.679
REMARK UNBOUND:                -0.679
REMARK  3 active torsions:
REMARK  status: ('A' for Active; 'I' for Inactive)
REMARK    1  A    between atoms: C4_6  and  C5_7 
REMARK    2  A    between atoms: C5_7  and  C6_8 
REMARK    3  A    between atoms: C5_7  and  C12_16 
ROOT
HETATM    1  C12   D T 526      -3.779   8.020  -5.772  0.85 36.74     0.021 A 
HETATM    2  C13   D T 526      -2.449   8.102  -6.198  0.85 36.68    -0.000 A 
HETATM    3  C14   D T 526      -1.637   9.192  -5.843  0.85 39.54     0.016 A 
HETATM    4  C15   D T 526      -4.307   9.059  -4.978  0.85 39.08    -0.000 A 
HETATM    5  C16   D T 526      -3.522  10.153  -4.620  0.85 40.00     0.017 A 
HETATM    6  C17   D T 526      -2.191  10.223  -5.047  0.85 40.79     0.062 A 
HETATM    7  N4    D T 526      -1.407  11.343  -4.664  0.85 42.34    -0.294 N 
HETATM    8  C18   D T 526      -1.974  12.438  -3.816  0.85 43.53     0.134 C 
HETATM    9  C19   D T 526      -0.087  11.432  -5.081  0.85 41.43     0.261 A 
HETATM   10  O1    D T 526       0.593  12.405  -4.750  0.85 42.98    -0.267 OA
HETATM   11  C20   D T 526       0.452  10.419  -5.862  0.85 40.93     0.061 A 
HETATM   12  C21   D T 526      -0.287   9.290  -6.261  0.85 40.09     0.006 A 
HETATM   13  C22   D T 526       0.413   8.338  -7.048  0.85 38.51     0.001 A 
HETATM   14  C23   D T 526      -0.001   7.946  -8.314  0.85 37.22     0.011 A 
HETATM   15  C24   D T 526       0.753   7.023  -9.032  0.85 38.32     0.058 A 
HETATM   16 CL2    D T 526       0.221   6.593 -10.604  0.85 39.14    -0.082 Cl
HETATM   17  C25   D T 526       1.931   6.450  -8.524  0.85 38.76     0.011 A 
HETATM   18  C26   D T 526       2.363   6.822  -7.249  0.85 39.13     0.001 A 
HETATM   19  C27   D T 526       1.590   7.756  -6.535  0.85 40.58     0.000 A 
ENDROOT
BRANCH   1  20
HETATM   20  C5    D T 526      -4.704   6.842  -6.198  0.85 35.96     0.342 C 
HETATM   21  N3    D T 526      -5.884   6.742  -5.296  0.85 33.38     0.629 N 
BRANCH  20  22
HETATM   22  C4    D T 526      -5.273   7.269  -7.579  0.85 36.74     0.100 A 
HETATM   23  N1    D T 526      -6.063   6.567  -8.376  0.85 38.12    -0.308 N 
HETATM   24  C1    D T 526      -6.595   5.178  -8.144  0.85 35.33     0.132 C 
HETATM   25  C2    D T 526      -6.314   7.298  -9.462  0.85 38.34     0.178 A 
HETATM   26  N2    D T 526      -5.691   8.464  -9.319  0.85 36.49    -0.223 NA
HETATM   27  C3    D T 526      -5.043   8.442  -8.169  0.85 36.47     0.116 A 
ENDBRANCH  20  22
BRANCH  20  28
HETATM   28  C6    D T 526      -3.784   5.583  -6.332  0.85 36.17     0.021 A 
HETATM   29  C7    D T 526      -2.803   5.505  -7.332  0.85 36.92    -0.001 A 
HETATM   30  C8    D T 526      -1.935   4.404  -7.436  0.85 39.20     0.011 A 
HETATM   31  C9    D T 526      -2.026   3.352  -6.514  0.85 42.64     0.058 A 
HETATM   32 CL1    D T 526      -0.960   1.971  -6.618  0.85 49.10    -0.082 Cl
HETATM   33  C10   D T 526      -2.985   3.420  -5.493  0.85 40.97     0.011 A 
HETATM   34  C11   D T 526      -3.844   4.530  -5.398  0.85 38.69    -0.001 A 
ENDBRANCH  20  28
ENDBRANCH   1  20
TORSDOF 3
ENDMDL
MODEL 2
REMARK VINA RESULT:    -8.861      2.516      4.644
REMARK INTER + INTRA:         -11.095
REMARK INTER:                 -10.721
REMARK INTRA:                  -0.374
REMARK UNBOUND:                -0.679
REMARK  3 active torsions:
REMARK  status: ('A' for Active; 'I' for Inactive)
REMARK    1  A    between atoms: C4_6  and  C5_7 
REMARK    2  A    between atoms: C5_7  and  C6_8 
REMARK    3  A    between atoms: C5_7  and  C12_16 
ROOT
HETATM    1  C12   D T 526      -2.652   8.283  -6.079  0.85 36.74     0.021 A 
HETATM    2  C13   D T 526      -2.566   9.583  -5.568  0.85 36.68    -0.000 A 
HETATM    3  C14   D T 526      -1.328  10.237  -5.448  0.85 39.54     0.016 A 
HETATM    4  C15   D T 526      -1.468   7.624  -6.471  0.85 39.08    -0.000 A 
HETATM    5  C16   D T 526      -0.230   8.252  -6.355  0.85 40.00     0.017 A 
HETATM    6  C17   D T 526      -0.155   9.553  -5.847  0.85 40.79     0.062 A 
HETATM    7  N4    D T 526       1.117  10.176  -5.745  0.85 42.34    -0.294 N 
HETATM    8  C18   D T 526       2.366   9.472  -6.170  0.85 43.53     0.134 C 
HETATM    9  C19   D T 526       1.212  11.465  -5.240  0.85 41.43     0.261 A 
HETATM   10  O1    D T 526       2.315  12.005  -5.150  0.85 42.98    -0.267 OA
HETATM   11  C20   D T 526       0.058  12.131  -4.850  0.85 40.93     0.061 A 
HETATM   12  C21   D T 526      -1.222  11.555  -4.938  0.85 40.09     0.006 A 
HETATM   13  C22   D T 526      -2.301  12.372  -4.510  0.85 38.51     0.001 A 
HETATM   14  C23   D T 526      -3.182  12.001  -3.503  0.85 37.22     0.011 A 
HETATM   15  C24   D T 526      -4.202  12.870  -3.124  0.85 38.32     0.058 A 
HETATM   16 CL2    D T 526      -5.246  12.383  -1.855  0.85 39.14    -0.082 Cl
HETATM   17  C25   D T 526      -4.392  14.123  -3.729  0.85 38.76     0.011 A 
HETATM   18  C26   D T 526      -3.523  14.514  -4.751  0.85 39.13     0.001 A 
HETATM   19  C27   D T 526      -2.497  13.626  -5.123  0.85 40.58     0.000 A 
ENDROOT
BRANCH   1  20
HETATM   20  C5    D T 526      -4.011   7.529  -6.172  0.85 35.96     0.342 C 
HETATM   21  N3    D T 526      -5.028   8.158  -5.285  0.85 33.38     0.629 N 
BRANCH  20  22
HETATM   22  C4    D T 526      -4.506   7.791  -7.621  0.85 36.74     0.100 A 
HETATM   23  N1    D T 526      -5.699   7.518  -8.126  0.85 38.12    -0.308 N 
HETATM   24  C1    D T 526      -6.865   6.875  -7.422  0.85 35.33     0.132 C 
HETATM   25  C2    D T 526      -5.708   7.898  -9.403  0.85 38.34     0.178 A 
HETATM   26  N2    D T 526      -4.520   8.429  -9.677  0.85 36.49    -0.223 NA
HETATM   27  C3    D T 526      -3.779   8.353  -8.586  0.85 36.47     0.116 A 
ENDBRANCH  20  22
BRANCH  20  28
HETATM   28  C6    D T 526      -3.692   6.013  -5.951  0.85 36.17     0.021 A 
HETATM   29  C7    D T 526      -3.537   5.486  -4.660  0.85 36.92    -0.001 A 
HETATM   30  C8    D T 526      -3.299   4.117  -4.441  0.85 39.20     0.011 A 
HETATM   31  C9    D T 526      -3.230   3.237  -5.530  0.85 42.64     0.058 A 
HETATM   32 CL1    D T 526      -2.936   1.531  -5.289  0.85 49.10    -0.082 Cl
HETATM   33  C10   D T 526      -3.403   3.740  -6.828  0.85 40.97     0.011 A 
HETATM   34  C11   D T 526      -3.645   5.111  -7.032  0.85 38.69    -0.001 A 
ENDBRANCH  20  28
ENDBRANCH   1  20
TORSDOF 3
ENDMDL
MODEL 3
REMARK VINA RESULT:    -8.400      3.630      7.195
REMARK INTER + INTRA:         -10.553
REMARK INTER:                 -10.837
REMARK INTRA:                   0.285
REMARK UNBOUND:                -0.679
REMARK  3 active torsions:
REMARK  status: ('A' for Active; 'I' for Inactive)
REMARK    1  A    between atoms: C4_6  and  C5_7 
REMARK    2  A    between atoms: C5_7  and  C6_8 
REMARK    3  A    between atoms: C5_7  and  C12_16 
ROOT
HETATM    1  C12   D T 526      -0.386   6.760  -6.891  0.85 36.74     0.021 A 
HETATM    2  C13   D T 526      -1.777   6.624  -6.840  0.85 36.68    -0.000 A 
HETATM    3  C14   D T 526      -2.383   5.359  -6.752  0.85 39.54     0.016 A 
HETATM    4  C15   D T 526       0.415   5.599  -6.860  0.85 39.08    -0.000 A 
HETATM    5  C16   D T 526      -0.164   4.335  -6.779  0.85 40.00     0.017 A 
HETATM    6  C17   D T 526      -1.557   4.210  -6.724  0.85 40.79     0.062 A 
HETATM    7  N4    D T 526      -2.125   2.912  -6.634  0.85 42.34    -0.294 N 
HETATM    8  C18   D T 526      -1.267   1.687  -6.594  0.85 43.53     0.134 C 
HETATM    9  C19   D T 526      -3.504   2.768  -6.581  0.85 41.43     0.261 A 
HETATM   10  O1    D T 526      -3.997   1.641  -6.505  0.85 42.98    -0.267 OA
HETATM   11  C20   D T 526      -4.310   3.898  -6.610  0.85 40.93     0.061 A 
HETATM   12  C21   D T 526      -3.790   5.203  -6.693  0.85 40.09     0.006 A 
HETATM   13  C22   D T 526      -4.746   6.252  -6.699  0.85 38.51     0.001 A 
HETATM   14  C23   D T 526      -4.844   7.185  -7.723  0.85 37.22     0.011 A 
HETATM   15  C24   D T 526      -5.824   8.172  -7.666  0.85 38.32     0.058 A 
HETATM   16 CL2    D T 526      -5.928   9.283  -8.966  0.85 39.14    -0.082 Cl
HETATM   17  C25   D T 526      -6.732   8.275  -6.598  0.85 38.76     0.011 A 
HETATM   18  C26   D T 526      -6.647   7.352  -5.553  0.85 39.13     0.001 A 
HETATM   19  C27   D T 526      -5.651   6.361  -5.624  0.85 40.58     0.000 A 
ENDROOT
BRANCH   1  20
HETATM   20  C5    D T 526       0.295   8.153  -7.037  0.85 35.96     0.342 C 
HETATM   21  N3    D T 526       1.758   8.056  -6.779  0.85 33.38     0.629 N 
BRANCH  20  22
HETATM   22  C4    D T 526       0.164   8.497  -8.546  0.85 36.74     0.100 A 
HETATM   23  N1    D T 526       0.874   8.005  -9.550  0.85 38.12    -0.308 N 
HETATM   24  C1    D T 526       1.991   6.999  -9.472  0.85 35.33     0.132 C 
HETATM   25  C2    D T 526       0.444   8.566 -10.679  0.85 38.34     0.178 A 
HETATM   26  N2    D T 526      -0.551   9.392 -10.368  0.85 36.49    -0.223 NA
HETATM   27  C3    D T 526      -0.716   9.358  -9.059  0.85 36.47     0.116 A 
ENDBRANCH  20  22
BRANCH  20  28
HETATM   28  C6    D T 526      -0.534   9.146  -6.158  0.85 36.17     0.021 A 
HETATM   29  C7    D T 526       0.029  10.342  -5.689  0.85 36.92    -0.001 A 
HETATM   30  C8    D T 526      -0.717  11.270  -4.940  0.85 39.20     0.011 A 
HETATM   31  C9    D T 526      -2.067  11.017  -4.658  0.85 42.64     0.058 A 
HETATM   32 CL1    D T 526      -3.018  12.152  -3.730  0.85 49.10    -0.082 Cl
HETATM   33  C10   D T 526      -2.655   9.837  -5.136  0.85 40.97     0.011 A 
HETATM   34  C11   D T 526      -1.898   8.920  -5.888  0.85 38.69    -0.001 A 
ENDBRANCH  20  28
ENDBRANCH   1  20
TORSDOF 3
ENDMDL
MODEL 4
REMARK VINA RESULT:    -8.152      1.937      2.749
REMARK INTER + INTRA:         -10.262
REMARK INTER:                  -9.608
REMARK INTRA:                  -0.653
REMARK UNBOUND:                -0.679
REMARK  3 active torsions:
REMARK  status: ('A' for Active; 'I' for Inactive)
REMARK    1  A    between atoms: C4_6  and  C5_7 
REMARK    2  A    between atoms: C5_7  and  C6_8 
REMARK    3  A    between atoms: C5_7  and  C12_16 
ROOT
HETATM    1  C12   D T 526      -3.021   8.669  -5.456  0.85 36.74     0.021 A 
HETATM    2  C13   D T 526      -1.822   9.371  -5.621  0.85 36.68    -0.000 A 
HETATM    3  C14   D T 526      -1.637  10.641  -5.050  0.85 39.54     0.016 A 
HETATM    4  C15   D T 526      -4.059   9.259  -4.706  0.85 39.08    -0.000 A 
HETATM    5  C16   D T 526      -3.900  10.520  -4.135  0.85 40.00     0.017 A 
HETATM    6  C17   D T 526      -2.696  11.212  -4.303  0.85 40.79     0.062 A 
HETATM    7  N4    D T 526      -2.553  12.492  -3.707  0.85 42.34    -0.294 N 
HETATM    8  C18   D T 526      -3.657  13.108  -2.907  0.85 43.53     0.134 C 
HETATM    9  C19   D T 526      -1.367  13.195  -3.864  0.85 41.43     0.261 A 
HETATM   10  O1    D T 526      -1.243  14.307  -3.349  0.85 42.98    -0.267 OA
HETATM   11  C20   D T 526      -0.332  12.631  -4.598  0.85 40.93     0.061 A 
HETATM   12  C21   D T 526      -0.428  11.364  -5.202  0.85 40.09     0.006 A 
HETATM   13  C22   D T 526       0.723  10.924  -5.907  0.85 38.51     0.001 A 
HETATM   14  C23   D T 526       0.704  10.578  -7.251  0.85 37.22     0.011 A 
HETATM   15  C24   D T 526       1.882  10.177  -7.877  0.85 38.32     0.058 A 
HETATM   16 CL2    D T 526       1.817   9.789  -9.546  0.85 39.14    -0.082 Cl
HETATM   17  C25   D T 526       3.109  10.097  -7.199  0.85 38.76     0.011 A 
HETATM   18  C26   D T 526       3.150  10.432  -5.844  0.85 39.13     0.001 A 
HETATM   19  C27   D T 526       1.953  10.835  -5.225  0.85 40.58     0.000 A 
ENDROOT
BRANCH   1  20
HETATM   20  C5    D T 526      -3.256   7.282  -6.123  0.85 35.96     0.342 C 
HETATM   21  N3    D T 526      -3.813   6.310  -5.144  0.85 33.38     0.629 N 
BRANCH  20  22
HETATM   22  C4    D T 526      -4.393   7.530  -7.152  0.85 36.74     0.100 A 
HETATM   23  N1    D T 526      -5.022   6.629  -7.891  0.85 38.12    -0.308 N 
HETATM   24  C1    D T 526      -4.781   5.143  -7.922  0.85 35.33     0.132 C 
HETATM   25  C2    D T 526      -5.925   7.261  -8.640  0.85 38.34     0.178 A 
HETATM   26  N2    D T 526      -5.864   8.556  -8.343  0.85 36.49    -0.223 NA
HETATM   27  C3    D T 526      -4.916   8.722  -7.438  0.85 36.47     0.116 A 
ENDBRANCH  20  22
BRANCH  20  28
HETATM   28  C6    D T 526      -1.918   6.904  -6.842  0.85 36.17     0.021 A 
HETATM   29  C7    D T 526      -1.026   5.982  -6.275  0.85 36.92    -0.001 A 
HETATM   30  C8    D T 526       0.156   5.594  -6.930  0.85 39.20     0.011 A 
HETATM   31  C9    D T 526       0.460   6.119  -8.194  0.85 42.64     0.058 A 
HETATM   32 CL1    D T 526       1.921   5.654  -9.032  0.85 49.10    -0.082 Cl
HETATM   33  C10   D T 526      -0.430   7.026  -8.789  0.85 40.97     0.011 A 
HETATM   34  C11   D T 526      -1.611   7.403  -8.123  0.85 38.69    -0.001 A 
ENDBRANCH  20  28
ENDBRANCH   1  20
TORSDOF 3
ENDMDL
MODEL 5
REMARK VINA RESULT:    -8.009      2.546      5.970
REMARK INTER + INTRA:         -10.093
REMARK INTER:                 -10.270
REMARK INTRA:                   0.177
REMARK UNBOUND:                -0.679
REMARK  3 active torsions:
REMARK  status: ('A' for Active; 'I' for Inactive)
REMARK    1  A    between atoms: C4_6  and  C5_7 
REMARK    2  A    between atoms: C5_7  and  C6_8 
REMARK    3  A    between atoms: C5_7  and  C12_16 
ROOT
HETATM    1  C12   D T 526       0.172   8.932  -6.543  0.85 36.74     0.021 A 
HETATM    2  C13   D T 526      -1.152   8.663  -6.179  0.85 36.68    -0.000 A 
HETATM    3  C14   D T 526      -1.904   9.586  -5.434  0.85 39.54     0.016 A 
HETATM    4  C15   D T 526       0.755  10.153  -6.143  0.85 39.08    -0.000 A 
HETATM    5  C16   D T 526       0.029  11.080  -5.398  0.85 40.00     0.017 A 
HETATM    6  C17   D T 526      -1.295  10.803  -5.044  0.85 40.79     0.062 A 
HETATM    7  N4    D T 526      -2.018  11.766  -4.291  0.85 42.34    -0.294 N 
HETATM    8  C18   D T 526      -1.394  13.061  -3.877  0.85 43.53     0.134 C 
HETATM    9  C19   D T 526      -3.332  11.508  -3.927  0.85 41.43     0.261 A 
HETATM   10  O1    D T 526      -3.959  12.343  -3.272  0.85 42.98    -0.267 OA
HETATM   11  C20   D T 526      -3.924  10.313  -4.312  0.85 40.93     0.061 A 
HETATM   12  C21   D T 526      -3.248   9.333  -5.061  0.85 40.09     0.006 A 
HETATM   13  C22   D T 526      -3.998   8.173  -5.385  0.85 38.51     0.001 A 
HETATM   14  C23   D T 526      -3.606   6.890  -5.026  0.85 37.22     0.011 A 
HETATM   15  C24   D T 526      -4.409   5.803  -5.362  0.85 38.32     0.058 A 
HETATM   16 CL2    D T 526      -3.900   4.242  -4.870  0.85 39.14    -0.082 Cl
HETATM   17  C25   D T 526      -5.616   5.944  -6.067  0.85 38.76     0.011 A 
HETATM   18  C26   D T 526      -6.026   7.224  -6.446  0.85 39.13     0.001 A 
HETATM   19  C27   D T 526      -5.204   8.312  -6.100  0.85 40.58     0.000 A 
ENDROOT
BRANCH   1  20
HETATM   20  C5    D T 526       1.032   7.898  -7.326  0.85 35.96     0.342 C 
HETATM   21  N3    D T 526       2.370   7.733  -6.695  0.85 33.38     0.629 N 
BRANCH  20  22
HETATM   22  C4    D T 526       0.304   6.542  -7.114  0.85 36.74     0.100 A 
HETATM   23  N1    D T 526      -0.718   6.059  -7.803  0.85 38.12    -0.308 N 
HETATM   24  C1    D T 526      -1.433   6.714  -8.956  0.85 35.33     0.132 C 
HETATM   25  C2    D T 526      -1.040   4.871  -7.295  0.85 38.34     0.178 A 
HETATM   26  N2    D T 526      -0.195   4.612  -6.301  0.85 36.49    -0.223 NA
HETATM   27  C3    D T 526       0.623   5.642  -6.183  0.85 36.47     0.116 A 
ENDBRANCH  20  22
BRANCH  20  28
HETATM   28  C6    D T 526       0.987   8.332  -8.829  0.85 36.17     0.021 A 
HETATM   29  C7    D T 526       0.249   9.453  -9.237  0.85 36.92    -0.001 A 
HETATM   30  C8    D T 526       0.238   9.887 -10.575  0.85 39.20     0.011 A 
HETATM   31  C9    D T 526       0.992   9.202 -11.539  0.85 42.64     0.058 A 
HETATM   32 CL1    D T 526       0.997   9.718 -13.208  0.85 49.10    -0.082 Cl
HETATM   33  C10   D T 526       1.753   8.091 -11.147  0.85 40.97     0.011 A 
HETATM   34  C11   D T 526       1.758   7.671  -9.805  0.85 38.69    -0.001 A 
ENDBRANCH  20  28
ENDBRANCH   1  20
TORSDOF 3
ENDMDL
MODEL 6
REMARK VINA RESULT:    -7.861      3.621      7.257
REMARK INTER + INTRA:          -9.920
REMARK INTER:                  -9.232
REMARK INTRA:                  -0.687
REMARK UNBOUND:                -0.679
REMARK  3 active torsions:
REMARK  status: ('A' for Active; 'I' for Inactive)
REMARK    1  A    between atoms: C4_6  and  C5_7 
REMARK    2  A    between atoms: C5_7  and  C6_8 
REMARK    3  A    between atoms: C5_7  and  C12_16 
ROOT
HETATM    1  C12   D T 526       0.323   7.492  -6.569  0.85 36.74     0.021 A 
HETATM    2  C13   D T 526      -0.789   8.273  -6.236  0.85 36.68    -0.000 A 
HETATM    3  C14   D T 526      -2.016   7.683  -5.889  0.85 39.54     0.016 A 
HETATM    4  C15   D T 526       0.197   6.087  -6.559  0.85 39.08    -0.000 A 
HETATM    5  C16   D T 526      -1.012   5.481  -6.224  0.85 40.00     0.017 A 
HETATM    6  C17   D T 526      -2.116   6.271  -5.888  0.85 40.79     0.062 A 
HETATM    7  N4    D T 526      -3.336   5.632  -5.543  0.85 42.34    -0.294 N 
HETATM    8  C18   D T 526      -3.458   4.141  -5.528  0.85 43.53     0.134 C 
HETATM    9  C19   D T 526      -4.443   6.399  -5.210  0.85 41.43     0.261 A 
HETATM   10  O1    D T 526      -5.502   5.844  -4.912  0.85 42.98    -0.267 OA
HETATM   11  C20   D T 526      -4.340   7.783  -5.213  0.85 40.93     0.061 A 
HETATM   12  C21   D T 526      -3.151   8.458  -5.544  0.85 40.09     0.006 A 
HETATM   13  C22   D T 526      -3.206   9.875  -5.487  0.85 38.51     0.001 A 
HETATM   14  C23   D T 526      -2.918  10.692  -6.573  0.85 37.22     0.011 A 
HETATM   15  C24   D T 526      -3.017  12.074  -6.442  0.85 38.32     0.058 A 
HETATM   16 CL2    D T 526      -2.683  13.041  -7.818  0.85 39.14    -0.082 Cl
HETATM   17  C25   D T 526      -3.393  12.695  -5.239  0.85 38.76     0.011 A 
HETATM   18  C26   D T 526      -3.679  11.895  -4.131  0.85 39.13     0.001 A 
HETATM   19  C27   D T 526      -3.575  10.499  -4.278  0.85 40.58     0.000 A 
ENDROOT
BRANCH   1  20
HETATM   20  C5    D T 526       1.673   8.133  -7.002  0.85 35.96     0.342 C 
HETATM   21  N3    D T 526       2.820   7.268  -6.612  0.85 33.38     0.629 N 
BRANCH  20  22
HETATM   22  C4    D T 526       1.642   8.102  -8.555  0.85 36.74     0.100 A 
HETATM   23  N1    D T 526       2.499   8.670  -9.390  0.85 38.12    -0.308 N 
HETATM   24  C1    D T 526       3.709   9.494  -9.037  0.85 35.33     0.132 C 
HETATM   25  C2    D T 526       2.107   8.404 -10.635  0.85 38.34     0.178 A 
HETATM   26  N2    D T 526       1.014   7.650 -10.563  0.85 36.49    -0.223 NA
HETATM   27  C3    D T 526       0.722   7.474  -9.287  0.85 36.47     0.116 A 
ENDBRANCH  20  22
BRANCH  20  28
HETATM   28  C6    D T 526       1.657   9.604  -6.467  0.85 36.17     0.021 A 
HETATM   29  C7    D T 526       0.818  10.573  -7.037  0.85 36.92    -0.001 A 
HETATM   30  C8    D T 526       0.755  11.886  -6.536  0.85 39.20     0.011 A 
HETATM   31  C9    D T 526       1.532  12.250  -5.428  0.85 42.64     0.058 A 
HETATM   32 CL1    D T 526       1.473  13.874  -4.784  0.85 49.10    -0.082 Cl
HETATM   33  C10   D T 526       2.362  11.290  -4.830  0.85 40.97     0.011 A 
HETATM   34  C11   D T 526       2.412   9.979  -5.339  0.85 38.69    -0.001 A 
ENDBRANCH  20  28
ENDBRANCH   1  20
TORSDOF 3
ENDMDL
MODEL 7
REMARK VINA RESULT:    -7.821      3.284      5.714
REMARK INTER + INTRA:          -9.872
REMARK INTER:                 -10.416
REMARK INTRA:                   0.544
REMARK UNBOUND:                -0.679
REMARK  3 active torsions:
REMARK  status: ('A' for Active; 'I' for Inactive)
REMARK    1  A    between atoms: C4_6  and  C5_7 
REMARK    2  A    between atoms: C5_7  and  C6_8 
REMARK    3  A    between atoms: C5_7  and  C12_16 
ROOT
HETATM    1  C12   D T 526      -4.527   6.052  -7.848  0.85 36.74     0.021 A 
HETATM    2  C13   D T 526      -3.145   5.846  -7.796  0.85 36.68    -0.000 A 
HETATM    3  C14   D T 526      -2.607   4.610  -7.400  0.85 39.54     0.016 A 
HETATM    4  C15   D T 526      -5.389   4.995  -7.486  0.85 39.08    -0.000 A 
HETATM    5  C16   D T 526      -4.877   3.763  -7.084  0.85 40.00     0.017 A 
HETATM    6  C17   D T 526      -3.493   3.566  -7.041  0.85 40.79     0.062 A 
HETATM    7  N4    D T 526      -2.994   2.300  -6.635  0.85 42.34    -0.294 N 
HETATM    8  C18   D T 526      -3.916   1.183  -6.260  0.85 43.53     0.134 C 
HETATM    9  C19   D T 526      -1.624   2.086  -6.583  0.85 41.43     0.261 A 
HETATM   10  O1    D T 526      -1.191   0.988  -6.229  0.85 42.98    -0.267 OA
HETATM   11  C20   D T 526      -0.760   3.113  -6.935  0.85 40.93     0.061 A 
HETATM   12  C21   D T 526      -1.209   4.381  -7.347  0.85 40.09     0.006 A 
HETATM   13  C22   D T 526      -0.198   5.318  -7.686  0.85 38.51     0.001 A 
HETATM   14  C23   D T 526      -0.069   6.554  -7.066  0.85 37.22     0.011 A 
HETATM   15  C24   D T 526       0.965   7.408  -7.440  0.85 38.32     0.058 A 
HETATM   16 CL2    D T 526       1.105   8.910  -6.626  0.85 39.14    -0.082 Cl
HETATM   17  C25   D T 526       1.895   7.078  -8.439  0.85 38.76     0.011 A 
HETATM   18  C26   D T 526       1.779   5.844  -9.083  0.85 39.13     0.001 A 
HETATM   19  C27   D T 526       0.730   4.991  -8.695  0.85 40.58     0.000 A 
ENDROOT
BRANCH   1  20
HETATM   20  C5    D T 526      -5.135   7.431  -8.238  0.85 35.96     0.342 C 
HETATM   21  N3    D T 526      -4.721   7.823  -9.613  0.85 33.38     0.629 N 
BRANCH  20  22
HETATM   22  C4    D T 526      -6.665   7.175  -8.324  0.85 36.74     0.100 A 
HETATM   23  N1    D T 526      -7.389   6.980  -9.415  0.85 38.12    -0.308 N 
HETATM   24  C1    D T 526      -6.908   6.970 -10.842  0.85 35.33     0.132 C 
HETATM   25  C2    D T 526      -8.657   6.802  -9.048  0.85 38.34     0.178 A 
HETATM   26  N2    D T 526      -8.708   6.867  -7.720  0.85 36.49    -0.223 NA
HETATM   27  C3    D T 526      -7.487   7.107  -7.277  0.85 36.47     0.116 A 
ENDBRANCH  20  22
BRANCH  20  28
HETATM   28  C6    D T 526      -4.793   8.413  -7.069  0.85 36.17     0.021 A 
HETATM   29  C7    D T 526      -5.209   9.753  -7.103  0.85 36.92    -0.001 A 
HETATM   30  C8    D T 526      -4.953  10.636  -6.038  0.85 39.20     0.011 A 
HETATM   31  C9    D T 526      -4.279  10.179  -4.897  0.85 42.64     0.058 A 
HETATM   32 CL1    D T 526      -3.948  11.253  -3.559  0.85 49.10    -0.082 Cl
HETATM   33  C10   D T 526      -3.873   8.838  -4.835  0.85 40.97     0.011 A 
HETATM   34  C11   D T 526      -4.140   7.964  -5.905  0.85 38.69    -0.001 A 
ENDBRANCH  20  28
ENDBRANCH   1  20
TORSDOF 3
ENDMDL
MODEL 8
REMARK VINA RESULT:    -7.695      3.919      7.726
REMARK INTER + INTRA:          -9.725
REMARK INTER:                  -9.513
REMARK INTRA:                  -0.212
REMARK UNBOUND:                -0.679
REMARK  3 active torsions:
REMARK  status: ('A' for Active; 'I' for Inactive)
REMARK    1  A    between atoms: C4_6  and  C5_7 
REMARK    2  A    between atoms: C5_7  and  C6_8 
REMARK    3  A    between atoms: C5_7  and  C12_16 
ROOT
HETATM    1  C12   D T 526      -4.447  10.539  -6.252  0.85 36.74     0.021 A 
HETATM    2  C13   D T 526      -4.631   9.155  -6.353  0.85 36.68    -0.000 A 
HETATM    3  C14   D T 526      -5.708   8.614  -7.075  0.85 39.54     0.016 A 
HETATM    4  C15   D T 526      -5.371  11.397  -6.885  0.85 39.08    -0.000 A 
HETATM    5  C16   D T 526      -6.450  10.882  -7.601  0.85 40.00     0.017 A 
HETATM    6  C17   D T 526      -6.621   9.497  -7.699  0.85 40.79     0.062 A 
HETATM    7  N4    D T 526      -7.723   8.995  -8.439  0.85 42.34    -0.294 N 
HETATM    8  C18   D T 526      -8.694   9.913  -9.113  0.85 43.53     0.134 C 
HETATM    9  C19   D T 526      -7.912   7.624  -8.546  0.85 41.43     0.261 A 
HETATM   10  O1    D T 526      -8.870   7.188  -9.187  0.85 42.98    -0.267 OA
HETATM   11  C20   D T 526      -7.014   6.763  -7.931  0.85 40.93     0.061 A 
HETATM   12  C21   D T 526      -5.906   7.216  -7.192  0.85 40.09     0.006 A 
HETATM   13  C22   D T 526      -5.076   6.207  -6.638  0.85 38.51     0.001 A 
HETATM   14  C23   D T 526      -4.810   6.104  -5.278  0.85 37.22     0.011 A 
HETATM   15  C24   D T 526      -4.002   5.072  -4.810  0.85 38.32     0.058 A 
HETATM   16 CL2    D T 526      -3.727   4.966  -3.121  0.85 39.14    -0.082 Cl
HETATM   17  C25   D T 526      -3.426   4.115  -5.662  0.85 38.76     0.011 A 
HETATM   18  C26   D T 526      -3.673   4.204  -7.034  0.85 39.13     0.001 A 
HETATM   19  C27   D T 526      -4.491   5.253  -7.493  0.85 40.58     0.000 A 
ENDROOT
BRANCH   1  20
HETATM   20  C5    D T 526      -3.286  11.152  -5.416  0.85 35.96     0.342 C 
HETATM   21  N3    D T 526      -2.477  10.083  -4.770  0.85 33.38     0.629 N 
BRANCH  20  22
HETATM   22  C4    D T 526      -2.347  11.804  -6.467  0.85 36.74     0.100 A 
HETATM   23  N1    D T 526      -1.150  12.331  -6.262  0.85 38.12    -0.308 N 
HETATM   24  C1    D T 526      -0.411  12.438  -4.954  0.85 35.33     0.132 C 
HETATM   25  C2    D T 526      -0.688  12.783  -7.426  0.85 38.34     0.178 A 
HETATM   26  N2    D T 526      -1.598  12.511  -8.357  0.85 36.49    -0.223 NA
HETATM   27  C3    D T 526      -2.621  11.920  -7.767  0.85 36.47     0.116 A 
ENDBRANCH  20  22
BRANCH  20  28
HETATM   28  C6    D T 526      -3.932  12.234  -4.489  0.85 36.17     0.021 A 
HETATM   29  C7    D T 526      -4.507  11.885  -3.258  0.85 36.92    -0.001 A 
HETATM   30  C8    D T 526      -5.047  12.851  -2.390  0.85 39.20     0.011 A 
HETATM   31  C9    D T 526      -5.003  14.208  -2.740  0.85 42.64     0.058 A 
HETATM   32 CL1    D T 526      -5.666  15.430  -1.682  0.85 49.10    -0.082 Cl
HETATM   33  C10   D T 526      -4.414  14.580  -3.957  0.85 40.97     0.011 A 
HETATM   34  C11   D T 526      -3.874  13.604  -4.814  0.85 38.69    -0.001 A 
ENDBRANCH  20  28
ENDBRANCH   1  20
TORSDOF 3
ENDMDL
MODEL 9
REMARK VINA RESULT:    -7.578      2.799      5.849
REMARK INTER + INTRA:          -9.586
REMARK INTER:                  -9.831
REMARK INTRA:                   0.245
REMARK UNBOUND:                -0.679
REMARK  3 active torsions:
REMARK  status: ('A' for Active; 'I' for Inactive)
REMARK    1  A    between atoms: C4_6  and  C5_7 
REMARK    2  A    between atoms: C5_7  and  C6_8 
REMARK    3  A    between atoms: C5_7  and  C12_16 
ROOT
HETATM    1  C12   D T 526      -0.622   9.993  -7.274  0.85 36.74     0.021 A 
HETATM    2  C13   D T 526      -1.803   9.639  -6.613  0.85 36.68    -0.000 A 
HETATM    3  C14   D T 526      -2.312  10.421  -5.562  0.85 39.54     0.016 A 
HETATM    4  C15   D T 526       0.066  11.154  -6.866  0.85 39.08    -0.000 A 
HETATM    5  C16   D T 526      -0.417  11.941  -5.822  0.85 40.00     0.017 A 
HETATM    6  C17   D T 526      -1.601  11.580  -5.171  0.85 40.79     0.062 A 
HETATM    7  N4    D T 526      -2.079  12.400  -4.115  0.85 42.34    -0.294 N 
HETATM    8  C18   D T 526      -1.345  13.634  -3.693  0.85 43.53     0.134 C 
HETATM    9  C19   D T 526      -3.250  12.057  -3.454  0.85 41.43     0.261 A 
HETATM   10  O1    D T 526      -3.663  12.768  -2.537  0.85 42.98    -0.267 OA
HETATM   11  C20   D T 526      -3.943  10.919  -3.842  0.85 40.93     0.061 A 
HETATM   12  C21   D T 526      -3.509  10.080  -4.885  0.85 40.09     0.006 A 
HETATM   13  C22   D T 526      -4.337   8.962  -5.167  0.85 38.51     0.001 A 
HETATM   14  C23   D T 526      -3.884   7.651  -5.125  0.85 37.22     0.011 A 
HETATM   15  C24   D T 526      -4.765   6.606  -5.392  0.85 38.32     0.058 A 
HETATM   16 CL2    D T 526      -4.168   5.002  -5.298  0.85 39.14    -0.082 Cl
HETATM   17  C25   D T 526      -6.115   6.821  -5.717  0.85 38.76     0.011 A 
HETATM   18  C26   D T 526      -6.592   8.132  -5.774  0.85 39.13     0.001 A 
HETATM   19  C27   D T 526      -5.689   9.177  -5.501  0.85 40.58     0.000 A 
ENDROOT
BRANCH   1  20
HETATM   20  C5    D T 526      -0.022   9.110  -8.407  0.85 35.96     0.342 C 
HETATM   21  N3    D T 526      -0.639   9.443  -9.721  0.85 33.38     0.629 N 
BRANCH  20  22
HETATM   22  C4    D T 526       1.458   9.566  -8.518  0.85 36.74     0.100 A 
HETATM   23  N1    D T 526       1.955  10.509  -9.304  0.85 38.12    -0.308 N 
HETATM   24  C1    D T 526       1.205  11.362 -10.293  0.85 35.33     0.132 C 
HETATM   25  C2    D T 526       3.268  10.581  -9.091  0.85 38.34     0.178 A 
HETATM   26  N2    D T 526       3.576   9.691  -8.151  0.85 36.49    -0.223 NA
HETATM   27  C3    D T 526       2.467   9.061  -7.808  0.85 36.47     0.116 A 
ENDBRANCH  20  22
BRANCH  20  28
HETATM   28  C6    D T 526      -0.120   7.628  -7.913  0.85 36.17     0.021 A 
HETATM   29  C7    D T 526      -0.307   7.328  -6.556  0.85 36.92    -0.001 A 
HETATM   30  C8    D T 526      -0.447   6.005  -6.101  0.85 39.20     0.011 A 
HETATM   31  C9    D T 526      -0.419   4.944  -7.017  0.85 42.64     0.058 A 
HETATM   32 CL1    D T 526      -0.591   3.290  -6.481  0.85 49.10    -0.082 Cl
HETATM   33  C10   D T 526      -0.255   5.224  -8.381  0.85 40.97     0.011 A 
HETATM   34  C11   D T 526      -0.120   6.553  -8.823  0.85 38.69    -0.001 A 
ENDBRANCH  20  28
ENDBRANCH   1  20
TORSDOF 3
ENDMDL
