MODEL 1
REMARK VINA RESULT:      -8.0      0.000      0.000
REMARK  9 active torsions:
REMARK  status: ('A' for Active; 'I' for Inactive)
REMARK    1  A    between atoms: O02_2  and  CAX_24 
REMARK    2  A    between atoms: CAC_3  and  CAM_13 
REMARK    3  A    between atoms: CAC_3  and  NBH_34 
REMARK    4  A    between atoms: CAM_13  and  CAN_14 
REMARK    5  A    between atoms: CAN_14  and  OAW_23 
REMARK    6  A    between atoms: NAU_21  and  CBB_28 
REMARK    7  A    between atoms: NAU_21  and  CBE_31 
REMARK    8  A    between atoms: OAV_22  and  CBC_29 
REMARK    9  A    between atoms: OAW_23  and  CBD_30 
ROOT
HETATM    1  NAD   D T 445     -43.633  -9.164  38.871  1.00172.85    -0.191 NA
HETATM    2  CAG   D T 445     -43.489  -8.894  37.863  1.00172.72     0.104 C 
HETATM    3  CAH   D T 445     -43.999  -9.012  35.337  1.00173.65     0.111 A 
HETATM    4  CAK   D T 445     -42.813  -7.432  32.166  1.00175.08     0.045 A 
HETATM    5  CAL   D T 445     -41.169  -6.163  34.065  1.00173.14     0.029 A 
HETATM    6  NAT   D T 445     -43.844  -8.674  33.995  1.00174.21    -0.243 NA
HETATM    7  CBA   D T 445     -43.255  -8.464  36.377  1.00172.91     0.105 A 
HETATM    8  CBC   D T 445     -41.037  -5.842  32.711  1.00173.92     0.116 A 
HETATM    9  CBD   D T 445     -41.857  -6.477  31.730  1.00174.94     0.118 A 
HETATM   10  CBE   D T 445     -42.302  -7.492  36.018  1.00172.61     0.094 A 
HETATM   11  CBF   D T 445     -42.919  -7.741  33.592  1.00174.22     0.085 A 
HETATM   12  CBG   D T 445     -42.123  -7.135  34.582  1.00173.34     0.038 A 
ENDROOT
BRANCH  10  13
HETATM   13  NAU   D T 445     -41.431  -6.872  37.087  1.00171.92    -0.244 NA
BRANCH  13  14
HETATM   14  CBB   D T 445     -41.206  -5.489  37.541  1.00169.02     0.094 A 
HETATM   15  CAJ   D T 445     -39.996  -4.845  37.659  1.00169.48     0.045 A 
HETATM   16  CAX   D T 445     -39.855  -3.432  38.079  1.00166.40     0.106 A 
HETATM   17  CAY   D T 445     -41.001  -2.696  38.341  1.00162.90     0.081 A 
HETATM   18 CL1    D T 445     -40.952  -1.032  38.809  1.00167.07    -0.080 Cl
HETATM   19  CAI   D T 445     -42.243  -3.333  38.200  1.00162.68     0.026 A 
HETATM   20  CAZ   D T 445     -42.368  -4.680  37.806  1.00165.75     0.076 A 
HETATM   21 CL2    D T 445     -43.954  -5.314  37.685  1.00297.59    -0.081 Cl
BRANCH  16  22
HETATM   22  O02   D T 445     -38.610  -2.834  38.205  1.00167.55    -0.327 OA
HETATM   23  C01   D T 445     -38.227  -1.570  37.594  1.00  7.55     0.181 C 
ENDBRANCH  16  22
ENDBRANCH  13  14
ENDBRANCH  10  13
BRANCH   8  24
HETATM   24  OAV   D T 445     -40.079  -4.832  32.427  1.00174.06    -0.326 OA
HETATM   25  CAA   D T 445     -38.835  -5.199  31.956  1.00171.51     0.181 C 
ENDBRANCH   8  24
BRANCH   9  26
HETATM   26  OAW   D T 445     -41.806  -6.039  30.304  1.00176.22    -0.329 OA
BRANCH  26  27
HETATM   27  CAN   D T 445     -42.695  -5.069  29.887  1.00172.41     0.151 C 
BRANCH  27  28
HETATM   28  CAM   D T 445     -43.475  -5.656  28.712  1.00172.95     0.068 C 
BRANCH  28  29
HETATM   29  CAC   D T 445     -44.870  -5.030  28.639  1.00176.18     0.253 C 
BRANCH  29  30
HETATM   30  NBH   D T 445     -45.774  -6.046  28.087  1.00176.27     0.141 N 
HETATM   31  CAP   D T 445     -45.221  -7.401  28.174  1.00179.63     0.285 C 
HETATM   32  CAR   D T 445     -46.126  -8.447  27.552  1.00181.97     0.285 C 
HETATM   33  NBI   D T 445     -46.509  -8.102  26.206  1.00180.77     0.143 N 
HETATM   34  CAO   D T 445     -47.431  -9.094  25.648  1.00184.53     0.285 C 
HETATM   35  CAS   D T 445     -47.054  -6.776  26.190  1.00176.33     0.285 C 
HETATM   36  CAQ   D T 445     -46.125  -5.718  26.742  1.00174.56     0.285 C 
ENDBRANCH  29  30
ENDBRANCH  28  29
ENDBRANCH  27  28
ENDBRANCH  26  27
ENDBRANCH   9  26
TORSDOF 9
ENDMDL
MODEL 2
REMARK VINA RESULT:      -7.7      1.679      2.530
REMARK  9 active torsions:
REMARK  status: ('A' for Active; 'I' for Inactive)
REMARK    1  A    between atoms: O02_2  and  CAX_24 
REMARK    2  A    between atoms: CAC_3  and  CAM_13 
REMARK    3  A    between atoms: CAC_3  and  NBH_34 
REMARK    4  A    between atoms: CAM_13  and  CAN_14 
REMARK    5  A    between atoms: CAN_14  and  OAW_23 
REMARK    6  A    between atoms: NAU_21  and  CBB_28 
REMARK    7  A    between atoms: NAU_21  and  CBE_31 
REMARK    8  A    between atoms: OAV_22  and  CBC_29 
REMARK    9  A    between atoms: OAW_23  and  CBD_30 
ROOT
HETATM    1  NAD   D T 445     -43.636  -9.254  38.925  1.00172.85    -0.191 NA
HETATM    2  CAG   D T 445     -43.588  -9.032  37.897  1.00172.72     0.104 C 
HETATM    3  CAH   D T 445     -44.296  -9.313  35.432  1.00173.65     0.111 A 
HETATM    4  CAK   D T 445     -43.456  -7.854  32.096  1.00175.08     0.045 A 
HETATM    5  CAL   D T 445     -41.732  -6.406  33.784  1.00173.14     0.029 A 
HETATM    6  NAT   D T 445     -44.268  -9.043  34.066  1.00174.21    -0.243 NA
HETATM    7  CBA   D T 445     -43.499  -8.674  36.376  1.00172.91     0.105 A 
HETATM    8  CBC   D T 445     -41.728  -6.153  32.409  1.00173.92     0.116 A 
HETATM    9  CBD   D T 445     -42.591  -6.880  31.533  1.00174.94     0.118 A 
HETATM   10  CBE   D T 445     -42.631  -7.679  35.890  1.00172.61     0.094 A 
HETATM   11  CBF   D T 445     -43.430  -8.090  33.539  1.00174.22     0.085 A 
HETATM   12  CBG   D T 445     -42.588  -7.393  34.427  1.00173.34     0.038 A 
ENDROOT
BRANCH  10  13
HETATM   13  NAU   D T 445     -41.709  -6.960  36.849  1.00171.92    -0.244 NA
BRANCH  13  14
HETATM   14  CBB   D T 445     -41.510  -5.543  37.200  1.00169.02     0.094 A 
HETATM   15  CAJ   D T 445     -40.384  -4.788  36.972  1.00169.48     0.045 A 
HETATM   16  CAX   D T 445     -40.276  -3.350  37.312  1.00166.40     0.106 A 
HETATM   17  CAY   D T 445     -41.377  -2.711  37.864  1.00162.90     0.081 A 
HETATM   18 CL1    D T 445     -41.369  -1.030  38.272  1.00167.07    -0.080 Cl
HETATM   19  CAI   D T 445     -42.540  -3.464  38.078  1.00162.68     0.026 A 
HETATM   20  CAZ   D T 445     -42.632  -4.833  37.757  1.00165.75     0.076 A 
HETATM   21 CL2    D T 445     -44.120  -5.613  38.084  1.00297.59    -0.081 Cl
BRANCH  16  22
HETATM   22  O02   D T 445     -39.110  -2.635  37.084  1.00167.55    -0.327 OA
HETATM   23  C01   D T 445     -38.338  -1.950  38.110  1.00  7.55     0.181 C 
ENDBRANCH  16  22
ENDBRANCH  13  14
ENDBRANCH  10  13
BRANCH   8  24
HETATM   24  OAV   D T 445     -40.850  -5.116  31.994  1.00174.06    -0.326 OA
HETATM   25  CAA   D T 445     -39.602  -5.017  32.576  1.00171.51     0.181 C 
ENDBRANCH   8  24
BRANCH   9  26
HETATM   26  OAW   D T 445     -42.679  -6.519  30.087  1.00176.22    -0.329 OA
BRANCH  26  27
HETATM   27  CAN   D T 445     -43.873  -6.739  29.432  1.00172.41     0.151 C 
BRANCH  27  28
HETATM   28  CAM   D T 445     -44.602  -5.398  29.372  1.00172.95     0.068 C 
BRANCH  28  29
HETATM   29  CAC   D T 445     -45.581  -5.382  28.195  1.00176.18     0.253 C 
BRANCH  29  30
HETATM   30  NBH   D T 445     -45.176  -4.284  27.308  1.00176.27     0.141 N 
HETATM   31  CAP   D T 445     -44.379  -4.743  26.168  1.00179.63     0.285 C 
HETATM   32  CAR   D T 445     -43.909  -3.606  25.281  1.00181.97     0.285 C 
HETATM   33  NBI   D T 445     -43.238  -2.574  26.032  1.00180.77     0.143 N 
HETATM   34  CAO   D T 445     -42.849  -1.459  25.166  1.00184.53     0.285 C 
HETATM   35  CAS   D T 445     -44.073  -2.159  27.121  1.00176.33     0.285 C 
HETATM   36  CAQ   D T 445     -44.483  -3.279  28.049  1.00174.56     0.285 C 
ENDBRANCH  29  30
ENDBRANCH  28  29
ENDBRANCH  27  28
ENDBRANCH  26  27
ENDBRANCH   9  26
TORSDOF 9
ENDMDL
MODEL 3
REMARK VINA RESULT:      -7.7      2.874      5.588
REMARK  9 active torsions:
REMARK  status: ('A' for Active; 'I' for Inactive)
REMARK    1  A    between atoms: O02_2  and  CAX_24 
REMARK    2  A    between atoms: CAC_3  and  CAM_13 
REMARK    3  A    between atoms: CAC_3  and  NBH_34 
REMARK    4  A    between atoms: CAM_13  and  CAN_14 
REMARK    5  A    between atoms: CAN_14  and  OAW_23 
REMARK    6  A    between atoms: NAU_21  and  CBB_28 
REMARK    7  A    between atoms: NAU_21  and  CBE_31 
REMARK    8  A    between atoms: OAV_22  and  CBC_29 
REMARK    9  A    between atoms: OAW_23  and  CBD_30 
ROOT
HETATM    1  NAD   D T 445     -43.012  -6.708  39.175  1.00172.85    -0.191 NA
HETATM    2  CAG   D T 445     -42.561  -6.429  38.265  1.00172.72     0.104 C 
HETATM    3  CAH   D T 445     -41.230  -4.838  36.732  1.00173.65     0.111 A 
HETATM    4  CAK   D T 445     -39.943  -4.757  33.225  1.00175.08     0.045 A 
HETATM    5  CAL   D T 445     -41.215  -7.266  33.290  1.00173.14     0.029 A 
HETATM    6  NAT   D T 445     -40.614  -4.437  35.548  1.00174.21    -0.243 NA
HETATM    7  CBA   D T 445     -41.893  -6.048  36.903  1.00172.91     0.105 A 
HETATM    8  CBC   D T 445     -40.587  -6.840  32.117  1.00173.92     0.116 A 
HETATM    9  CBD   D T 445     -39.939  -5.567  32.060  1.00174.94     0.118 A 
HETATM   10  CBE   D T 445     -41.909  -6.913  35.792  1.00172.61     0.094 A 
HETATM   11  CBF   D T 445     -40.613  -5.239  34.433  1.00174.22     0.085 A 
HETATM   12  CBG   D T 445     -41.262  -6.485  34.519  1.00173.34     0.038 A 
ENDROOT
BRANCH  10  13
HETATM   13  NAU   D T 445     -42.638  -8.234  35.887  1.00171.92    -0.244 NA
BRANCH  13  14
HETATM   14  CBB   D T 445     -43.916  -8.733  35.349  1.00169.02     0.094 A 
HETATM   15  CAJ   D T 445     -44.330  -8.694  34.038  1.00169.48     0.045 A 
HETATM   16  CAX   D T 445     -45.615  -9.260  33.565  1.00166.40     0.106 A 
HETATM   17  CAY   D T 445     -46.441  -9.895  34.481  1.00162.90     0.081 A 
HETATM   18 CL1    D T 445     -47.948 -10.617  34.031  1.00167.07    -0.080 Cl
HETATM   19  CAI   D T 445     -46.018  -9.965  35.816  1.00162.68     0.026 A 
HETATM   20  CAZ   D T 445     -44.797  -9.418  36.259  1.00165.75     0.076 A 
HETATM   21 CL2    D T 445     -44.427  -9.580  37.922  1.00297.59    -0.081 Cl
BRANCH  16  22
HETATM   22  O02   D T 445     -46.000  -9.175  32.236  1.00167.55    -0.327 OA
HETATM   23  C01   D T 445     -45.225  -8.538  31.182  1.00  7.55     0.181 C 
ENDBRANCH  16  22
ENDBRANCH  13  14
ENDBRANCH  10  13
BRANCH   8  24
HETATM   24  OAV   D T 445     -40.616  -7.775  31.048  1.00174.06    -0.326 OA
HETATM   25  CAA   D T 445     -41.821  -8.341  30.682  1.00171.51     0.181 C 
ENDBRANCH   8  24
BRANCH   9  26
HETATM   26  OAW   D T 445     -39.159  -5.171  30.851  1.00176.22    -0.329 OA
BRANCH  26  27
HETATM   27  CAN   D T 445     -39.106  -3.832  30.519  1.00172.41     0.151 C 
BRANCH  27  28
HETATM   28  CAM   D T 445     -40.190  -3.591  29.469  1.00172.95     0.068 C 
BRANCH  28  29
HETATM   29  CAC   D T 445     -40.220  -4.748  28.466  1.00176.18     0.253 C 
BRANCH  29  30
HETATM   30  NBH   D T 445     -41.628  -5.002  28.140  1.00176.27     0.141 N 
HETATM   31  CAP   D T 445     -42.487  -5.031  29.326  1.00179.63     0.285 C 
HETATM   32  CAR   D T 445     -43.933  -5.351  28.998  1.00181.97     0.285 C 
HETATM   33  NBI   D T 445     -44.058  -6.550  28.208  1.00180.77     0.143 N 
HETATM   34  CAO   D T 445     -45.456  -6.805  27.852  1.00184.53     0.285 C 
HETATM   35  CAS   D T 445     -43.207  -6.454  27.058  1.00176.33     0.285 C 
HETATM   36  CAQ   D T 445     -41.752  -6.208  27.384  1.00174.56     0.285 C 
ENDBRANCH  29  30
ENDBRANCH  28  29
ENDBRANCH  27  28
ENDBRANCH  26  27
ENDBRANCH   9  26
TORSDOF 9
ENDMDL
MODEL 4
REMARK VINA RESULT:      -7.5      3.809      9.850
REMARK  9 active torsions:
REMARK  status: ('A' for Active; 'I' for Inactive)
REMARK    1  A    between atoms: O02_2  and  CAX_24 
REMARK    2  A    between atoms: CAC_3  and  CAM_13 
REMARK    3  A    between atoms: CAC_3  and  NBH_34 
REMARK    4  A    between atoms: CAM_13  and  CAN_14 
REMARK    5  A    between atoms: CAN_14  and  OAW_23 
REMARK    6  A    between atoms: NAU_21  and  CBB_28 
REMARK    7  A    between atoms: NAU_21  and  CBE_31 
REMARK    8  A    between atoms: OAV_22  and  CBC_29 
REMARK    9  A    between atoms: OAW_23  and  CBD_30 
ROOT
HETATM    1  NAD   D T 445     -38.734  -4.755  28.159  1.00172.85    -0.191 NA
HETATM    2  CAG   D T 445     -39.138  -4.903  29.120  1.00172.72     0.104 C 
HETATM    3  CAH   D T 445     -39.192  -4.600  31.682  1.00173.65     0.111 A 
HETATM    4  CAK   D T 445     -41.326  -5.616  34.575  1.00175.08     0.045 A 
HETATM    5  CAL   D T 445     -42.700  -6.809  32.428  1.00173.14     0.029 A 
HETATM    6  NAT   D T 445     -39.700  -4.766  32.968  1.00174.21    -0.243 NA
HETATM    7  CBA   D T 445     -39.768  -5.134  30.534  1.00172.91     0.105 A 
HETATM    8  CBC   D T 445     -43.189  -6.957  33.730  1.00173.92     0.116 A 
HETATM    9  CBD   D T 445     -42.504  -6.365  34.835  1.00174.94     0.118 A 
HETATM   10  CBE   D T 445     -40.954  -5.871  30.715  1.00172.61     0.094 A 
HETATM   11  CBF   D T 445     -40.847  -5.487  33.199  1.00174.22     0.085 A 
HETATM   12  CBG   D T 445     -41.496  -6.062  32.091  1.00173.34     0.038 A 
ENDROOT
BRANCH  10  13
HETATM   13  NAU   D T 445     -41.624  -6.511  29.520  1.00171.92    -0.244 NA
BRANCH  13  14
HETATM   14  CBB   D T 445     -42.912  -6.294  28.838  1.00169.02     0.094 A 
HETATM   15  CAJ   D T 445     -43.451  -5.087  28.458  1.00169.48     0.045 A 
HETATM   16  CAX   D T 445     -44.735  -4.953  27.731  1.00166.40     0.106 A 
HETATM   17  CAY   D T 445     -45.427  -6.104  27.383  1.00162.90     0.081 A 
HETATM   18 CL1    D T 445     -46.919  -6.063  26.508  1.00167.07    -0.080 Cl
HETATM   19  CAI   D T 445     -44.876  -7.342  27.742  1.00162.68     0.026 A 
HETATM   20  CAZ   D T 445     -43.656  -7.460  28.439  1.00165.75     0.076 A 
HETATM   21 CL2    D T 445     -43.120  -9.042  28.810  1.00297.59    -0.081 Cl
BRANCH  16  22
HETATM   22  O02   D T 445     -45.249  -3.712  27.389  1.00167.55    -0.327 OA
HETATM   23  C01   D T 445     -44.452  -2.554  27.013  1.00  7.55     0.181 C 
ENDBRANCH  16  22
ENDBRANCH  13  14
ENDBRANCH  10  13
BRANCH   8  24
HETATM   24  OAV   D T 445     -44.404  -7.686  33.833  1.00174.06    -0.326 OA
HETATM   25  CAA   D T 445     -44.357  -9.035  34.118  1.00171.51     0.181 C 
ENDBRANCH   8  24
BRANCH   9  26
HETATM   26  OAW   D T 445     -43.098  -6.413  36.204  1.00176.22    -0.329 OA
BRANCH  26  27
HETATM   27  CAN   D T 445     -42.500  -7.226  37.145  1.00172.41     0.151 C 
BRANCH  27  28
HETATM   28  CAM   D T 445     -41.720  -6.315  38.091  1.00172.95     0.068 C 
BRANCH  28  29
HETATM   29  CAC   D T 445     -42.537  -5.059  38.406  1.00176.18     0.253 C 
BRANCH  29  30
HETATM   30  NBH   D T 445     -41.610  -3.921  38.382  1.00176.27     0.141 N 
HETATM   31  CAP   D T 445     -42.044  -2.858  37.473  1.00179.63     0.285 C 
HETATM   32  CAR   D T 445     -41.061  -1.705  37.401  1.00181.97     0.285 C 
HETATM   33  NBI   D T 445     -39.721  -2.153  37.113  1.00180.77     0.143 N 
HETATM   34  CAO   D T 445     -38.778  -1.031  37.110  1.00184.53     0.285 C 
HETATM   35  CAS   D T 445     -39.351  -3.179  38.044  1.00176.33     0.285 C 
HETATM   36  CAQ   D T 445     -40.290  -4.363  38.065  1.00174.56     0.285 C 
ENDBRANCH  29  30
ENDBRANCH  28  29
ENDBRANCH  27  28
ENDBRANCH  26  27
ENDBRANCH   9  26
TORSDOF 9
ENDMDL
MODEL 5
REMARK VINA RESULT:      -7.4      3.582     10.045
REMARK  9 active torsions:
REMARK  status: ('A' for Active; 'I' for Inactive)
REMARK    1  A    between atoms: O02_2  and  CAX_24 
REMARK    2  A    between atoms: CAC_3  and  CAM_13 
REMARK    3  A    between atoms: CAC_3  and  NBH_34 
REMARK    4  A    between atoms: CAM_13  and  CAN_14 
REMARK    5  A    between atoms: CAN_14  and  OAW_23 
REMARK    6  A    between atoms: NAU_21  and  CBB_28 
REMARK    7  A    between atoms: NAU_21  and  CBE_31 
REMARK    8  A    between atoms: OAV_22  and  CBC_29 
REMARK    9  A    between atoms: OAW_23  and  CBD_30 
ROOT
HETATM    1  NAD   D T 445     -38.691  -5.041  28.241  1.00172.85    -0.191 NA
HETATM    2  CAG   D T 445     -39.151  -5.143  29.183  1.00172.72     0.104 C 
HETATM    3  CAH   D T 445     -39.357  -4.711  31.719  1.00173.65     0.111 A 
HETATM    4  CAK   D T 445     -41.656  -5.594  34.529  1.00175.08     0.045 A 
HETATM    5  CAL   D T 445     -42.896  -6.903  32.368  1.00173.14     0.029 A 
HETATM    6  NAT   D T 445     -39.940  -4.816  32.979  1.00174.21    -0.243 NA
HETATM    7  CBA   D T 445     -39.862  -5.306  30.567  1.00172.91     0.105 A 
HETATM    8  CBC   D T 445     -43.460  -6.988  33.644  1.00173.92     0.116 A 
HETATM    9  CBD   D T 445     -42.844  -6.335  34.757  1.00174.94     0.118 A 
HETATM   10  CBE   D T 445     -41.054  -6.040  30.716  1.00172.61     0.094 A 
HETATM   11  CBF   D T 445     -41.096  -5.531  33.179  1.00174.22     0.085 A 
HETATM   12  CBG   D T 445     -41.676  -6.165  32.065  1.00173.34     0.038 A 
ENDROOT
BRANCH  10  13
HETATM   13  NAU   D T 445     -41.650  -6.745  29.517  1.00171.92    -0.244 NA
BRANCH  13  14
HETATM   14  CBB   D T 445     -42.953  -6.665  28.834  1.00169.02     0.094 A 
HETATM   15  CAJ   D T 445     -43.871  -7.678  28.687  1.00169.48     0.045 A 
HETATM   16  CAX   D T 445     -45.185  -7.507  28.026  1.00166.40     0.106 A 
HETATM   17  CAY   D T 445     -45.535  -6.251  27.552  1.00162.90     0.081 A 
HETATM   18 CL1    D T 445     -47.056  -5.934  26.791  1.00167.07    -0.080 Cl
HETATM   19  CAI   D T 445     -44.619  -5.203  27.718  1.00162.68     0.026 A 
HETATM   20  CAZ   D T 445     -43.367  -5.376  28.343  1.00165.75     0.076 A 
HETATM   21 CL2    D T 445     -42.359  -3.998  28.466  1.00297.59    -0.081 Cl
BRANCH  16  22
HETATM   22  O02   D T 445     -46.068  -8.567  27.880  1.00167.55    -0.327 OA
HETATM   23  C01   D T 445     -45.886  -9.684  26.967  1.00  7.55     0.181 C 
ENDBRANCH  16  22
ENDBRANCH  13  14
ENDBRANCH  10  13
BRANCH   8  24
HETATM   24  OAV   D T 445     -44.676  -7.718  33.713  1.00174.06    -0.326 OA
HETATM   25  CAA   D T 445     -44.648  -9.036  34.122  1.00171.51     0.181 C 
ENDBRANCH   8  24
BRANCH   9  26
HETATM   26  OAW   D T 445     -43.517  -6.318  36.089  1.00176.22    -0.329 OA
BRANCH  26  27
HETATM   27  CAN   D T 445     -43.040  -7.162  37.071  1.00172.41     0.151 C 
BRANCH  27  28
HETATM   28  CAM   D T 445     -42.442  -6.279  38.165  1.00172.95     0.068 C 
BRANCH  28  29
HETATM   29  CAC   D T 445     -42.913  -4.833  37.992  1.00176.18     0.253 C 
BRANCH  29  30
HETATM   30  NBH   D T 445     -41.779  -3.964  38.327  1.00176.27     0.141 N 
HETATM   31  CAP   D T 445     -41.969  -2.584  37.872  1.00179.63     0.285 C 
HETATM   32  CAR   D T 445     -40.775  -1.697  38.166  1.00181.97     0.285 C 
HETATM   33  NBI   D T 445     -39.544  -2.265  37.677  1.00180.77     0.143 N 
HETATM   34  CAO   D T 445     -38.398  -1.422  38.025  1.00184.53     0.285 C 
HETATM   35  CAS   D T 445     -39.410  -3.605  38.168  1.00176.33     0.285 C 
HETATM   36  CAQ   D T 445     -40.565  -4.513  37.814  1.00174.56     0.285 C 
ENDBRANCH  29  30
ENDBRANCH  28  29
ENDBRANCH  27  28
ENDBRANCH  26  27
ENDBRANCH   9  26
TORSDOF 9
ENDMDL
MODEL 6
REMARK VINA RESULT:      -7.3      2.018      3.116
REMARK  9 active torsions:
REMARK  status: ('A' for Active; 'I' for Inactive)
REMARK    1  A    between atoms: O02_2  and  CAX_24 
REMARK    2  A    between atoms: CAC_3  and  CAM_13 
REMARK    3  A    between atoms: CAC_3  and  NBH_34 
REMARK    4  A    between atoms: CAM_13  and  CAN_14 
REMARK    5  A    between atoms: CAN_14  and  OAW_23 
REMARK    6  A    between atoms: NAU_21  and  CBB_28 
REMARK    7  A    between atoms: NAU_21  and  CBE_31 
REMARK    8  A    between atoms: OAV_22  and  CBC_29 
REMARK    9  A    between atoms: OAW_23  and  CBD_30 
ROOT
HETATM    1  NAD   D T 445     -44.473  -9.914  38.224  1.00172.85    -0.191 NA
HETATM    2  CAG   D T 445     -44.481  -9.771  37.181  1.00172.72     0.104 C 
HETATM    3  CAH   D T 445     -44.715 -10.562  34.736  1.00173.65     0.111 A 
HETATM    4  CAK   D T 445     -44.600  -9.101  31.299  1.00175.08     0.045 A 
HETATM    5  CAL   D T 445     -44.136  -6.823  32.885  1.00173.14     0.029 A 
HETATM    6  NAT   D T 445     -44.741 -10.412  33.352  1.00174.21    -0.243 NA
HETATM    7  CBA   D T 445     -44.496  -9.524  35.636  1.00172.91     0.105 A 
HETATM    8  CBC   D T 445     -44.170  -6.702  31.493  1.00173.92     0.116 A 
HETATM    9  CBD   D T 445     -44.399  -7.846  30.668  1.00174.94     0.118 A 
HETATM   10  CBE   D T 445     -44.311  -8.245  35.079  1.00172.61     0.094 A 
HETATM   11  CBF   D T 445     -44.554  -9.187  32.759  1.00174.22     0.085 A 
HETATM   12  CBG   D T 445     -44.327  -8.080  33.597  1.00173.34     0.038 A 
ENDROOT
BRANCH  10  13
HETATM   13  NAU   D T 445     -44.036  -7.068  35.989  1.00171.92    -0.244 NA
BRANCH  13  14
HETATM   14  CBB   D T 445     -42.823  -6.299  36.318  1.00169.02     0.094 A 
HETATM   15  CAJ   D T 445     -41.950  -5.715  35.431  1.00169.48     0.045 A 
HETATM   16  CAX   D T 445     -40.773  -4.915  35.842  1.00166.40     0.106 A 
HETATM   17  CAY   D T 445     -40.546  -4.710  37.195  1.00162.90     0.081 A 
HETATM   18 CL1    D T 445     -39.220  -3.767  37.783  1.00167.07    -0.080 Cl
HETATM   19  CAI   D T 445     -41.444  -5.278  38.110  1.00162.68     0.026 A 
HETATM   20  CAZ   D T 445     -42.557  -6.044  37.711  1.00165.75     0.076 A 
HETATM   21 CL2    D T 445     -43.556  -6.674  38.949  1.00297.59    -0.081 Cl
BRANCH  16  22
HETATM   22  O02   D T 445     -39.907  -4.365  34.909  1.00167.55    -0.327 OA
HETATM   23  C01   D T 445     -39.802  -4.785  33.520  1.00  7.55     0.181 C 
ENDBRANCH  16  22
ENDBRANCH  13  14
ENDBRANCH  10  13
BRANCH   8  24
HETATM   24  OAV   D T 445     -44.008  -5.378  31.003  1.00174.06    -0.326 OA
HETATM   25  CAA   D T 445     -42.969  -5.105  30.136  1.00171.51     0.181 C 
ENDBRANCH   8  24
BRANCH   9  26
HETATM   26  OAW   D T 445     -44.566  -7.692  29.193  1.00176.22    -0.329 OA
BRANCH  26  27
HETATM   27  CAN   D T 445     -43.729  -8.411  28.364  1.00172.41     0.151 C 
BRANCH  27  28
HETATM   28  CAM   D T 445     -44.421  -8.505  27.005  1.00172.95     0.068 C 
BRANCH  28  29
HETATM   29  CAC   D T 445     -45.753  -7.751  27.039  1.00176.18     0.253 C 
BRANCH  29  30
HETATM   30  NBH   D T 445     -46.709  -8.525  26.237  1.00176.27     0.141 N 
HETATM   31  CAP   D T 445     -47.869  -7.732  25.820  1.00179.63     0.285 C 
HETATM   32  CAR   D T 445     -48.887  -8.542  25.040  1.00181.97     0.285 C 
HETATM   33  NBI   D T 445     -49.273  -9.744  25.737  1.00180.77     0.143 N 
HETATM   34  CAO   D T 445     -50.208 -10.540  24.939  1.00184.53     0.285 C 
HETATM   35  CAS   D T 445     -48.098 -10.480  26.103  1.00176.33     0.285 C 
HETATM   36  CAQ   D T 445     -47.114  -9.698  26.943  1.00174.56     0.285 C 
ENDBRANCH  29  30
ENDBRANCH  28  29
ENDBRANCH  27  28
ENDBRANCH  26  27
ENDBRANCH   9  26
TORSDOF 9
ENDMDL
MODEL 7
REMARK VINA RESULT:      -7.2      2.236      2.514
REMARK  9 active torsions:
REMARK  status: ('A' for Active; 'I' for Inactive)
REMARK    1  A    between atoms: O02_2  and  CAX_24 
REMARK    2  A    between atoms: CAC_3  and  CAM_13 
REMARK    3  A    between atoms: CAC_3  and  NBH_34 
REMARK    4  A    between atoms: CAM_13  and  CAN_14 
REMARK    5  A    between atoms: CAN_14  and  OAW_23 
REMARK    6  A    between atoms: NAU_21  and  CBB_28 
REMARK    7  A    between atoms: NAU_21  and  CBE_31 
REMARK    8  A    between atoms: OAV_22  and  CBC_29 
REMARK    9  A    between atoms: OAW_23  and  CBD_30 
ROOT
HETATM    1  NAD   D T 445     -43.645  -9.257  38.864  1.00172.85    -0.191 NA
HETATM    2  CAG   D T 445     -43.568  -9.037  37.837  1.00172.72     0.104 C 
HETATM    3  CAH   D T 445     -44.202  -9.322  35.353  1.00173.65     0.111 A 
HETATM    4  CAK   D T 445     -43.266  -7.866  32.042  1.00175.08     0.045 A 
HETATM    5  CAL   D T 445     -41.594  -6.414  33.777  1.00173.14     0.029 A 
HETATM    6  NAT   D T 445     -44.134  -9.053  33.988  1.00174.21    -0.243 NA
HETATM    7  CBA   D T 445     -43.435  -8.681  36.320  1.00172.91     0.105 A 
HETATM    8  CBC   D T 445     -41.549  -6.163  32.402  1.00173.92     0.116 A 
HETATM    9  CBD   D T 445     -42.385  -6.892  31.503  1.00174.94     0.118 A 
HETATM   10  CBE   D T 445     -42.553  -7.685  35.857  1.00172.61     0.094 A 
HETATM   11  CBF   D T 445     -43.282  -8.100  33.485  1.00174.22     0.085 A 
HETATM   12  CBG   D T 445     -42.468  -7.401  34.396  1.00173.34     0.038 A 
ENDROOT
BRANCH  10  13
HETATM   13  NAU   D T 445     -41.661  -6.964  36.842  1.00171.92    -0.244 NA
BRANCH  13  14
HETATM   14  CBB   D T 445     -41.467  -5.546  37.191  1.00169.02     0.094 A 
HETATM   15  CAJ   D T 445     -40.342  -4.787  36.966  1.00169.48     0.045 A 
HETATM   16  CAX   D T 445     -40.240  -3.349  37.304  1.00166.40     0.106 A 
HETATM   17  CAY   D T 445     -41.346  -2.712  37.850  1.00162.90     0.081 A 
HETATM   18 CL1    D T 445     -41.345  -1.030  38.254  1.00167.07    -0.080 Cl
HETATM   19  CAI   D T 445     -42.508  -3.468  38.061  1.00162.68     0.026 A 
HETATM   20  CAZ   D T 445     -42.594  -4.838  37.742  1.00165.75     0.076 A 
HETATM   21 CL2    D T 445     -44.081  -5.622  38.064  1.00297.59    -0.081 Cl
BRANCH  16  22
HETATM   22  O02   D T 445     -39.076  -2.631  37.080  1.00167.55    -0.327 OA
HETATM   23  C01   D T 445     -38.357  -1.871  38.091  1.00  7.55     0.181 C 
ENDBRANCH  16  22
ENDBRANCH  13  14
ENDBRANCH  10  13
BRANCH   8  24
HETATM   24  OAV   D T 445     -40.661  -5.125  32.012  1.00174.06    -0.326 OA
HETATM   25  CAA   D T 445     -39.529  -4.890  32.766  1.00171.51     0.181 C 
ENDBRANCH   8  24
BRANCH   9  26
HETATM   26  OAW   D T 445     -42.431  -6.532  30.055  1.00176.22    -0.329 OA
BRANCH  26  27
HETATM   27  CAN   D T 445     -41.391  -6.946  29.247  1.00172.41     0.151 C 
BRANCH  27  28
HETATM   28  CAM   D T 445     -41.598  -8.436  28.983  1.00172.95     0.068 C 
BRANCH  28  29
HETATM   29  CAC   D T 445     -40.636  -8.918  27.893  1.00176.18     0.253 C 
BRANCH  29  30
HETATM   30  NBH   D T 445     -41.427  -9.685  26.924  1.00176.27     0.141 N 
HETATM   31  CAP   D T 445     -41.971  -8.849  25.850  1.00179.63     0.285 C 
HETATM   32  CAR   D T 445     -42.837  -9.628  24.878  1.00181.97     0.285 C 
HETATM   33  NBI   D T 445     -43.863 -10.383  25.551  1.00180.77     0.143 N 
HETATM   34  CAO   D T 445     -44.647 -11.174  24.600  1.00184.53     0.285 C 
HETATM   35  CAS   D T 445     -43.267 -11.189  26.577  1.00176.33     0.285 C 
HETATM   36  CAQ   D T 445     -42.464 -10.406  27.590  1.00174.56     0.285 C 
ENDBRANCH  29  30
ENDBRANCH  28  29
ENDBRANCH  27  28
ENDBRANCH  26  27
ENDBRANCH   9  26
TORSDOF 9
ENDMDL
MODEL 8
REMARK VINA RESULT:      -7.1      2.120      3.287
REMARK  9 active torsions:
REMARK  status: ('A' for Active; 'I' for Inactive)
REMARK    1  A    between atoms: O02_2  and  CAX_24 
REMARK    2  A    between atoms: CAC_3  and  CAM_13 
REMARK    3  A    between atoms: CAC_3  and  NBH_34 
REMARK    4  A    between atoms: CAM_13  and  CAN_14 
REMARK    5  A    between atoms: CAN_14  and  OAW_23 
REMARK    6  A    between atoms: NAU_21  and  CBB_28 
REMARK    7  A    between atoms: NAU_21  and  CBE_31 
REMARK    8  A    between atoms: OAV_22  and  CBC_29 
REMARK    9  A    between atoms: OAW_23  and  CBD_30 
ROOT
HETATM    1  NAD   D T 445     -44.392 -10.045  36.077  1.00172.85    -0.191 NA
HETATM    2  CAG   D T 445     -44.373  -9.661  35.096  1.00172.72     0.104 C 
HETATM    3  CAH   D T 445     -45.304  -9.357  32.709  1.00173.65     0.111 A 
HETATM    4  CAK   D T 445     -44.413  -7.538  29.570  1.00175.08     0.045 A 
HETATM    5  CAL   D T 445     -42.296  -6.786  31.264  1.00173.14     0.029 A 
HETATM    6  NAT   D T 445     -45.318  -8.863  31.407  1.00174.21    -0.243 NA
HETATM    7  CBA   D T 445     -44.320  -9.068  33.649  1.00172.91     0.105 A 
HETATM    8  CBC   D T 445     -42.337  -6.304  29.953  1.00173.92     0.116 A 
HETATM    9  CBD   D T 445     -43.400  -6.676  29.074  1.00174.94     0.118 A 
HETATM   10  CBE   D T 445     -43.294  -8.200  33.232  1.00172.61     0.094 A 
HETATM   11  CBF   D T 445     -44.333  -8.022  30.947  1.00174.22     0.085 A 
HETATM   12  CBG   D T 445     -43.297  -7.677  31.836  1.00173.34     0.038 A 
ENDROOT
BRANCH  10  13
HETATM   13  NAU   D T 445     -42.170  -7.862  34.185  1.00171.92    -0.244 NA
BRANCH  13  14
HETATM   14  CBB   D T 445     -42.024  -6.890  35.282  1.00169.02     0.094 A 
HETATM   15  CAJ   D T 445     -42.542  -6.995  36.552  1.00169.48     0.045 A 
HETATM   16  CAX   D T 445     -42.311  -5.994  37.619  1.00166.40     0.106 A 
HETATM   17  CAY   D T 445     -41.504  -4.900  37.344  1.00162.90     0.081 A 
HETATM   18 CL1    D T 445     -41.146  -3.688  38.525  1.00167.07    -0.080 Cl
HETATM   19  CAI   D T 445     -40.949  -4.793  36.061  1.00162.68     0.026 A 
HETATM   20  CAZ   D T 445     -41.178  -5.747  35.049  1.00165.75     0.076 A 
HETATM   21 CL2    D T 445     -40.433  -5.472  33.533  1.00297.59    -0.081 Cl
BRANCH  16  22
HETATM   22  O02   D T 445     -42.875  -6.133  38.878  1.00167.55    -0.327 OA
HETATM   23  C01   D T 445     -43.862  -7.137  39.244  1.00  7.55     0.181 C 
ENDBRANCH  16  22
ENDBRANCH  13  14
ENDBRANCH  10  13
BRANCH   8  24
HETATM   24  OAV   D T 445     -41.288  -5.409  29.611  1.00174.06    -0.326 OA
HETATM   25  CAA   D T 445     -39.979  -5.800  29.812  1.00171.51     0.181 C 
ENDBRANCH   8  24
BRANCH   9  26
HETATM   26  OAW   D T 445     -43.513  -6.057  27.720  1.00176.22    -0.329 OA
BRANCH  26  27
HETATM   27  CAN   D T 445     -43.998  -4.768  27.631  1.00172.41     0.151 C 
BRANCH  27  28
HETATM   28  CAM   D T 445     -45.422  -4.864  27.088  1.00172.95     0.068 C 
BRANCH  28  29
HETATM   29  CAC   D T 445     -45.491  -5.908  25.970  1.00176.18     0.253 C 
BRANCH  29  30
HETATM   30  NBH   D T 445     -46.619  -6.797  26.274  1.00176.27     0.141 N 
HETATM   31  CAP   D T 445     -46.220  -8.203  26.371  1.00179.63     0.285 C 
HETATM   32  CAR   D T 445     -47.391  -9.132  26.629  1.00181.97     0.285 C 
HETATM   33  NBI   D T 445     -48.458  -8.934  25.680  1.00180.77     0.143 N 
HETATM   34  CAO   D T 445     -49.603  -9.796  25.985  1.00184.53     0.285 C 
HETATM   35  CAS   D T 445     -48.812  -7.545  25.643  1.00176.33     0.285 C 
HETATM   36  CAQ   D T 445     -47.661  -6.622  25.314  1.00174.56     0.285 C 
ENDBRANCH  29  30
ENDBRANCH  28  29
ENDBRANCH  27  28
ENDBRANCH  26  27
ENDBRANCH   9  26
TORSDOF 9
ENDMDL
MODEL 9
REMARK VINA RESULT:      -7.0      1.874      2.210
REMARK  9 active torsions:
REMARK  status: ('A' for Active; 'I' for Inactive)
REMARK    1  A    between atoms: O02_2  and  CAX_24 
REMARK    2  A    between atoms: CAC_3  and  CAM_13 
REMARK    3  A    between atoms: CAC_3  and  NBH_34 
REMARK    4  A    between atoms: CAM_13  and  CAN_14 
REMARK    5  A    between atoms: CAN_14  and  OAW_23 
REMARK    6  A    between atoms: NAU_21  and  CBB_28 
REMARK    7  A    between atoms: NAU_21  and  CBE_31 
REMARK    8  A    between atoms: OAV_22  and  CBC_29 
REMARK    9  A    between atoms: OAW_23  and  CBD_30 
ROOT
HETATM    1  NAD   D T 445     -45.735  -9.601  36.237  1.00172.85    -0.191 NA
HETATM    2  CAG   D T 445     -45.222  -9.329  35.358  1.00172.72     0.104 C 
HETATM    3  CAH   D T 445     -44.478  -9.670  32.911  1.00173.65     0.111 A 
HETATM    4  CAK   D T 445     -42.427  -7.900  30.338  1.00175.08     0.045 A 
HETATM    5  CAL   D T 445     -42.213  -6.140  32.523  1.00173.14     0.029 A 
HETATM    6  NAT   D T 445     -43.821  -9.341  31.728  1.00174.21    -0.243 NA
HETATM    7  CBA   D T 445     -44.457  -8.893  34.065  1.00172.91     0.105 A 
HETATM    8  CBC   D T 445     -41.565  -5.834  31.322  1.00173.92     0.116 A 
HETATM    9  CBD   D T 445     -41.656  -6.716  30.202  1.00174.94     0.118 A 
HETATM   10  CBE   D T 445     -43.728  -7.691  33.994  1.00172.61     0.094 A 
HETATM   11  CBF   D T 445     -43.087  -8.185  31.612  1.00174.22     0.085 A 
HETATM   12  CBG   D T 445     -43.013  -7.339  32.734  1.00173.34     0.038 A 
ENDROOT
BRANCH  10  13
HETATM   13  NAU   D T 445     -43.630  -6.806  35.216  1.00171.92    -0.244 NA
BRANCH  13  14
HETATM   14  CBB   D T 445     -42.504  -6.177  35.929  1.00169.02     0.094 A 
HETATM   15  CAJ   D T 445     -41.996  -4.916  35.721  1.00169.48     0.045 A 
HETATM   16  CAX   D T 445     -40.888  -4.335  36.513  1.00166.40     0.106 A 
HETATM   17  CAY   D T 445     -40.344  -5.084  37.547  1.00162.90     0.081 A 
HETATM   18 CL1    D T 445     -39.068  -4.490  38.553  1.00167.07    -0.080 Cl
HETATM   19  CAI   D T 445     -40.869  -6.361  37.787  1.00162.68     0.026 A 
HETATM   20  CAZ   D T 445     -41.920  -6.909  37.024  1.00165.75     0.076 A 
HETATM   21 CL2    D T 445     -42.447  -8.484  37.438  1.00297.59    -0.081 Cl
BRANCH  16  22
HETATM   22  O02   D T 445     -40.394  -3.067  36.249  1.00167.55    -0.327 OA
HETATM   23  C01   D T 445     -40.840  -1.846  36.904  1.00  7.55     0.181 C 
ENDBRANCH  16  22
ENDBRANCH  13  14
ENDBRANCH  10  13
BRANCH   8  24
HETATM   24  OAV   D T 445     -40.876  -4.592  31.314  1.00174.06    -0.326 OA
HETATM   25  CAA   D T 445     -39.507  -4.581  31.484  1.00171.51     0.181 C 
ENDBRANCH   8  24
BRANCH   9  26
HETATM   26  OAW   D T 445     -41.076  -6.325  28.884  1.00176.22    -0.329 OA
BRANCH  26  27
HETATM   27  CAN   D T 445     -41.697  -5.320  28.170  1.00172.41     0.151 C 
BRANCH  27  28
HETATM   28  CAM   D T 445     -42.794  -5.980  27.336  1.00172.95     0.068 C 
BRANCH  28  29
HETATM   29  CAC   D T 445     -44.026  -5.072  27.272  1.00176.18     0.253 C 
BRANCH  29  30
HETATM   30  NBH   D T 445     -45.207  -5.943  27.276  1.00176.27     0.141 N 
HETATM   31  CAP   D T 445     -44.862  -7.363  27.383  1.00179.63     0.285 C 
HETATM   32  CAR   D T 445     -46.076  -8.271  27.329  1.00181.97     0.285 C 
HETATM   33  NBI   D T 445     -46.906  -7.999  26.182  1.00180.77     0.143 N 
HETATM   34  CAO   D T 445     -48.103  -8.843  26.183  1.00184.53     0.285 C 
HETATM   35  CAS   D T 445     -47.220  -6.600  26.142  1.00176.33     0.285 C 
HETATM   36  CAQ   D T 445     -46.010  -5.694  26.122  1.00174.56     0.285 C 
ENDBRANCH  29  30
ENDBRANCH  28  29
ENDBRANCH  27  28
ENDBRANCH  26  27
ENDBRANCH   9  26
TORSDOF 9
ENDMDL
