MODEL 1
REMARK VINA RESULT:    -7.425      0.000      0.000
REMARK INTER + INTRA:         -12.864
REMARK INTER:                 -11.332
REMARK INTRA:                  -1.532
REMARK UNBOUND:                -1.532
REMARK  9 active torsions:
REMARK  status: ('A' for Active; 'I' for Inactive)
REMARK    1  A    between atoms: O02_2  and  CAX_24 
REMARK    2  A    between atoms: CAC_3  and  CAM_13 
REMARK    3  A    between atoms: CAC_3  and  NBH_34 
REMARK    4  A    between atoms: CAM_13  and  CAN_14 
REMARK    5  A    between atoms: CAN_14  and  OAW_23 
REMARK    6  A    between atoms: NAU_21  and  CBB_28 
REMARK    7  A    between atoms: NAU_21  and  CBE_31 
REMARK    8  A    between atoms: OAV_22  and  CBC_29 
REMARK    9  A    between atoms: OAW_23  and  CBD_30 
ROOT
HETATM    1  NAD   D T 445      -3.278  -2.077  -8.146  1.00172.85    -0.191 NA
HETATM    2  CAG   D T 445      -4.225  -1.673  -7.922  1.00172.72     0.104 C 
HETATM    3  CAH   D T 445      -6.216  -0.081  -8.320  1.00173.65     0.111 A 
HETATM    4  CAK   D T 445      -9.549   0.663  -6.806  1.00175.08     0.045 A 
HETATM    5  CAL   D T 445      -8.621  -1.390  -5.120  1.00173.14     0.029 A 
HETATM    6  NAT   D T 445      -7.466   0.475  -8.062  1.00174.21    -0.243 NA
HETATM    7  CBA   D T 445      -5.636  -1.098  -7.568  1.00172.91     0.105 A 
HETATM    8  CBC   D T 445      -9.874  -0.816  -4.885  1.00173.92     0.116 A 
HETATM    9  CBD   D T 445     -10.363   0.231  -5.726  1.00174.94     0.118 A 
HETATM   10  CBE   D T 445      -6.398  -1.591  -6.493  1.00172.61     0.094 A 
HETATM   11  CBF   D T 445      -8.244   0.037  -7.016  1.00174.22     0.085 A 
HETATM   12  CBG   D T 445      -7.733  -0.993  -6.204  1.00173.34     0.038 A 
ENDROOT
BRANCH  10  13
HETATM   13  NAU   D T 445      -5.825  -2.675  -5.607  1.00171.92    -0.244 NA
BRANCH  13  14
HETATM   14  CBB   D T 445      -5.532  -4.105  -5.810  1.00169.02     0.094 A 
HETATM   15  CAJ   D T 445      -6.401  -5.068  -6.269  1.00169.48     0.045 A 
HETATM   16  CAX   D T 445      -6.017  -6.481  -6.491  1.00166.40     0.106 A 
HETATM   17  CAY   D T 445      -4.703  -6.860  -6.255  1.00162.90     0.081 A 
HETATM   18 CL1    D T 445      -4.142  -8.476  -6.510  1.00167.07    -0.080 Cl
HETATM   19  CAI   D T 445      -3.802  -5.883  -5.811  1.00162.68     0.026 A 
HETATM   20  CAZ   D T 445      -4.177  -4.541  -5.595  1.00165.75     0.076 A 
HETATM   21 CL2    D T 445      -2.960  -3.469  -5.046  1.00297.59    -0.081 Cl
BRANCH  16  22
HETATM   22  O02   D T 445      -6.935  -7.421  -6.933  1.00167.55    -0.327 OA
HETATM   23  C01   D T 445      -7.942  -7.185  -7.957  1.00  7.55     0.181 C 
ENDBRANCH  16  22
ENDBRANCH  13  14
ENDBRANCH  10  13
BRANCH   8  24
HETATM   24  OAV   D T 445     -10.599  -1.383  -3.804  1.00174.06    -0.326 OA
HETATM   25  CAA   D T 445     -11.446  -2.446  -4.046  1.00171.51     0.181 C 
ENDBRANCH   8  24
BRANCH   9  26
HETATM   26  OAW   D T 445     -11.751   0.750  -5.555  1.00176.22    -0.329 OA
BRANCH  26  27
HETATM   27  CAN   D T 445     -11.963   1.754  -4.632  1.00172.41     0.151 C 
BRANCH  27  28
HETATM   28  CAM   D T 445     -11.559   3.066  -5.300  1.00172.95     0.068 C 
BRANCH  28  29
HETATM   29  CAC   D T 445     -10.503   3.785  -4.456  1.00176.18     0.253 C 
BRANCH  29  30
HETATM   30  NBH   D T 445      -9.693   4.596  -5.372  1.00176.27     0.141 N 
HETATM   31  CAP   D T 445      -9.950   4.286  -6.781  1.00179.63     0.285 C 
HETATM   32  CAR   D T 445      -9.074   5.081  -7.729  1.00181.97     0.285 C 
HETATM   33  NBI   D T 445      -7.676   4.973  -7.396  1.00180.77     0.143 N 
HETATM   34  CAO   D T 445      -6.855   5.797  -8.286  1.00184.53     0.285 C 
HETATM   35  CAS   D T 445      -7.489   5.303  -6.013  1.00176.33     0.285 C 
HETATM   36  CAQ   D T 445      -8.307   4.462  -5.060  1.00174.56     0.285 C 
ENDBRANCH  29  30
ENDBRANCH  28  29
ENDBRANCH  27  28
ENDBRANCH  26  27
ENDBRANCH   9  26
TORSDOF 9
ENDMDL
MODEL 2
REMARK VINA RESULT:    -7.233      3.130      5.500
REMARK INTER + INTRA:         -12.570
REMARK INTER:                 -10.754
REMARK INTRA:                  -1.816
REMARK UNBOUND:                -1.532
REMARK  9 active torsions:
REMARK  status: ('A' for Active; 'I' for Inactive)
REMARK    1  A    between atoms: O02_2  and  CAX_24 
REMARK    2  A    between atoms: CAC_3  and  CAM_13 
REMARK    3  A    between atoms: CAC_3  and  NBH_34 
REMARK    4  A    between atoms: CAM_13  and  CAN_14 
REMARK    5  A    between atoms: CAN_14  and  OAW_23 
REMARK    6  A    between atoms: NAU_21  and  CBB_28 
REMARK    7  A    between atoms: NAU_21  and  CBE_31 
REMARK    8  A    between atoms: OAV_22  and  CBC_29 
REMARK    9  A    between atoms: OAW_23  and  CBD_30 
ROOT
HETATM    1  NAD   D T 445      -1.775  -6.959  -4.401  1.00172.85    -0.191 NA
HETATM    2  CAG   D T 445      -2.362  -6.207  -4.848  1.00172.72     0.104 C 
HETATM    3  CAH   D T 445      -2.767  -3.839  -5.788  1.00173.65     0.111 A 
HETATM    4  CAK   D T 445      -5.528  -1.901  -7.394  1.00175.08     0.045 A 
HETATM    5  CAL   D T 445      -6.770  -4.391  -6.974  1.00173.14     0.029 A 
HETATM    6  NAT   D T 445      -3.507  -2.821  -6.384  1.00174.21    -0.243 NA
HETATM    7  CBA   D T 445      -3.255  -5.114  -5.520  1.00172.91     0.105 A 
HETATM    8  CBC   D T 445      -7.489  -3.352  -7.573  1.00173.92     0.116 A 
HETATM    9  CBD   D T 445      -6.879  -2.078  -7.791  1.00174.94     0.118 A 
HETATM   10  CBE   D T 445      -4.585  -5.367  -5.909  1.00172.61     0.094 A 
HETATM   11  CBF   D T 445      -4.812  -3.013  -6.770  1.00174.22     0.085 A 
HETATM   12  CBG   D T 445      -5.386  -4.277  -6.538  1.00173.34     0.038 A 
ENDROOT
BRANCH  10  13
HETATM   13  NAU   D T 445      -5.201  -6.718  -5.625  1.00171.92    -0.244 NA
BRANCH  13  14
HETATM   14  CBB   D T 445      -5.832  -7.747  -6.471  1.00169.02     0.094 A 
HETATM   15  CAJ   D T 445      -7.137  -7.771  -6.904  1.00169.48     0.045 A 
HETATM   16  CAX   D T 445      -7.688  -8.819  -7.795  1.00166.40     0.106 A 
HETATM   17  CAY   D T 445      -6.842  -9.821  -8.248  1.00162.90     0.081 A 
HETATM   18 CL1    D T 445      -7.373 -11.075  -9.314  1.00167.07    -0.080 Cl
HETATM   19  CAI   D T 445      -5.503  -9.793  -7.835  1.00162.68     0.026 A 
HETATM   20  CAZ   D T 445      -4.988  -8.796  -6.981  1.00165.75     0.076 A 
HETATM   21 CL2    D T 445      -3.332  -8.905  -6.564  1.00297.59    -0.081 Cl
BRANCH  16  22
HETATM   22  O02   D T 445      -9.018  -8.814  -8.185  1.00167.55    -0.327 OA
HETATM   23  C01   D T 445     -10.078  -9.578  -7.545  1.00  7.55     0.181 C 
ENDBRANCH  16  22
ENDBRANCH  13  14
ENDBRANCH  10  13
BRANCH   8  24
HETATM   24  OAV   D T 445      -8.812  -3.687  -7.967  1.00174.06    -0.326 OA
HETATM   25  CAA   D T 445      -9.193  -5.013  -7.983  1.00171.51     0.181 C 
ENDBRANCH   8  24
BRANCH   9  26
HETATM   26  OAW   D T 445      -7.603  -1.014  -8.548  1.00176.22    -0.329 OA
BRANCH  26  27
HETATM   27  CAN   D T 445      -7.745   0.225  -7.957  1.00172.41     0.151 C 
BRANCH  27  28
HETATM   28  CAM   D T 445      -9.203   0.346  -7.521  1.00172.95     0.068 C 
BRANCH  28  29
HETATM   29  CAC   D T 445      -9.282   0.715  -6.037  1.00176.18     0.253 C 
BRANCH  29  30
HETATM   30  NBH   D T 445      -9.883  -0.426  -5.337  1.00176.27     0.141 N 
HETATM   31  CAP   D T 445      -8.883  -1.313  -4.736  1.00179.63     0.285 C 
HETATM   32  CAR   D T 445      -9.498  -2.523  -4.060  1.00181.97     0.285 C 
HETATM   33  NBI   D T 445     -10.397  -3.233  -4.935  1.00180.77     0.143 N 
HETATM   34  CAO   D T 445     -11.026  -4.362  -4.243  1.00184.53     0.285 C 
HETATM   35  CAS   D T 445     -11.358  -2.317  -5.477  1.00176.33     0.285 C 
HETATM   36  CAQ   D T 445     -10.748  -1.146  -6.214  1.00174.56     0.285 C 
ENDBRANCH  29  30
ENDBRANCH  28  29
ENDBRANCH  27  28
ENDBRANCH  26  27
ENDBRANCH   9  26
TORSDOF 9
ENDMDL
MODEL 3
REMARK VINA RESULT:    -7.185      4.246      7.226
REMARK INTER + INTRA:         -12.496
REMARK INTER:                 -11.077
REMARK INTRA:                  -1.419
REMARK UNBOUND:                -1.532
REMARK  9 active torsions:
REMARK  status: ('A' for Active; 'I' for Inactive)
REMARK    1  A    between atoms: O02_2  and  CAX_24 
REMARK    2  A    between atoms: CAC_3  and  CAM_13 
REMARK    3  A    between atoms: CAC_3  and  NBH_34 
REMARK    4  A    between atoms: CAM_13  and  CAN_14 
REMARK    5  A    between atoms: CAN_14  and  OAW_23 
REMARK    6  A    between atoms: NAU_21  and  CBB_28 
REMARK    7  A    between atoms: NAU_21  and  CBE_31 
REMARK    8  A    between atoms: OAV_22  and  CBC_29 
REMARK    9  A    between atoms: OAW_23  and  CBD_30 
ROOT
HETATM    1  NAD   D T 445      -9.757  -9.231  -8.320  1.00172.85    -0.191 NA
HETATM    2  CAG   D T 445      -9.080  -8.449  -8.120  1.00172.72     0.104 C 
HETATM    3  CAH   D T 445      -8.198  -6.035  -8.343  1.00173.65     0.111 A 
HETATM    4  CAK   D T 445      -5.377  -3.956  -7.048  1.00175.08     0.045 A 
HETATM    5  CAL   D T 445      -4.861  -6.426  -5.804  1.00173.14     0.029 A 
HETATM    6  NAT   D T 445      -7.330  -4.974  -8.097  1.00174.21    -0.243 NA
HETATM    7  CBA   D T 445      -8.061  -7.307  -7.797  1.00172.91     0.105 A 
HETATM    8  CBC   D T 445      -4.006  -5.344  -5.573  1.00173.92     0.116 A 
HETATM    9  CBD   D T 445      -4.247  -4.082  -6.198  1.00174.94     0.118 A 
HETATM   10  CBE   D T 445      -6.972  -7.498  -6.925  1.00172.61     0.094 A 
HETATM   11  CBF   D T 445      -6.246  -5.113  -7.264  1.00174.22     0.085 A 
HETATM   12  CBG   D T 445      -6.032  -6.370  -6.667  1.00173.34     0.038 A 
ENDROOT
BRANCH  10  13
HETATM   13  NAU   D T 445      -6.735  -8.861  -6.315  1.00171.92    -0.244 NA
BRANCH  13  14
HETATM   14  CBB   D T 445      -6.490 -10.200  -6.881  1.00169.02     0.094 A 
HETATM   15  CAJ   D T 445      -7.381 -11.246  -6.939  1.00169.48     0.045 A 
HETATM   16  CAX   D T 445      -7.073 -12.552  -7.568  1.00166.40     0.106 A 
HETATM   17  CAY   D T 445      -5.832 -12.731  -8.161  1.00162.90     0.081 A 
HETATM   18 CL1    D T 445      -5.381 -14.204  -8.948  1.00167.07    -0.080 Cl
HETATM   19  CAI   D T 445      -4.924 -11.663  -8.131  1.00162.68     0.026 A 
HETATM   20  CAZ   D T 445      -5.222 -10.426  -7.524  1.00165.75     0.076 A 
HETATM   21 CL2    D T 445      -4.004  -9.224  -7.566  1.00297.59    -0.081 Cl
BRANCH  16  22
HETATM   22  O02   D T 445      -7.997 -13.585  -7.581  1.00167.55    -0.327 OA
HETATM   23  C01   D T 445      -9.334 -13.501  -8.150  1.00  7.55     0.181 C 
ENDBRANCH  16  22
ENDBRANCH  13  14
ENDBRANCH  10  13
BRANCH   8  24
HETATM   24  OAV   D T 445      -2.949  -5.600  -4.660  1.00174.06    -0.326 OA
HETATM   25  CAA   D T 445      -2.021  -6.576  -4.962  1.00171.51     0.181 C 
ENDBRANCH   8  24
BRANCH   9  26
HETATM   26  OAW   D T 445      -3.413  -2.895  -5.848  1.00176.22    -0.329 OA
BRANCH  26  27
HETATM   27  CAN   D T 445      -3.752  -1.675  -6.397  1.00172.41     0.151 C 
BRANCH  27  28
HETATM   28  CAM   D T 445      -4.387  -0.846  -5.284  1.00172.95     0.068 C 
BRANCH  28  29
HETATM   29  CAC   D T 445      -5.722  -0.263  -5.756  1.00176.18     0.253 C 
BRANCH  29  30
HETATM   30  NBH   D T 445      -6.679  -1.373  -5.829  1.00176.27     0.141 N 
HETATM   31  CAP   D T 445      -7.895  -1.025  -6.571  1.00179.63     0.285 C 
HETATM   32  CAR   D T 445      -8.910  -2.150  -6.601  1.00181.97     0.285 C 
HETATM   33  NBI   D T 445      -9.205  -2.649  -5.281  1.00180.77     0.143 N 
HETATM   34  CAO   D T 445     -10.140  -3.775  -5.338  1.00184.53     0.285 C 
HETATM   35  CAS   D T 445      -7.980  -2.986  -4.615  1.00176.33     0.285 C 
HETATM   36  CAQ   D T 445      -6.994  -1.844  -4.519  1.00174.56     0.285 C 
ENDBRANCH  29  30
ENDBRANCH  28  29
ENDBRANCH  27  28
ENDBRANCH  26  27
ENDBRANCH   9  26
TORSDOF 9
ENDMDL
MODEL 4
REMARK VINA RESULT:    -7.156      4.004     10.461
REMARK INTER + INTRA:         -12.452
REMARK INTER:                 -10.848
REMARK INTRA:                  -1.604
REMARK UNBOUND:                -1.532
REMARK  9 active torsions:
REMARK  status: ('A' for Active; 'I' for Inactive)
REMARK    1  A    between atoms: O02_2  and  CAX_24 
REMARK    2  A    between atoms: CAC_3  and  CAM_13 
REMARK    3  A    between atoms: CAC_3  and  NBH_34 
REMARK    4  A    between atoms: CAM_13  and  CAN_14 
REMARK    5  A    between atoms: CAN_14  and  OAW_23 
REMARK    6  A    between atoms: NAU_21  and  CBB_28 
REMARK    7  A    between atoms: NAU_21  and  CBE_31 
REMARK    8  A    between atoms: OAV_22  and  CBC_29 
REMARK    9  A    between atoms: OAW_23  and  CBD_30 
ROOT
HETATM    1  NAD   D T 445      -4.037  -0.253  -5.287  1.00172.85    -0.191 NA
HETATM    2  CAG   D T 445      -4.052  -1.297  -5.425  1.00172.72     0.104 C 
HETATM    3  CAH   D T 445      -3.019  -3.660  -5.332  1.00173.65     0.111 A 
HETATM    4  CAK   D T 445      -4.007  -7.177  -6.110  1.00175.08     0.045 A 
HETATM    5  CAL   D T 445      -6.348  -5.779  -6.802  1.00173.14     0.029 A 
HETATM    6  NAT   D T 445      -3.000  -5.042  -5.492  1.00174.21    -0.243 NA
HETATM    7  CBA   D T 445      -4.106  -2.846  -5.635  1.00172.91     0.105 A 
HETATM    8  CBC   D T 445      -6.303  -7.168  -6.951  1.00173.92     0.116 A 
HETATM    9  CBD   D T 445      -5.122  -7.898  -6.610  1.00174.94     0.118 A 
HETATM   10  CBE   D T 445      -5.258  -3.498  -6.116  1.00172.61     0.094 A 
HETATM   11  CBF   D T 445      -4.094  -5.724  -5.970  1.00174.22     0.085 A 
HETATM   12  CBG   D T 445      -5.241  -4.977  -6.301  1.00173.34     0.038 A 
ENDROOT
BRANCH  10  13
HETATM   13  NAU   D T 445      -6.471  -2.681  -6.499  1.00171.92    -0.244 NA
BRANCH  13  14
HETATM   14  CBB   D T 445      -7.751  -2.387  -5.830  1.00169.02     0.094 A 
HETATM   15  CAJ   D T 445      -8.574  -3.285  -5.192  1.00169.48     0.045 A 
HETATM   16  CAX   D T 445      -9.827  -2.903  -4.500  1.00166.40     0.106 A 
HETATM   17  CAY   D T 445     -10.186  -1.563  -4.462  1.00162.90     0.081 A 
HETATM   18 CL1    D T 445     -11.612  -1.005  -3.656  1.00167.07    -0.080 Cl
HETATM   19  CAI   D T 445      -9.343  -0.634  -5.087  1.00162.68     0.026 A 
HETATM   20  CAZ   D T 445      -8.155  -1.007  -5.749  1.00165.75     0.076 A 
HETATM   21 CL2    D T 445      -7.237   0.246  -6.468  1.00297.59    -0.081 Cl
BRANCH  16  22
HETATM   22  O02   D T 445     -10.636  -3.849  -3.890  1.00167.55    -0.327 OA
HETATM   23  C01   D T 445     -11.723  -4.563  -4.545  1.00  7.55     0.181 C 
ENDBRANCH  16  22
ENDBRANCH  13  14
ENDBRANCH  10  13
BRANCH   8  24
HETATM   24  OAV   D T 445      -7.509  -7.761  -7.411  1.00174.06    -0.326 OA
HETATM   25  CAA   D T 445      -8.480  -6.959  -7.976  1.00171.51     0.181 C 
ENDBRANCH   8  24
BRANCH   9  26
HETATM   26  OAW   D T 445      -5.121  -9.389  -6.645  1.00176.22    -0.329 OA
BRANCH  26  27
HETATM   27  CAN   D T 445      -4.204 -10.022  -7.459  1.00172.41     0.151 C 
BRANCH  27  28
HETATM   28  CAM   D T 445      -4.980 -10.596  -8.643  1.00172.95     0.068 C 
BRANCH  28  29
HETATM   29  CAC   D T 445      -5.294 -12.075  -8.401  1.00176.18     0.253 C 
BRANCH  29  30
HETATM   30  NBH   D T 445      -6.752 -12.225  -8.465  1.00176.27     0.141 N 
HETATM   31  CAP   D T 445      -7.435 -10.978  -8.820  1.00179.63     0.285 C 
HETATM   32  CAR   D T 445      -8.945 -11.115  -8.832  1.00181.97     0.285 C 
HETATM   33  NBI   D T 445      -9.448 -11.678  -7.605  1.00180.77     0.143 N 
HETATM   34  CAO   D T 445     -10.901 -11.859  -7.662  1.00184.53     0.285 C 
HETATM   35  CAS   D T 445      -8.754 -12.901  -7.322  1.00176.33     0.285 C 
HETATM   36  CAQ   D T 445      -7.251 -12.753  -7.237  1.00174.56     0.285 C 
ENDBRANCH  29  30
ENDBRANCH  28  29
ENDBRANCH  27  28
ENDBRANCH  26  27
ENDBRANCH   9  26
TORSDOF 9
ENDMDL
MODEL 5
REMARK VINA RESULT:    -7.137      2.578      4.487
REMARK INTER + INTRA:         -12.424
REMARK INTER:                 -11.279
REMARK INTRA:                  -1.145
REMARK UNBOUND:                -1.532
REMARK  9 active torsions:
REMARK  status: ('A' for Active; 'I' for Inactive)
REMARK    1  A    between atoms: O02_2  and  CAX_24 
REMARK    2  A    between atoms: CAC_3  and  CAM_13 
REMARK    3  A    between atoms: CAC_3  and  NBH_34 
REMARK    4  A    between atoms: CAM_13  and  CAN_14 
REMARK    5  A    between atoms: CAN_14  and  OAW_23 
REMARK    6  A    between atoms: NAU_21  and  CBB_28 
REMARK    7  A    between atoms: NAU_21  and  CBE_31 
REMARK    8  A    between atoms: OAV_22  and  CBC_29 
REMARK    9  A    between atoms: OAW_23  and  CBD_30 
ROOT
HETATM    1  NAD   D T 445      -1.734  -6.952  -4.692  1.00172.85    -0.191 NA
HETATM    2  CAG   D T 445      -2.464  -6.271  -5.028  1.00172.72     0.104 C 
HETATM    3  CAH   D T 445      -3.302  -3.933  -5.728  1.00173.65     0.111 A 
HETATM    4  CAK   D T 445      -6.452  -2.342  -6.952  1.00175.08     0.045 A 
HETATM    5  CAL   D T 445      -7.263  -5.020  -6.658  1.00173.14     0.029 A 
HETATM    6  NAT   D T 445      -4.236  -3.004  -6.177  1.00174.21    -0.243 NA
HETATM    7  CBA   D T 445      -3.567  -5.286  -5.536  1.00172.91     0.105 A 
HETATM    8  CBC   D T 445      -8.180  -4.066  -7.110  1.00173.92     0.116 A 
HETATM    9  CBD   D T 445      -7.791  -2.699  -7.262  1.00174.94     0.118 A 
HETATM   10  CBE   D T 445      -4.872  -5.716  -5.845  1.00172.61     0.094 A 
HETATM   11  CBF   D T 445      -5.525  -3.370  -6.481  1.00174.22     0.085 A 
HETATM   12  CBG   D T 445      -5.879  -4.723  -6.317  1.00173.34     0.038 A 
ENDROOT
BRANCH  10  13
HETATM   13  NAU   D T 445      -5.250  -7.164  -5.634  1.00171.92    -0.244 NA
BRANCH  13  14
HETATM   14  CBB   D T 445      -5.859  -8.193  -6.495  1.00169.02     0.094 A 
HETATM   15  CAJ   D T 445      -7.187  -8.299  -6.841  1.00169.48     0.045 A 
HETATM   16  CAX   D T 445      -7.717  -9.338  -7.753  1.00166.40     0.106 A 
HETATM   17  CAY   D T 445      -6.832 -10.242  -8.321  1.00162.90     0.081 A 
HETATM   18 CL1    D T 445      -7.341 -11.476  -9.422  1.00167.07    -0.080 Cl
HETATM   19  CAI   D T 445      -5.473 -10.130  -7.997  1.00162.68     0.026 A 
HETATM   20  CAZ   D T 445      -4.977  -9.142  -7.122  1.00165.75     0.076 A 
HETATM   21 CL2    D T 445      -3.291  -9.140  -6.823  1.00297.59    -0.081 Cl
BRANCH  16  22
HETATM   22  O02   D T 445      -9.069  -9.418  -8.053  1.00167.55    -0.327 OA
HETATM   23  C01   D T 445     -10.080 -10.013  -7.192  1.00  7.55     0.181 C 
ENDBRANCH  16  22
ENDBRANCH  13  14
ENDBRANCH  10  13
BRANCH   8  24
HETATM   24  OAV   D T 445      -9.466  -4.576  -7.432  1.00174.06    -0.326 OA
HETATM   25  CAA   D T 445      -9.564  -5.772  -8.112  1.00171.51     0.181 C 
ENDBRANCH   8  24
BRANCH   9  26
HETATM   26  OAW   D T 445      -8.729  -1.711  -7.868  1.00176.22    -0.329 OA
BRANCH  26  27
HETATM   27  CAN   D T 445      -8.292  -0.976  -8.952  1.00172.41     0.151 C 
BRANCH  27  28
HETATM   28  CAM   D T 445      -8.444   0.498  -8.582  1.00172.95     0.068 C 
BRANCH  28  29
HETATM   29  CAC   D T 445      -9.508   0.662  -7.493  1.00176.18     0.253 C 
BRANCH  29  30
HETATM   30  NBH   D T 445      -9.467   2.061  -7.052  1.00176.27     0.141 N 
HETATM   31  CAP   D T 445      -8.100   2.563  -6.888  1.00179.63     0.285 C 
HETATM   32  CAR   D T 445      -8.053   3.990  -6.378  1.00181.97     0.285 C 
HETATM   33  NBI   D T 445      -8.843   4.166  -5.185  1.00180.77     0.143 N 
HETATM   34  CAO   D T 445      -8.833   5.563  -4.746  1.00184.53     0.285 C 
HETATM   35  CAS   D T 445     -10.170   3.671  -5.414  1.00176.33     0.285 C 
HETATM   36  CAQ   D T 445     -10.223   2.225  -5.853  1.00174.56     0.285 C 
ENDBRANCH  29  30
ENDBRANCH  28  29
ENDBRANCH  27  28
ENDBRANCH  26  27
ENDBRANCH   9  26
TORSDOF 9
ENDMDL
MODEL 6
REMARK VINA RESULT:    -7.095      5.057     11.421
REMARK INTER + INTRA:         -12.360
REMARK INTER:                 -10.862
REMARK INTRA:                  -1.498
REMARK UNBOUND:                -1.532
REMARK  9 active torsions:
REMARK  status: ('A' for Active; 'I' for Inactive)
REMARK    1  A    between atoms: O02_2  and  CAX_24 
REMARK    2  A    between atoms: CAC_3  and  CAM_13 
REMARK    3  A    between atoms: CAC_3  and  NBH_34 
REMARK    4  A    between atoms: CAM_13  and  CAN_14 
REMARK    5  A    between atoms: CAN_14  and  OAW_23 
REMARK    6  A    between atoms: NAU_21  and  CBB_28 
REMARK    7  A    between atoms: NAU_21  and  CBE_31 
REMARK    8  A    between atoms: OAV_22  and  CBC_29 
REMARK    9  A    between atoms: OAW_23  and  CBD_30 
ROOT
HETATM    1  NAD   D T 445      -4.356  -0.368  -4.989  1.00172.85    -0.191 NA
HETATM    2  CAG   D T 445      -4.296  -1.397  -5.209  1.00172.72     0.104 C 
HETATM    3  CAH   D T 445      -3.026  -3.587  -5.705  1.00173.65     0.111 A 
HETATM    4  CAK   D T 445      -3.803  -7.174  -6.405  1.00175.08     0.045 A 
HETATM    5  CAL   D T 445      -6.385  -6.098  -6.092  1.00173.14     0.029 A 
HETATM    6  NAT   D T 445      -2.903  -4.945  -5.988  1.00174.21    -0.243 NA
HETATM    7  CBA   D T 445      -4.238  -2.926  -5.527  1.00172.91     0.105 A 
HETATM    8  CBC   D T 445      -6.232  -7.459  -6.376  1.00173.92     0.116 A 
HETATM    9  CBD   D T 445      -4.931  -8.025  -6.543  1.00174.94     0.118 A 
HETATM   10  CBE   D T 445      -5.399  -3.716  -5.629  1.00172.61     0.094 A 
HETATM   11  CBF   D T 445      -4.006  -5.755  -6.110  1.00174.22     0.085 A 
HETATM   12  CBG   D T 445      -5.275  -5.168  -5.944  1.00173.34     0.038 A 
ENDROOT
BRANCH  10  13
HETATM   13  NAU   D T 445      -6.757  -3.067  -5.481  1.00171.92    -0.244 NA
BRANCH  13  14
HETATM   14  CBB   D T 445      -7.857  -2.785  -6.420  1.00169.02     0.094 A 
HETATM   15  CAJ   D T 445      -7.747  -2.254  -7.684  1.00169.48     0.045 A 
HETATM   16  CAX   D T 445      -8.901  -2.043  -8.589  1.00166.40     0.106 A 
HETATM   17  CAY   D T 445     -10.164  -2.425  -8.161  1.00162.90     0.081 A 
HETATM   18 CL1    D T 445     -11.573  -2.251  -9.148  1.00167.07    -0.080 Cl
HETATM   19  CAI   D T 445     -10.286  -2.991  -6.884  1.00162.68     0.026 A 
HETATM   20  CAZ   D T 445      -9.184  -3.183  -6.026  1.00165.75     0.076 A 
HETATM   21 CL2    D T 445      -9.499  -3.882  -4.495  1.00297.59    -0.081 Cl
BRANCH  16  22
HETATM   22  O02   D T 445      -8.742  -1.482  -9.847  1.00167.55    -0.327 OA
HETATM   23  C01   D T 445      -7.866  -0.361 -10.155  1.00  7.55     0.181 C 
ENDBRANCH  16  22
ENDBRANCH  13  14
ENDBRANCH  10  13
BRANCH   8  24
HETATM   24  OAV   D T 445      -7.444  -8.199  -6.432  1.00174.06    -0.326 OA
HETATM   25  CAA   D T 445      -7.989  -8.503  -7.663  1.00171.51     0.181 C 
ENDBRANCH   8  24
BRANCH   9  26
HETATM   26  OAW   D T 445      -4.765  -9.498  -6.713  1.00176.22    -0.329 OA
BRANCH  26  27
HETATM   27  CAN   D T 445      -3.969  -9.949  -7.746  1.00172.41     0.151 C 
BRANCH  27  28
HETATM   28  CAM   D T 445      -4.848 -10.824  -8.637  1.00172.95     0.068 C 
BRANCH  28  29
HETATM   29  CAC   D T 445      -5.889 -11.562  -7.790  1.00176.18     0.253 C 
BRANCH  29  30
HETATM   30  NBH   D T 445      -5.319 -12.869  -7.444  1.00176.27     0.141 N 
HETATM   31  CAP   D T 445      -5.763 -13.937  -8.345  1.00179.63     0.285 C 
HETATM   32  CAR   D T 445      -5.222 -15.299  -7.957  1.00181.97     0.285 C 
HETATM   33  NBI   D T 445      -5.484 -15.612  -6.575  1.00180.77     0.143 N 
HETATM   34  CAO   D T 445      -4.900 -16.904  -6.206  1.00184.53     0.285 C 
HETATM   35  CAS   D T 445      -5.014 -14.541  -5.746  1.00176.33     0.285 C 
HETATM   36  CAQ   D T 445      -5.608 -13.191  -6.084  1.00174.56     0.285 C 
ENDBRANCH  29  30
ENDBRANCH  28  29
ENDBRANCH  27  28
ENDBRANCH  26  27
ENDBRANCH   9  26
TORSDOF 9
ENDMDL
MODEL 7
REMARK VINA RESULT:    -7.030      4.793     11.296
REMARK INTER + INTRA:         -12.260
REMARK INTER:                 -10.970
REMARK INTRA:                  -1.290
REMARK UNBOUND:                -1.532
REMARK  9 active torsions:
REMARK  status: ('A' for Active; 'I' for Inactive)
REMARK    1  A    between atoms: O02_2  and  CAX_24 
REMARK    2  A    between atoms: CAC_3  and  CAM_13 
REMARK    3  A    between atoms: CAC_3  and  NBH_34 
REMARK    4  A    between atoms: CAM_13  and  CAN_14 
REMARK    5  A    between atoms: CAN_14  and  OAW_23 
REMARK    6  A    between atoms: NAU_21  and  CBB_28 
REMARK    7  A    between atoms: NAU_21  and  CBE_31 
REMARK    8  A    between atoms: OAV_22  and  CBC_29 
REMARK    9  A    between atoms: OAW_23  and  CBD_30 
ROOT
HETATM    1  NAD   D T 445      -3.923  -0.179  -5.301  1.00172.85    -0.191 NA
HETATM    2  CAG   D T 445      -3.989  -1.221  -5.441  1.00172.72     0.104 C 
HETATM    3  CAH   D T 445      -3.076  -3.632  -5.346  1.00173.65     0.111 A 
HETATM    4  CAK   D T 445      -4.234  -7.094  -6.137  1.00175.08     0.045 A 
HETATM    5  CAL   D T 445      -6.498  -5.579  -6.840  1.00173.14     0.029 A 
HETATM    6  NAT   D T 445      -3.126  -5.014  -5.509  1.00174.21    -0.243 NA
HETATM    7  CBA   D T 445      -4.119  -2.764  -5.654  1.00172.91     0.105 A 
HETATM    8  CBC   D T 445      -6.522  -6.969  -6.992  1.00173.92     0.116 A 
HETATM    9  CBD   D T 445      -5.381  -7.758  -6.646  1.00174.94     0.118 A 
HETATM   10  CBE   D T 445      -5.299  -3.357  -6.143  1.00172.61     0.094 A 
HETATM   11  CBF   D T 445      -4.249  -5.639  -5.995  1.00174.22     0.085 A 
HETATM   12  CBG   D T 445      -5.355  -4.835  -6.331  1.00173.34     0.038 A 
ENDROOT
BRANCH  10  13
HETATM   13  NAU   D T 445      -6.468  -2.480  -6.532  1.00171.92    -0.244 NA
BRANCH  13  14
HETATM   14  CBB   D T 445      -7.771  -2.187  -5.909  1.00169.02     0.094 A 
HETATM   15  CAJ   D T 445      -8.608  -3.083  -5.285  1.00169.48     0.045 A 
HETATM   16  CAX   D T 445      -9.885  -2.702  -4.639  1.00166.40     0.106 A 
HETATM   17  CAY   D T 445     -10.255  -1.365  -4.630  1.00162.90     0.081 A 
HETATM   18 CL1    D T 445     -11.709  -0.807  -3.879  1.00167.07    -0.080 Cl
HETATM   19  CAI   D T 445      -9.398  -0.437  -5.240  1.00162.68     0.026 A 
HETATM   20  CAZ   D T 445      -8.187  -0.810  -5.859  1.00165.75     0.076 A 
HETATM   21 CL2    D T 445      -7.256   0.441  -6.564  1.00297.59    -0.081 Cl
BRANCH  16  22
HETATM   22  O02   D T 445     -10.706  -3.646  -4.043  1.00167.55    -0.327 OA
HETATM   23  C01   D T 445     -11.762  -4.381  -4.724  1.00  7.55     0.181 C 
ENDBRANCH  16  22
ENDBRANCH  13  14
ENDBRANCH  10  13
BRANCH   8  24
HETATM   24  OAV   D T 445      -7.753  -7.500  -7.461  1.00174.06    -0.326 OA
HETATM   25  CAA   D T 445      -8.664  -6.655  -8.062  1.00171.51     0.181 C 
ENDBRANCH   8  24
BRANCH   9  26
HETATM   26  OAW   D T 445      -5.454  -9.247  -6.683  1.00176.22    -0.329 OA
BRANCH  26  27
HETATM   27  CAN   D T 445      -5.002  -9.894  -7.816  1.00172.41     0.151 C 
BRANCH  27  28
HETATM   28  CAM   D T 445      -5.854 -11.150  -7.981  1.00172.95     0.068 C 
BRANCH  28  29
HETATM   29  CAC   D T 445      -5.025 -12.270  -8.617  1.00176.18     0.253 C 
BRANCH  29  30
HETATM   30  NBH   D T 445      -5.189 -13.462  -7.777  1.00176.27     0.141 N 
HETATM   31  CAP   D T 445      -6.576 -13.933  -7.726  1.00179.63     0.285 C 
HETATM   32  CAR   D T 445      -6.760 -15.130  -6.813  1.00181.97     0.285 C 
HETATM   33  NBI   D T 445      -6.217 -14.898  -5.499  1.00180.77     0.143 N 
HETATM   34  CAO   D T 445      -6.351 -16.088  -4.654  1.00184.53     0.285 C 
HETATM   35  CAS   D T 445      -4.857 -14.457  -5.615  1.00176.33     0.285 C 
HETATM   36  CAQ   D T 445      -4.680 -13.219  -6.466  1.00174.56     0.285 C 
ENDBRANCH  29  30
ENDBRANCH  28  29
ENDBRANCH  27  28
ENDBRANCH  26  27
ENDBRANCH   9  26
TORSDOF 9
ENDMDL
MODEL 8
REMARK VINA RESULT:    -6.753      2.777      4.862
REMARK INTER + INTRA:         -11.837
REMARK INTER:                 -10.352
REMARK INTRA:                  -1.486
REMARK UNBOUND:                -1.532
REMARK  9 active torsions:
REMARK  status: ('A' for Active; 'I' for Inactive)
REMARK    1  A    between atoms: O02_2  and  CAX_24 
REMARK    2  A    between atoms: CAC_3  and  CAM_13 
REMARK    3  A    between atoms: CAC_3  and  NBH_34 
REMARK    4  A    between atoms: CAM_13  and  CAN_14 
REMARK    5  A    between atoms: CAN_14  and  OAW_23 
REMARK    6  A    between atoms: NAU_21  and  CBB_28 
REMARK    7  A    between atoms: NAU_21  and  CBE_31 
REMARK    8  A    between atoms: OAV_22  and  CBC_29 
REMARK    9  A    between atoms: OAW_23  and  CBD_30 
ROOT
HETATM    1  NAD   D T 445      -2.753  -6.525  -5.055  1.00172.85    -0.191 NA
HETATM    2  CAG   D T 445      -3.233  -5.640  -5.366  1.00172.72     0.104 C 
HETATM    3  CAH   D T 445      -3.282  -3.164  -6.092  1.00173.65     0.111 A 
HETATM    4  CAK   D T 445      -5.793  -0.610  -7.153  1.00175.08     0.045 A 
HETATM    5  CAL   D T 445      -7.437  -2.848  -6.703  1.00173.14     0.029 A 
HETATM    6  NAT   D T 445      -3.878  -1.978  -6.510  1.00174.21    -0.243 NA
HETATM    7  CBA   D T 445      -3.974  -4.344  -5.832  1.00172.91     0.105 A 
HETATM    8  CBC   D T 445      -8.009  -1.644  -7.125  1.00173.92     0.116 A 
HETATM    9  CBD   D T 445      -7.193  -0.494  -7.355  1.00174.94     0.118 A 
HETATM   10  CBE   D T 445      -5.367  -4.307  -6.033  1.00172.61     0.094 A 
HETATM   11  CBF   D T 445      -5.235  -1.887  -6.709  1.00174.22     0.085 A 
HETATM   12  CBG   D T 445      -6.012  -3.036  -6.470  1.00173.34     0.038 A 
ENDROOT
BRANCH  10  13
HETATM   13  NAU   D T 445      -6.195  -5.538  -5.742  1.00171.92    -0.244 NA
BRANCH  13  14
HETATM   14  CBB   D T 445      -6.502  -6.762  -6.503  1.00169.02     0.094 A 
HETATM   15  CAJ   D T 445      -5.793  -7.940  -6.491  1.00169.48     0.045 A 
HETATM   16  CAX   D T 445      -6.193  -9.147  -7.252  1.00166.40     0.106 A 
HETATM   17  CAY   D T 445      -7.362  -9.109  -7.998  1.00162.90     0.081 A 
HETATM   18 CL1    D T 445      -7.936 -10.469  -8.898  1.00167.07    -0.080 Cl
HETATM   19  CAI   D T 445      -8.107  -7.922  -7.998  1.00162.68     0.026 A 
HETATM   20  CAZ   D T 445      -7.716  -6.775  -7.276  1.00165.75     0.076 A 
HETATM   21 CL2    D T 445      -8.732  -5.402  -7.384  1.00297.59    -0.081 Cl
BRANCH  16  22
HETATM   22  O02   D T 445      -5.431 -10.305  -7.226  1.00167.55    -0.327 OA
HETATM   23  C01   D T 445      -4.024 -10.386  -7.590  1.00  7.55     0.181 C 
ENDBRANCH  16  22
ENDBRANCH  13  14
ENDBRANCH  10  13
BRANCH   8  24
HETATM   24  OAV   D T 445      -9.413  -1.690  -7.337  1.00174.06    -0.326 OA
HETATM   25  CAA   D T 445      -9.894  -1.883  -8.616  1.00171.51     0.181 C 
ENDBRANCH   8  24
BRANCH   9  26
HETATM   26  OAW   D T 445      -7.786   0.748  -7.932  1.00176.22    -0.329 OA
BRANCH  26  27
HETATM   27  CAN   D T 445      -8.168   1.751  -7.065  1.00172.41     0.151 C 
BRANCH  27  28
HETATM   28  CAM   D T 445      -9.695   1.787  -7.070  1.00172.95     0.068 C 
BRANCH  28  29
HETATM   29  CAC   D T 445     -10.219   2.188  -5.688  1.00176.18     0.253 C 
BRANCH  29  30
HETATM   30  NBH   D T 445     -11.120   1.122  -5.239  1.00176.27     0.141 N 
HETATM   31  CAP   D T 445     -10.423   0.065  -4.501  1.00179.63     0.285 C 
HETATM   32  CAR   D T 445     -11.341  -1.068  -4.084  1.00181.97     0.285 C 
HETATM   33  NBI   D T 445     -12.097  -1.590  -5.195  1.00180.77     0.143 N 
HETATM   34  CAO   D T 445     -13.021  -2.640  -4.759  1.00184.53     0.285 C 
HETATM   35  CAS   D T 445     -12.766  -0.513  -5.865  1.00176.33     0.285 C 
HETATM   36  CAQ   D T 445     -11.844   0.585  -6.346  1.00174.56     0.285 C 
ENDBRANCH  29  30
ENDBRANCH  28  29
ENDBRANCH  27  28
ENDBRANCH  26  27
ENDBRANCH   9  26
TORSDOF 9
ENDMDL
MODEL 9
REMARK VINA RESULT:    -6.743      2.733      5.574
REMARK INTER + INTRA:         -11.823
REMARK INTER:                  -9.838
REMARK INTRA:                  -1.985
REMARK UNBOUND:                -1.532
REMARK  9 active torsions:
REMARK  status: ('A' for Active; 'I' for Inactive)
REMARK    1  A    between atoms: O02_2  and  CAX_24 
REMARK    2  A    between atoms: CAC_3  and  CAM_13 
REMARK    3  A    between atoms: CAC_3  and  NBH_34 
REMARK    4  A    between atoms: CAM_13  and  CAN_14 
REMARK    5  A    between atoms: CAN_14  and  OAW_23 
REMARK    6  A    between atoms: NAU_21  and  CBB_28 
REMARK    7  A    between atoms: NAU_21  and  CBE_31 
REMARK    8  A    between atoms: OAV_22  and  CBC_29 
REMARK    9  A    between atoms: OAW_23  and  CBD_30 
ROOT
HETATM    1  NAD   D T 445      -3.165  -1.969  -8.055  1.00172.85    -0.191 NA
HETATM    2  CAG   D T 445      -4.156  -1.712  -7.808  1.00172.72     0.104 C 
HETATM    3  CAH   D T 445      -6.337  -0.361  -8.086  1.00173.65     0.111 A 
HETATM    4  CAK   D T 445      -9.740  -0.197  -6.555  1.00175.08     0.045 A 
HETATM    5  CAL   D T 445      -8.555  -2.258  -5.051  1.00173.14     0.029 A 
HETATM    6  NAT   D T 445      -7.649   0.002  -7.796  1.00174.21    -0.243 NA
HETATM    7  CBA   D T 445      -5.630  -1.359  -7.423  1.00172.91     0.105 A 
HETATM    8  CBC   D T 445      -9.873  -1.875  -4.781  1.00173.92     0.116 A 
HETATM    9  CBD   D T 445     -10.493  -0.827  -5.530  1.00174.94     0.118 A 
HETATM   10  CBE   D T 445      -6.324  -2.044  -6.406  1.00172.61     0.094 A 
HETATM   11  CBF   D T 445      -8.365  -0.627  -6.805  1.00174.22     0.085 A 
HETATM   12  CBG   D T 445      -7.726  -1.652  -6.082  1.00173.34     0.038 A 
ENDROOT
BRANCH  10  13
HETATM   13  NAU   D T 445      -5.616  -3.121  -5.615  1.00171.92    -0.244 NA
BRANCH  13  14
HETATM   14  CBB   D T 445      -5.325  -4.543  -5.867  1.00169.02     0.094 A 
HETATM   15  CAJ   D T 445      -6.205  -5.497  -6.323  1.00169.48     0.045 A 
HETATM   16  CAX   D T 445      -5.824  -6.902  -6.598  1.00166.40     0.106 A 
HETATM   17  CAY   D T 445      -4.502  -7.282  -6.417  1.00162.90     0.081 A 
HETATM   18 CL1    D T 445      -3.944  -8.888  -6.736  1.00167.07    -0.080 Cl
HETATM   19  CAI   D T 445      -3.590  -6.313  -5.977  1.00162.68     0.026 A 
HETATM   20  CAZ   D T 445      -3.962  -4.979  -5.712  1.00165.75     0.076 A 
HETATM   21 CL2    D T 445      -2.731  -3.918  -5.175  1.00297.59    -0.081 Cl
BRANCH  16  22
HETATM   22  O02   D T 445      -6.754  -7.833  -7.034  1.00167.55    -0.327 OA
HETATM   23  C01   D T 445      -7.975  -7.515  -7.760  1.00  7.55     0.181 C 
ENDBRANCH  16  22
ENDBRANCH  13  14
ENDBRANCH  10  13
BRANCH   8  24
HETATM   24  OAV   D T 445     -10.520  -2.628  -3.766  1.00174.06    -0.326 OA
HETATM   25  CAA   D T 445     -10.990  -3.892  -4.061  1.00171.51     0.181 C 
ENDBRANCH   8  24
BRANCH   9  26
HETATM   26  OAW   D T 445     -11.937  -0.510  -5.331  1.00176.22    -0.329 OA
BRANCH  26  27
HETATM   27  CAN   D T 445     -12.786  -0.629  -6.413  1.00172.41     0.151 C 
BRANCH  27  28
HETATM   28  CAM   D T 445     -13.190  -2.099  -6.503  1.00172.95     0.068 C 
BRANCH  28  29
HETATM   29  CAC   D T 445     -12.472  -2.773  -7.675  1.00176.18     0.253 C 
BRANCH  29  30
HETATM   30  NBH   D T 445     -12.807  -4.201  -7.626  1.00176.27     0.141 N 
HETATM   31  CAP   D T 445     -13.734  -4.528  -6.539  1.00179.63     0.285 C 
HETATM   32  CAR   D T 445     -14.038  -6.011  -6.449  1.00181.97     0.285 C 
HETATM   33  NBI   D T 445     -12.838  -6.808  -6.397  1.00180.77     0.143 N 
HETATM   34  CAO   D T 445     -13.154  -8.238  -6.372  1.00184.53     0.285 C 
HETATM   35  CAS   D T 445     -11.982  -6.453  -7.491  1.00176.33     0.285 C 
HETATM   36  CAQ   D T 445     -11.618  -4.986  -7.541  1.00174.56     0.285 C 
ENDBRANCH  29  30
ENDBRANCH  28  29
ENDBRANCH  27  28
ENDBRANCH  26  27
ENDBRANCH   9  26
TORSDOF 9
ENDMDL
