MODEL 1
REMARK VINA RESULT:    -8.128      0.000      0.000
REMARK INTER + INTRA:         -13.967
REMARK INTER:                 -12.405
REMARK INTRA:                  -1.563
REMARK UNBOUND:                -1.563
REMARK  9 active torsions:
REMARK  status: ('A' for Active; 'I' for Inactive)
REMARK    1  A    between atoms: O02_2  and  CAX_24 
REMARK    2  A    between atoms: CAC_3  and  CAM_13 
REMARK    3  A    between atoms: CAC_3  and  NBH_34 
REMARK    4  A    between atoms: CAM_13  and  CAN_14 
REMARK    5  A    between atoms: CAN_14  and  OAW_23 
REMARK    6  A    between atoms: NAU_21  and  CBB_28 
REMARK    7  A    between atoms: NAU_21  and  CBE_31 
REMARK    8  A    between atoms: OAV_22  and  CBC_29 
REMARK    9  A    between atoms: OAW_23  and  CBD_30 
ROOT
HETATM    1  NAD   D T 445     -43.943  -7.377  39.144  1.00172.85    -0.191 NA
HETATM    2  CAG   D T 445     -43.510  -7.480  38.189  1.00172.72     0.104 C 
HETATM    3  CAH   D T 445     -42.748  -8.827  36.124  1.00173.65     0.111 A 
HETATM    4  CAK   D T 445     -41.139  -8.198  32.812  1.00175.08     0.045 A 
HETATM    5  CAL   D T 445     -41.255  -5.595  33.873  1.00173.14     0.029 A 
HETATM    6  NAT   D T 445     -42.190  -9.003  34.861  1.00174.21    -0.243 NA
HETATM    7  CBA   D T 445     -42.868  -7.599  36.767  1.00172.91     0.105 A 
HETATM    8  CBC   D T 445     -40.702  -5.801  32.606  1.00173.92     0.116 A 
HETATM    9  CBD   D T 445     -40.628  -7.114  32.050  1.00174.94     0.118 A 
HETATM   10  CBE   D T 445     -42.401  -6.476  36.059  1.00172.61     0.094 A 
HETATM   11  CBF   D T 445     -41.709  -7.941  34.134  1.00174.22     0.085 A 
HETATM   12  CBG   D T 445     -41.792  -6.660  34.711  1.00173.34     0.038 A 
ENDROOT
BRANCH  10  13
HETATM   13  NAU   D T 445     -42.466  -5.109  36.702  1.00171.92    -0.244 NA
BRANCH  13  14
HETATM   14  CBB   D T 445     -41.460  -4.075  36.999  1.00169.02     0.094 A 
HETATM   15  CAJ   D T 445     -41.572  -2.724  36.770  1.00169.48     0.045 A 
HETATM   16  CAX   D T 445     -40.530  -1.738  37.141  1.00166.40     0.106 A 
HETATM   17  CAY   D T 445     -39.386  -2.188  37.785  1.00162.90     0.081 A 
HETATM   18 CL1    D T 445     -38.122  -1.119  38.288  1.00167.07    -0.080 Cl
HETATM   19  CAI   D T 445     -39.270  -3.560  38.048  1.00162.68     0.026 A 
HETATM   20  CAZ   D T 445     -40.264  -4.492  37.686  1.00165.75     0.076 A 
HETATM   21 CL2    D T 445     -39.971  -6.133  38.072  1.00297.59    -0.081 Cl
BRANCH  16  22
HETATM   22  O02   D T 445     -40.679  -0.387  36.868  1.00167.55    -0.327 OA
HETATM   23  C01   D T 445     -41.001   0.633  37.854  1.00  7.55     0.181 C 
ENDBRANCH  16  22
ENDBRANCH  13  14
ENDBRANCH  10  13
BRANCH   8  24
HETATM   24  OAV   D T 445     -40.281  -4.620  31.938  1.00174.06    -0.326 OA
HETATM   25  CAA   D T 445     -38.955  -4.488  31.578  1.00171.51     0.181 C 
ENDBRANCH   8  24
BRANCH   9  26
HETATM   26  OAW   D T 445     -40.159  -7.315  30.647  1.00176.22    -0.329 OA
BRANCH  26  27
HETATM   27  CAN   D T 445     -41.096  -7.638  29.686  1.00172.41     0.151 C 
BRANCH  27  28
HETATM   28  CAM   D T 445     -41.809  -6.341  29.306  1.00172.95     0.068 C 
BRANCH  28  29
HETATM   29  CAC   D T 445     -43.326  -6.533  29.376  1.00176.18     0.253 C 
BRANCH  29  30
HETATM   30  NBH   D T 445     -43.623  -7.174  30.662  1.00176.27     0.141 N 
HETATM   31  CAP   D T 445     -44.297  -8.467  30.508  1.00179.63     0.285 C 
HETATM   32  CAR   D T 445     -44.657  -9.106  31.835  1.00181.97     0.285 C 
HETATM   33  NBI   D T 445     -45.396  -8.208  32.687  1.00180.77     0.143 N 
HETATM   34  CAO   D T 445     -45.679  -8.824  33.985  1.00184.53     0.285 C 
HETATM   35  CAS   D T 445     -44.679  -6.971  32.810  1.00176.33     0.285 C 
HETATM   36  CAQ   D T 445     -44.382  -6.294  31.491  1.00174.56     0.285 C 
ENDBRANCH  29  30
ENDBRANCH  28  29
ENDBRANCH  27  28
ENDBRANCH  26  27
ENDBRANCH   9  26
TORSDOF 9
ENDMDL
MODEL 2
REMARK VINA RESULT:    -8.083      1.666      2.459
REMARK INTER + INTRA:         -13.898
REMARK INTER:                 -12.648
REMARK INTRA:                  -1.251
REMARK UNBOUND:                -1.563
REMARK  9 active torsions:
REMARK  status: ('A' for Active; 'I' for Inactive)
REMARK    1  A    between atoms: O02_2  and  CAX_24 
REMARK    2  A    between atoms: CAC_3  and  CAM_13 
REMARK    3  A    between atoms: CAC_3  and  NBH_34 
REMARK    4  A    between atoms: CAM_13  and  CAN_14 
REMARK    5  A    between atoms: CAN_14  and  OAW_23 
REMARK    6  A    between atoms: NAU_21  and  CBB_28 
REMARK    7  A    between atoms: NAU_21  and  CBE_31 
REMARK    8  A    between atoms: OAV_22  and  CBC_29 
REMARK    9  A    between atoms: OAW_23  and  CBD_30 
ROOT
HETATM    1  NAD   D T 445     -43.961  -7.312  39.463  1.00172.85    -0.191 NA
HETATM    2  CAG   D T 445     -43.589  -7.450  38.487  1.00172.72     0.104 C 
HETATM    3  CAH   D T 445     -42.967  -8.870  36.424  1.00173.65     0.111 A 
HETATM    4  CAK   D T 445     -41.562  -8.364  33.000  1.00175.08     0.045 A 
HETATM    5  CAL   D T 445     -41.592  -5.727  33.981  1.00173.14     0.029 A 
HETATM    6  NAT   D T 445     -42.489  -9.092  35.135  1.00174.21    -0.243 NA
HETATM    7  CBA   D T 445     -43.038  -7.621  37.033  1.00172.91     0.105 A 
HETATM    8  CBC   D T 445     -41.120  -5.979  32.689  1.00173.92     0.116 A 
HETATM    9  CBD   D T 445     -41.091  -7.311  32.173  1.00174.94     0.118 A 
HETATM   10  CBE   D T 445     -42.607  -6.526  36.260  1.00172.61     0.094 A 
HETATM   11  CBF   D T 445     -42.046  -8.059  34.346  1.00174.22     0.085 A 
HETATM   12  CBG   D T 445     -42.084  -6.759  34.884  1.00173.34     0.038 A 
ENDROOT
BRANCH  10  13
HETATM   13  NAU   D T 445     -42.622  -5.138  36.861  1.00171.92    -0.244 NA
BRANCH  13  14
HETATM   14  CBB   D T 445     -41.579  -4.131  37.120  1.00169.02     0.094 A 
HETATM   15  CAJ   D T 445     -41.668  -2.776  36.902  1.00169.48     0.045 A 
HETATM   16  CAX   D T 445     -40.589  -1.817  37.233  1.00166.40     0.106 A 
HETATM   17  CAY   D T 445     -39.429  -2.297  37.826  1.00162.90     0.081 A 
HETATM   18 CL1    D T 445     -38.120  -1.261  38.280  1.00167.07    -0.080 Cl
HETATM   19  CAI   D T 445     -39.336  -3.673  38.078  1.00162.68     0.026 A 
HETATM   20  CAZ   D T 445     -40.366  -4.579  37.754  1.00165.75     0.076 A 
HETATM   21 CL2    D T 445     -40.097  -6.229  38.120  1.00297.59    -0.081 Cl
BRANCH  16  22
HETATM   22  O02   D T 445     -40.716  -0.461  36.972  1.00167.55    -0.327 OA
HETATM   23  C01   D T 445     -41.074   0.548  37.957  1.00  7.55     0.181 C 
ENDBRANCH  16  22
ENDBRANCH  13  14
ENDBRANCH  10  13
BRANCH   8  24
HETATM   24  OAV   D T 445     -40.732  -4.825  31.958  1.00174.06    -0.326 OA
HETATM   25  CAA   D T 445     -39.403  -4.453  31.943  1.00171.51     0.181 C 
ENDBRANCH   8  24
BRANCH   9  26
HETATM   26  OAW   D T 445     -40.711  -7.561  30.751  1.00176.22    -0.329 OA
BRANCH  26  27
HETATM   27  CAN   D T 445     -41.601  -8.249  29.951  1.00172.41     0.151 C 
BRANCH  27  28
HETATM   28  CAM   D T 445     -42.731  -7.281  29.606  1.00172.95     0.068 C 
BRANCH  28  29
HETATM   29  CAC   D T 445     -44.083  -7.893  29.980  1.00176.18     0.253 C 
BRANCH  29  30
HETATM   30  NBH   D T 445     -45.036  -7.515  28.930  1.00176.27     0.141 N 
HETATM   31  CAP   D T 445     -44.833  -8.262  27.686  1.00179.63     0.285 C 
HETATM   32  CAR   D T 445     -45.778  -7.833  26.580  1.00181.97     0.285 C 
HETATM   33  NBI   D T 445     -45.753  -6.408  26.367  1.00180.77     0.143 N 
HETATM   34  CAO   D T 445     -46.717  -6.010  25.338  1.00184.53     0.285 C 
HETATM   35  CAS   D T 445     -45.972  -5.736  27.615  1.00176.33     0.285 C 
HETATM   36  CAQ   D T 445     -44.986  -6.106  28.699  1.00174.56     0.285 C 
ENDBRANCH  29  30
ENDBRANCH  28  29
ENDBRANCH  27  28
ENDBRANCH  26  27
ENDBRANCH   9  26
TORSDOF 9
ENDMDL
MODEL 3
REMARK VINA RESULT:    -7.540      4.188      8.895
REMARK INTER + INTRA:         -13.070
REMARK INTER:                 -11.016
REMARK INTRA:                  -2.054
REMARK UNBOUND:                -1.563
REMARK  9 active torsions:
REMARK  status: ('A' for Active; 'I' for Inactive)
REMARK    1  A    between atoms: O02_2  and  CAX_24 
REMARK    2  A    between atoms: CAC_3  and  CAM_13 
REMARK    3  A    between atoms: CAC_3  and  NBH_34 
REMARK    4  A    between atoms: CAM_13  and  CAN_14 
REMARK    5  A    between atoms: CAN_14  and  OAW_23 
REMARK    6  A    between atoms: NAU_21  and  CBB_28 
REMARK    7  A    between atoms: NAU_21  and  CBE_31 
REMARK    8  A    between atoms: OAV_22  and  CBC_29 
REMARK    9  A    between atoms: OAW_23  and  CBD_30 
ROOT
HETATM    1  NAD   D T 445     -41.322  -4.389  29.114  1.00172.85    -0.191 NA
HETATM    2  CAG   D T 445     -41.516  -5.046  29.914  1.00172.72     0.104 C 
HETATM    3  CAH   D T 445     -40.838  -6.509  31.928  1.00173.65     0.111 A 
HETATM    4  CAK   D T 445     -42.474  -8.707  34.467  1.00175.08     0.045 A 
HETATM    5  CAL   D T 445     -44.692  -7.861  32.956  1.00173.14     0.029 A 
HETATM    6  NAT   D T 445     -41.056  -7.372  32.999  1.00174.21    -0.243 NA
HETATM    7  CBA   D T 445     -41.840  -6.015  31.099  1.00172.91     0.105 A 
HETATM    8  CBC   D T 445     -44.882  -8.726  34.038  1.00173.92     0.116 A 
HETATM    9  CBD   D T 445     -43.769  -9.172  34.816  1.00174.94     0.118 A 
HETATM   10  CBE   D T 445     -43.154  -6.418  31.402  1.00172.61     0.094 A 
HETATM   11  CBF   D T 445     -42.318  -7.804  33.327  1.00174.22     0.085 A 
HETATM   12  CBG   D T 445     -43.392  -7.351  32.539  1.00173.34     0.038 A 
ENDROOT
BRANCH  10  13
HETATM   13  NAU   D T 445     -44.297  -5.950  30.528  1.00171.92    -0.244 NA
BRANCH  13  14
HETATM   14  CBB   D T 445     -44.818  -6.379  29.219  1.00169.02     0.094 A 
HETATM   15  CAJ   D T 445     -45.120  -7.664  28.832  1.00169.48     0.045 A 
HETATM   16  CAX   D T 445     -45.688  -8.012  27.509  1.00166.40     0.106 A 
HETATM   17  CAY   D T 445     -45.964  -6.989  26.612  1.00162.90     0.081 A 
HETATM   18 CL1    D T 445     -46.654  -7.281  25.053  1.00167.07    -0.080 Cl
HETATM   19  CAI   D T 445     -45.685  -5.672  27.004  1.00162.68     0.026 A 
HETATM   20  CAZ   D T 445     -45.139  -5.351  28.263  1.00165.75     0.076 A 
HETATM   21 CL2    D T 445     -44.851  -3.695  28.589  1.00297.59    -0.081 Cl
BRANCH  16  22
HETATM   22  O02   D T 445     -45.953  -9.326  27.156  1.00167.55    -0.327 OA
HETATM   23  C01   D T 445     -47.255  -9.969  27.255  1.00  7.55     0.181 C 
ENDBRANCH  16  22
ENDBRANCH  13  14
ENDBRANCH  10  13
BRANCH   8  24
HETATM   24  OAV   D T 445     -46.235  -9.065  34.303  1.00174.06    -0.326 OA
HETATM   25  CAA   D T 445     -46.878  -9.963  33.474  1.00171.51     0.181 C 
ENDBRANCH   8  24
BRANCH   9  26
HETATM   26  OAW   D T 445     -43.987  -9.987  36.047  1.00176.22    -0.329 OA
BRANCH  26  27
HETATM   27  CAN   D T 445     -44.633  -9.396  37.114  1.00172.41     0.151 C 
BRANCH  27  28
HETATM   28  CAM   D T 445     -43.550  -8.856  38.047  1.00172.95     0.068 C 
BRANCH  28  29
HETATM   29  CAC   D T 445     -43.949  -7.476  38.576  1.00176.18     0.253 C 
BRANCH  29  30
HETATM   30  NBH   D T 445     -43.014  -6.503  37.997  1.00176.27     0.141 N 
HETATM   31  CAP   D T 445     -43.517  -5.904  36.758  1.00179.63     0.285 C 
HETATM   32  CAR   D T 445     -42.530  -4.941  36.126  1.00181.97     0.285 C 
HETATM   33  NBI   D T 445     -41.229  -5.535  35.952  1.00180.77     0.143 N 
HETATM   34  CAO   D T 445     -40.277  -4.569  35.399  1.00184.53     0.285 C 
HETATM   35  CAS   D T 445     -40.787  -6.089  37.200  1.00176.33     0.285 C 
HETATM   36  CAQ   D T 445     -41.735  -7.104  37.797  1.00174.56     0.285 C 
ENDBRANCH  29  30
ENDBRANCH  28  29
ENDBRANCH  27  28
ENDBRANCH  26  27
ENDBRANCH   9  26
TORSDOF 9
ENDMDL
MODEL 4
REMARK VINA RESULT:    -7.130      4.181      9.460
REMARK INTER + INTRA:         -12.444
REMARK INTER:                 -11.062
REMARK INTRA:                  -1.382
REMARK UNBOUND:                -1.563
REMARK  9 active torsions:
REMARK  status: ('A' for Active; 'I' for Inactive)
REMARK    1  A    between atoms: O02_2  and  CAX_24 
REMARK    2  A    between atoms: CAC_3  and  CAM_13 
REMARK    3  A    between atoms: CAC_3  and  NBH_34 
REMARK    4  A    between atoms: CAM_13  and  CAN_14 
REMARK    5  A    between atoms: CAN_14  and  OAW_23 
REMARK    6  A    between atoms: NAU_21  and  CBB_28 
REMARK    7  A    between atoms: NAU_21  and  CBE_31 
REMARK    8  A    between atoms: OAV_22  and  CBC_29 
REMARK    9  A    between atoms: OAW_23  and  CBD_30 
ROOT
HETATM    1  NAD   D T 445     -42.346  -4.333  28.144  1.00172.85    -0.191 NA
HETATM    2  CAG   D T 445     -42.271  -4.755  29.107  1.00172.72     0.104 C 
HETATM    3  CAH   D T 445     -41.151  -5.095  31.406  1.00173.65     0.111 A 
HETATM    4  CAK   D T 445     -41.751  -7.016  34.554  1.00175.08     0.045 A 
HETATM    5  CAL   D T 445     -43.966  -7.792  33.001  1.00173.14     0.029 A 
HETATM    6  NAT   D T 445     -41.021  -5.625  32.688  1.00174.21    -0.243 NA
HETATM    7  CBA   D T 445     -42.193  -5.392  30.534  1.00172.91     0.105 A 
HETATM    8  CBC   D T 445     -43.812  -8.306  34.292  1.00173.92     0.116 A 
HETATM    9  CBD   D T 445     -42.693  -7.930  35.096  1.00174.94     0.118 A 
HETATM   10  CBE   D T 445     -43.176  -6.277  31.015  1.00172.61     0.094 A 
HETATM   11  CBF   D T 445     -41.948  -6.502  33.199  1.00174.22     0.085 A 
HETATM   12  CBG   D T 445     -43.037  -6.856  32.381  1.00173.34     0.038 A 
ENDROOT
BRANCH  10  13
HETATM   13  NAU   D T 445     -44.325  -6.675  30.115  1.00171.92    -0.244 NA
BRANCH  13  14
HETATM   14  CBB   D T 445     -44.407  -7.374  28.821  1.00169.02     0.094 A 
HETATM   15  CAJ   D T 445     -43.802  -8.563  28.484  1.00169.48     0.045 A 
HETATM   16  CAX   D T 445     -43.972  -9.229  27.173  1.00166.40     0.106 A 
HETATM   17  CAY   D T 445     -44.811  -8.647  26.233  1.00162.90     0.081 A 
HETATM   18 CL1    D T 445     -45.104  -9.356  24.682  1.00167.07    -0.080 Cl
HETATM   19  CAI   D T 445     -45.455  -7.449  26.572  1.00162.68     0.026 A 
HETATM   20  CAZ   D T 445     -45.283  -6.818  27.821  1.00165.75     0.076 A 
HETATM   21 CL2    D T 445     -46.135  -5.357  28.081  1.00297.59    -0.081 Cl
BRANCH  16  22
HETATM   22  O02   D T 445     -43.321 -10.416  26.872  1.00167.55    -0.327 OA
HETATM   23  C01   D T 445     -41.913 -10.682  27.126  1.00  7.55     0.181 C 
ENDBRANCH  16  22
ENDBRANCH  13  14
ENDBRANCH  10  13
BRANCH   8  24
HETATM   24  OAV   D T 445     -44.857  -9.167  34.721  1.00174.06    -0.326 OA
HETATM   25  CAA   D T 445     -44.613 -10.522  34.821  1.00171.51     0.181 C 
ENDBRANCH   8  24
BRANCH   9  26
HETATM   26  OAW   D T 445     -42.600  -8.376  36.517  1.00176.22    -0.329 OA
BRANCH  26  27
HETATM   27  CAN   D T 445     -43.321  -7.681  37.467  1.00172.41     0.151 C 
BRANCH  27  28
HETATM   28  CAM   D T 445     -42.354  -6.702  38.131  1.00172.95     0.068 C 
BRANCH  28  29
HETATM   29  CAC   D T 445     -42.886  -5.271  38.009  1.00176.18     0.253 C 
BRANCH  29  30
HETATM   30  NBH   D T 445     -41.786  -4.368  38.364  1.00176.27     0.141 N 
HETATM   31  CAP   D T 445     -42.070  -2.970  38.025  1.00179.63     0.285 C 
HETATM   32  CAR   D T 445     -40.912  -2.041  38.337  1.00181.97     0.285 C 
HETATM   33  NBI   D T 445     -39.676  -2.500  37.755  1.00180.77     0.143 N 
HETATM   34  CAO   D T 445     -38.562  -1.623  38.120  1.00184.53     0.285 C 
HETATM   35  CAS   D T 445     -39.448  -3.864  38.134  1.00176.33     0.285 C 
HETATM   36  CAQ   D T 445     -40.569  -4.807  37.759  1.00174.56     0.285 C 
ENDBRANCH  29  30
ENDBRANCH  28  29
ENDBRANCH  27  28
ENDBRANCH  26  27
ENDBRANCH   9  26
TORSDOF 9
ENDMDL
MODEL 5
REMARK VINA RESULT:    -7.125      2.659      3.460
REMARK INTER + INTRA:         -12.436
REMARK INTER:                 -11.957
REMARK INTRA:                  -0.479
REMARK UNBOUND:                -1.563
REMARK  9 active torsions:
REMARK  status: ('A' for Active; 'I' for Inactive)
REMARK    1  A    between atoms: O02_2  and  CAX_24 
REMARK    2  A    between atoms: CAC_3  and  CAM_13 
REMARK    3  A    between atoms: CAC_3  and  NBH_34 
REMARK    4  A    between atoms: CAM_13  and  CAN_14 
REMARK    5  A    between atoms: CAN_14  and  OAW_23 
REMARK    6  A    between atoms: NAU_21  and  CBB_28 
REMARK    7  A    between atoms: NAU_21  and  CBE_31 
REMARK    8  A    between atoms: OAV_22  and  CBC_29 
REMARK    9  A    between atoms: OAW_23  and  CBD_30 
ROOT
HETATM    1  NAD   D T 445     -43.543  -9.030  39.111  1.00172.85    -0.191 NA
HETATM    2  CAG   D T 445     -43.560  -8.774  38.090  1.00172.72     0.104 C 
HETATM    3  CAH   D T 445     -44.506  -8.879  35.691  1.00173.65     0.111 A 
HETATM    4  CAK   D T 445     -43.801  -7.389  32.339  1.00175.08     0.045 A 
HETATM    5  CAL   D T 445     -41.788  -6.202  33.906  1.00173.14     0.029 A 
HETATM    6  NAT   D T 445     -44.566  -8.560  34.337  1.00174.21    -0.243 NA
HETATM    7  CBA   D T 445     -43.565  -8.368  36.579  1.00172.91     0.105 A 
HETATM    8  CBC   D T 445     -41.874  -5.898  32.544  1.00173.92     0.116 A 
HETATM    9  CBD   D T 445     -42.885  -6.492  31.729  1.00174.94     0.118 A 
HETATM   10  CBE   D T 445     -42.637  -7.453  36.045  1.00172.61     0.094 A 
HETATM   11  CBF   D T 445     -43.676  -7.682  33.766  1.00174.22     0.085 A 
HETATM   12  CBG   D T 445     -42.689  -7.116  34.594  1.00173.34     0.038 A 
ENDROOT
BRANCH  10  13
HETATM   13  NAU   D T 445     -41.561  -6.877  36.939  1.00171.92    -0.244 NA
BRANCH  13  14
HETATM   14  CBB   D T 445     -41.280  -5.524  37.450  1.00169.02     0.094 A 
HETATM   15  CAJ   D T 445     -40.048  -4.921  37.556  1.00169.48     0.045 A 
HETATM   16  CAX   D T 445     -39.851  -3.535  38.038  1.00166.40     0.106 A 
HETATM   17  CAY   D T 445     -40.966  -2.781  38.375  1.00162.90     0.081 A 
HETATM   18 CL1    D T 445     -40.851  -1.143  38.920  1.00167.07    -0.080 Cl
HETATM   19  CAI   D T 445     -42.229  -3.375  38.247  1.00162.68     0.026 A 
HETATM   20  CAZ   D T 445     -42.408  -4.697  37.793  1.00165.75     0.076 A 
HETATM   21 CL2    D T 445     -44.015  -5.279  37.697  1.00297.59    -0.081 Cl
BRANCH  16  22
HETATM   22  O02   D T 445     -38.586  -2.979  38.150  1.00167.55    -0.327 OA
HETATM   23  C01   D T 445     -38.209  -1.660  37.663  1.00  7.55     0.181 C 
ENDBRANCH  16  22
ENDBRANCH  13  14
ENDBRANCH  10  13
BRANCH   8  24
HETATM   24  OAV   D T 445     -40.926  -4.946  32.083  1.00174.06    -0.326 OA
HETATM   25  CAA   D T 445     -39.723  -4.818  32.746  1.00171.51     0.181 C 
ENDBRANCH   8  24
BRANCH   9  26
HETATM   26  OAW   D T 445     -43.057  -6.066  30.309  1.00176.22    -0.329 OA
BRANCH  26  27
HETATM   27  CAN   D T 445     -42.121  -6.485  29.385  1.00172.41     0.151 C 
BRANCH  27  28
HETATM   28  CAM   D T 445     -42.870  -6.743  28.078  1.00172.95     0.068 C 
BRANCH  28  29
HETATM   29  CAC   D T 445     -43.940  -7.818  28.287  1.00176.18     0.253 C 
BRANCH  29  30
HETATM   30  NBH   D T 445     -44.952  -7.631  27.240  1.00176.27     0.141 N 
HETATM   31  CAP   D T 445     -45.353  -6.230  27.085  1.00179.63     0.285 C 
HETATM   32  CAR   D T 445     -46.440  -6.040  26.045  1.00181.97     0.285 C 
HETATM   33  NBI   D T 445     -47.569  -6.906  26.276  1.00180.77     0.143 N 
HETATM   34  CAO   D T 445     -48.579  -6.750  25.226  1.00184.53     0.285 C 
HETATM   35  CAS   D T 445     -47.114  -8.259  26.404  1.00176.33     0.285 C 
HETATM   36  CAQ   D T 445     -46.083  -8.466  27.490  1.00174.56     0.285 C 
ENDBRANCH  29  30
ENDBRANCH  28  29
ENDBRANCH  27  28
ENDBRANCH  26  27
ENDBRANCH   9  26
TORSDOF 9
ENDMDL
MODEL 6
REMARK VINA RESULT:    -7.064      3.883      8.728
REMARK INTER + INTRA:         -12.344
REMARK INTER:                 -10.931
REMARK INTRA:                  -1.413
REMARK UNBOUND:                -1.563
REMARK  9 active torsions:
REMARK  status: ('A' for Active; 'I' for Inactive)
REMARK    1  A    between atoms: O02_2  and  CAX_24 
REMARK    2  A    between atoms: CAC_3  and  CAM_13 
REMARK    3  A    between atoms: CAC_3  and  NBH_34 
REMARK    4  A    between atoms: CAM_13  and  CAN_14 
REMARK    5  A    between atoms: CAN_14  and  OAW_23 
REMARK    6  A    between atoms: NAU_21  and  CBB_28 
REMARK    7  A    between atoms: NAU_21  and  CBE_31 
REMARK    8  A    between atoms: OAV_22  and  CBC_29 
REMARK    9  A    between atoms: OAW_23  and  CBD_30 
ROOT
HETATM    1  NAD   D T 445     -38.586  -4.731  28.471  1.00172.85    -0.191 NA
HETATM    2  CAG   D T 445     -39.033  -4.894  29.411  1.00172.72     0.104 C 
HETATM    3  CAH   D T 445     -39.158  -4.702  31.981  1.00173.65     0.111 A 
HETATM    4  CAK   D T 445     -41.455  -5.700  34.753  1.00175.08     0.045 A 
HETATM    5  CAL   D T 445     -42.826  -6.703  32.510  1.00173.14     0.029 A 
HETATM    6  NAT   D T 445     -39.721  -4.890  33.241  1.00174.21    -0.243 NA
HETATM    7  CBA   D T 445     -39.726  -5.145  30.791  1.00172.91     0.105 A 
HETATM    8  CBC   D T 445     -43.369  -6.876  33.786  1.00173.92     0.116 A 
HETATM    9  CBD   D T 445     -42.687  -6.379  34.939  1.00174.94     0.118 A 
HETATM   10  CBE   D T 445     -40.963  -5.808  30.900  1.00172.61     0.094 A 
HETATM   11  CBF   D T 445     -40.920  -5.542  33.401  1.00174.22     0.085 A 
HETATM   12  CBG   D T 445     -41.565  -6.023  32.246  1.00173.34     0.038 A 
ENDROOT
BRANCH  10  13
HETATM   13  NAU   D T 445     -41.630  -6.349  29.655  1.00171.92    -0.244 NA
BRANCH  13  14
HETATM   14  CBB   D T 445     -42.957  -6.155  29.046  1.00169.02     0.094 A 
HETATM   15  CAJ   D T 445     -43.515  -4.963  28.647  1.00169.48     0.045 A 
HETATM   16  CAX   D T 445     -44.842  -4.853  27.996  1.00166.40     0.106 A 
HETATM   17  CAY   D T 445     -45.558  -6.015  27.743  1.00162.90     0.081 A 
HETATM   18 CL1    D T 445     -47.102  -6.004  26.963  1.00167.07    -0.080 Cl
HETATM   19  CAI   D T 445     -44.989  -7.239  28.122  1.00162.68     0.026 A 
HETATM   20  CAZ   D T 445     -43.729  -7.333  28.746  1.00165.75     0.076 A 
HETATM   21 CL2    D T 445     -43.175  -8.901  29.152  1.00297.59    -0.081 Cl
BRANCH  16  22
HETATM   22  O02   D T 445     -45.373  -3.626  27.633  1.00167.55    -0.327 OA
HETATM   23  C01   D T 445     -44.604  -2.506  27.110  1.00  7.55     0.181 C 
ENDBRANCH  16  22
ENDBRANCH  13  14
ENDBRANCH  10  13
BRANCH   8  24
HETATM   24  OAV   D T 445     -44.632  -7.526  33.817  1.00174.06    -0.326 OA
HETATM   25  CAA   D T 445     -44.691  -8.867  34.136  1.00171.51     0.181 C 
ENDBRANCH   8  24
BRANCH   9  26
HETATM   26  OAW   D T 445     -43.331  -6.448  36.284  1.00176.22    -0.329 OA
BRANCH  26  27
HETATM   27  CAN   D T 445     -42.676  -7.137  37.286  1.00172.41     0.151 C 
BRANCH  27  28
HETATM   28  CAM   D T 445     -42.488  -6.162  38.447  1.00172.95     0.068 C 
BRANCH  28  29
HETATM   29  CAC   D T 445     -42.861  -4.743  38.010  1.00176.18     0.253 C 
BRANCH  29  30
HETATM   30  NBH   D T 445     -41.736  -3.870  38.367  1.00176.27     0.141 N 
HETATM   31  CAP   D T 445     -41.930  -2.488  37.920  1.00179.63     0.285 C 
HETATM   32  CAR   D T 445     -40.745  -1.595  38.235  1.00181.97     0.285 C 
HETATM   33  NBI   D T 445     -39.505  -2.151  37.757  1.00180.77     0.143 N 
HETATM   34  CAO   D T 445     -38.368  -1.303  38.126  1.00184.53     0.285 C 
HETATM   35  CAS   D T 445     -39.367  -3.495  38.239  1.00176.33     0.285 C 
HETATM   36  CAQ   D T 445     -40.513  -4.407  37.864  1.00174.56     0.285 C 
ENDBRANCH  29  30
ENDBRANCH  28  29
ENDBRANCH  27  28
ENDBRANCH  26  27
ENDBRANCH   9  26
TORSDOF 9
ENDMDL
MODEL 7
REMARK VINA RESULT:    -6.990      2.719      3.653
REMARK INTER + INTRA:         -12.231
REMARK INTER:                 -11.472
REMARK INTRA:                  -0.759
REMARK UNBOUND:                -1.563
REMARK  9 active torsions:
REMARK  status: ('A' for Active; 'I' for Inactive)
REMARK    1  A    between atoms: O02_2  and  CAX_24 
REMARK    2  A    between atoms: CAC_3  and  CAM_13 
REMARK    3  A    between atoms: CAC_3  and  NBH_34 
REMARK    4  A    between atoms: CAM_13  and  CAN_14 
REMARK    5  A    between atoms: CAN_14  and  OAW_23 
REMARK    6  A    between atoms: NAU_21  and  CBB_28 
REMARK    7  A    between atoms: NAU_21  and  CBE_31 
REMARK    8  A    between atoms: OAV_22  and  CBC_29 
REMARK    9  A    between atoms: OAW_23  and  CBD_30 
ROOT
HETATM    1  NAD   D T 445     -43.541  -9.075  38.813  1.00172.85    -0.191 NA
HETATM    2  CAG   D T 445     -43.460  -8.789  37.802  1.00172.72     0.104 C 
HETATM    3  CAH   D T 445     -44.153  -8.840  35.317  1.00173.65     0.111 A 
HETATM    4  CAK   D T 445     -43.144  -7.234  32.098  1.00175.08     0.045 A 
HETATM    5  CAL   D T 445     -41.330  -6.055  33.897  1.00173.14     0.029 A 
HETATM    6  NAT   D T 445     -44.082  -8.481  33.974  1.00174.21    -0.243 NA
HETATM    7  CBA   D T 445     -43.319  -8.337  36.311  1.00172.91     0.105 A 
HETATM    8  CBC   D T 445     -41.283  -5.711  32.543  1.00173.92     0.116 A 
HETATM    9  CBD   D T 445     -42.192  -6.301  31.611  1.00174.94     0.118 A 
HETATM   10  CBE   D T 445     -42.363  -7.388  35.902  1.00172.61     0.094 A 
HETATM   11  CBF   D T 445     -43.159  -7.569  33.522  1.00174.22     0.085 A 
HETATM   12  CBG   D T 445     -42.275  -7.008  34.463  1.00173.34     0.038 A 
ENDROOT
BRANCH  10  13
HETATM   13  NAU   D T 445     -41.398  -6.817  36.917  1.00171.92    -0.244 NA
BRANCH  13  14
HETATM   14  CBB   D T 445     -41.166  -5.464  37.450  1.00169.02     0.094 A 
HETATM   15  CAJ   D T 445     -39.956  -4.820  37.570  1.00169.48     0.045 A 
HETATM   16  CAX   D T 445     -39.808  -3.436  38.075  1.00166.40     0.106 A 
HETATM   17  CAY   D T 445     -40.949  -2.726  38.420  1.00162.90     0.081 A 
HETATM   18 CL1    D T 445     -40.893  -1.094  38.992  1.00167.07    -0.080 Cl
HETATM   19  CAI   D T 445     -42.191  -3.361  38.278  1.00162.68     0.026 A 
HETATM   20  CAZ   D T 445     -42.323  -4.681  37.803  1.00165.75     0.076 A 
HETATM   21 CL2    D T 445     -43.908  -5.317  37.692  1.00297.59    -0.081 Cl
BRANCH  16  22
HETATM   22  O02   D T 445     -38.563  -2.838  38.200  1.00167.55    -0.327 OA
HETATM   23  C01   D T 445     -38.211  -1.528  37.674  1.00  7.55     0.181 C 
ENDBRANCH  16  22
ENDBRANCH  13  14
ENDBRANCH  10  13
BRANCH   8  24
HETATM   24  OAV   D T 445     -40.316  -4.726  32.208  1.00174.06    -0.326 OA
HETATM   25  CAA   D T 445     -38.983  -5.082  32.162  1.00171.51     0.181 C 
ENDBRANCH   8  24
BRANCH   9  26
HETATM   26  OAW   D T 445     -42.227  -5.836  30.194  1.00176.22    -0.329 OA
BRANCH  26  27
HETATM   27  CAN   D T 445     -41.302  -6.358  29.313  1.00172.41     0.151 C 
BRANCH  27  28
HETATM   28  CAM   D T 445     -41.966  -7.548  28.622  1.00172.95     0.068 C 
BRANCH  28  29
HETATM   29  CAC   D T 445     -41.243  -8.845  28.995  1.00176.18     0.253 C 
BRANCH  29  30
HETATM   30  NBH   D T 445     -41.718  -9.886  28.076  1.00176.27     0.141 N 
HETATM   31  CAP   D T 445     -40.733 -10.221  27.044  1.00179.63     0.285 C 
HETATM   32  CAR   D T 445     -41.242 -11.255  26.057  1.00181.97     0.285 C 
HETATM   33  NBI   D T 445     -42.516 -10.885  25.493  1.00180.77     0.143 N 
HETATM   34  CAO   D T 445     -43.016 -11.926  24.591  1.00184.53     0.285 C 
HETATM   35  CAS   D T 445     -43.436 -10.586  26.551  1.00176.33     0.285 C 
HETATM   36  CAQ   D T 445     -42.964  -9.503  27.494  1.00174.56     0.285 C 
ENDBRANCH  29  30
ENDBRANCH  28  29
ENDBRANCH  27  28
ENDBRANCH  26  27
ENDBRANCH   9  26
TORSDOF 9
ENDMDL
MODEL 8
REMARK VINA RESULT:    -6.989      4.501      8.720
REMARK INTER + INTRA:         -12.229
REMARK INTER:                 -10.739
REMARK INTRA:                  -1.491
REMARK UNBOUND:                -1.563
REMARK  9 active torsions:
REMARK  status: ('A' for Active; 'I' for Inactive)
REMARK    1  A    between atoms: O02_2  and  CAX_24 
REMARK    2  A    between atoms: CAC_3  and  CAM_13 
REMARK    3  A    between atoms: CAC_3  and  NBH_34 
REMARK    4  A    between atoms: CAM_13  and  CAN_14 
REMARK    5  A    between atoms: CAN_14  and  OAW_23 
REMARK    6  A    between atoms: NAU_21  and  CBB_28 
REMARK    7  A    between atoms: NAU_21  and  CBE_31 
REMARK    8  A    between atoms: OAV_22  and  CBC_29 
REMARK    9  A    between atoms: OAW_23  and  CBD_30 
ROOT
HETATM    1  NAD   D T 445     -40.704  -6.271  28.571  1.00172.85    -0.191 NA
HETATM    2  CAG   D T 445     -41.013  -6.653  29.503  1.00172.72     0.104 C 
HETATM    3  CAH   D T 445     -40.835  -6.953  32.059  1.00173.65     0.111 A 
HETATM    4  CAK   D T 445     -42.667  -8.700  34.806  1.00175.08     0.045 A 
HETATM    5  CAL   D T 445     -44.209  -9.422  32.566  1.00173.14     0.029 A 
HETATM    6  NAT   D T 445     -41.217  -7.433  33.309  1.00174.21    -0.243 NA
HETATM    7  CBA   D T 445     -41.503  -7.231  30.872  1.00172.91     0.105 A 
HETATM    8  CBC   D T 445     -44.571  -9.888  33.834  1.00173.92     0.116 A 
HETATM    9  CBD   D T 445     -43.799  -9.537  34.984  1.00174.94     0.118 A 
HETATM   10  CBE   D T 445     -42.651  -8.040  30.977  1.00172.61     0.094 A 
HETATM   11  CBF   D T 445     -42.321  -8.235  33.463  1.00174.22     0.085 A 
HETATM   12  CBG   D T 445     -43.058  -8.566  32.311  1.00173.34     0.038 A 
ENDROOT
BRANCH  10  13
HETATM   13  NAU   D T 445     -43.415  -8.415  29.727  1.00171.92    -0.244 NA
BRANCH  13  14
HETATM   14  CBB   D T 445     -44.169  -7.641  28.725  1.00169.02     0.094 A 
HETATM   15  CAJ   D T 445     -44.589  -6.337  28.835  1.00169.48     0.045 A 
HETATM   16  CAX   D T 445     -45.304  -5.610  27.760  1.00166.40     0.106 A 
HETATM   17  CAY   D T 445     -45.542  -6.262  26.559  1.00162.90     0.081 A 
HETATM   18 CL1    D T 445     -46.342  -5.498  25.229  1.00167.07    -0.080 Cl
HETATM   19  CAI   D T 445     -45.096  -7.584  26.424  1.00162.68     0.026 A 
HETATM   20  CAZ   D T 445     -44.422  -8.270  27.454  1.00165.75     0.076 A 
HETATM   21 CL2    D T 445     -43.946  -9.883  27.136  1.00297.59    -0.081 Cl
BRANCH  16  22
HETATM   22  O02   D T 445     -45.729  -4.301  27.928  1.00167.55    -0.327 OA
HETATM   23  C01   D T 445     -44.875  -3.128  27.825  1.00  7.55     0.181 C 
ENDBRANCH  16  22
ENDBRANCH  13  14
ENDBRANCH  10  13
BRANCH   8  24
HETATM   24  OAV   D T 445     -45.755 -10.671  33.868  1.00174.06    -0.326 OA
HETATM   25  CAA   D T 445     -46.952 -10.066  34.192  1.00171.51     0.181 C 
ENDBRANCH   8  24
BRANCH   9  26
HETATM   26  OAW   D T 445     -44.261  -9.925  36.349  1.00176.22    -0.329 OA
BRANCH  26  27
HETATM   27  CAN   D T 445     -44.782  -8.942  37.165  1.00172.41     0.151 C 
BRANCH  27  28
HETATM   28  CAM   D T 445     -43.747  -8.672  38.255  1.00172.95     0.068 C 
BRANCH  28  29
HETATM   29  CAC   D T 445     -43.990  -7.298  38.885  1.00176.18     0.253 C 
BRANCH  29  30
HETATM   30  NBH   D T 445     -42.982  -6.384  38.334  1.00176.27     0.141 N 
HETATM   31  CAP   D T 445     -43.501  -5.568  37.233  1.00179.63     0.285 C 
HETATM   32  CAR   D T 445     -42.448  -4.664  36.622  1.00181.97     0.285 C 
HETATM   33  NBI   D T 445     -41.261  -5.389  36.247  1.00180.77     0.143 N 
HETATM   34  CAO   D T 445     -40.235  -4.487  35.718  1.00184.53     0.285 C 
HETATM   35  CAS   D T 445     -40.795  -6.153  37.369  1.00176.33     0.285 C 
HETATM   36  CAQ   D T 445     -41.820  -7.110  37.934  1.00174.56     0.285 C 
ENDBRANCH  29  30
ENDBRANCH  28  29
ENDBRANCH  27  28
ENDBRANCH  26  27
ENDBRANCH   9  26
TORSDOF 9
ENDMDL
MODEL 9
REMARK VINA RESULT:    -6.816      3.933      8.993
REMARK INTER + INTRA:         -11.966
REMARK INTER:                 -10.259
REMARK INTRA:                  -1.706
REMARK UNBOUND:                -1.563
REMARK  9 active torsions:
REMARK  status: ('A' for Active; 'I' for Inactive)
REMARK    1  A    between atoms: O02_2  and  CAX_24 
REMARK    2  A    between atoms: CAC_3  and  CAM_13 
REMARK    3  A    between atoms: CAC_3  and  NBH_34 
REMARK    4  A    between atoms: CAM_13  and  CAN_14 
REMARK    5  A    between atoms: CAN_14  and  OAW_23 
REMARK    6  A    between atoms: NAU_21  and  CBB_28 
REMARK    7  A    between atoms: NAU_21  and  CBE_31 
REMARK    8  A    between atoms: OAV_22  and  CBC_29 
REMARK    9  A    between atoms: OAW_23  and  CBD_30 
ROOT
HETATM    1  NAD   D T 445     -39.519  -3.797  28.253  1.00172.85    -0.191 NA
HETATM    2  CAG   D T 445     -39.901  -4.181  29.157  1.00172.72     0.104 C 
HETATM    3  CAH   D T 445     -39.837  -4.621  31.698  1.00173.65     0.111 A 
HETATM    4  CAK   D T 445     -41.954  -6.250  34.310  1.00175.08     0.045 A 
HETATM    5  CAL   D T 445     -43.507  -6.667  32.001  1.00173.14     0.029 A 
HETATM    6  NAT   D T 445     -40.313  -5.107  32.913  1.00174.21    -0.243 NA
HETATM    7  CBA   D T 445     -40.500  -4.756  30.483  1.00172.91     0.105 A 
HETATM    8  CBC   D T 445     -43.961  -7.142  33.235  1.00173.92     0.116 A 
HETATM    9  CBD   D T 445     -43.186  -6.946  34.419  1.00174.94     0.118 A 
HETATM   10  CBE   D T 445     -41.742  -5.418  30.520  1.00172.61     0.094 A 
HETATM   11  CBF   D T 445     -41.513  -5.770  33.001  1.00174.22     0.085 A 
HETATM   12  CBG   D T 445     -42.251  -5.951  31.816  1.00173.34     0.038 A 
ENDROOT
BRANCH  10  13
HETATM   13  NAU   D T 445     -42.510  -5.635  29.236  1.00171.92    -0.244 NA
BRANCH  13  14
HETATM   14  CBB   D T 445     -43.088  -6.823  28.584  1.00169.02     0.094 A 
HETATM   15  CAJ   D T 445     -44.418  -7.058  28.326  1.00169.48     0.045 A 
HETATM   16  CAX   D T 445     -44.919  -8.260  27.621  1.00166.40     0.106 A 
HETATM   17  CAY   D T 445     -44.002  -9.195  27.164  1.00162.90     0.081 A 
HETATM   18 CL1    D T 445     -44.476 -10.620  26.304  1.00167.07    -0.080 Cl
HETATM   19  CAI   D T 445     -42.640  -8.956  27.397  1.00162.68     0.026 A 
HETATM   20  CAZ   D T 445     -42.173  -7.812  28.074  1.00165.75     0.076 A 
HETATM   21 CL2    D T 445     -40.480  -7.667  28.285  1.00297.59    -0.081 Cl
BRANCH  16  22
HETATM   22  O02   D T 445     -46.274  -8.464  27.405  1.00167.55    -0.327 OA
HETATM   23  C01   D T 445     -47.024  -7.945  26.272  1.00  7.55     0.181 C 
ENDBRANCH  16  22
ENDBRANCH  13  14
ENDBRANCH  10  13
BRANCH   8  24
HETATM   24  OAV   D T 445     -45.234  -7.771  33.202  1.00174.06    -0.326 OA
HETATM   25  CAA   D T 445     -45.349  -9.027  32.642  1.00171.51     0.181 C 
ENDBRANCH   8  24
BRANCH   9  26
HETATM   26  OAW   D T 445     -43.733  -7.336  35.752  1.00176.22    -0.329 OA
BRANCH  26  27
HETATM   27  CAN   D T 445     -43.269  -8.500  36.331  1.00172.41     0.151 C 
BRANCH  27  28
HETATM   28  CAM   D T 445     -42.448  -8.092  37.553  1.00172.95     0.068 C 
BRANCH  28  29
HETATM   29  CAC   D T 445     -43.180  -7.001  38.340  1.00176.18     0.253 C 
BRANCH  29  30
HETATM   30  NBH   D T 445     -42.258  -5.866  38.468  1.00176.27     0.141 N 
HETATM   31  CAP   D T 445     -42.814  -4.622  37.929  1.00179.63     0.285 C 
HETATM   32  CAR   D T 445     -41.842  -3.460  38.006  1.00181.97     0.285 C 
HETATM   33  NBI   D T 445     -40.565  -3.781  37.422  1.00180.77     0.143 N 
HETATM   34  CAO   D T 445     -39.624  -2.667  37.564  1.00184.53     0.285 C 
HETATM   35  CAS   D T 445     -40.068  -4.996  38.000  1.00176.33     0.285 C 
HETATM   36  CAQ   D T 445     -41.003  -6.176  37.860  1.00174.56     0.285 C 
ENDBRANCH  29  30
ENDBRANCH  28  29
ENDBRANCH  27  28
ENDBRANCH  26  27
ENDBRANCH   9  26
TORSDOF 9
ENDMDL
