MODEL 1
REMARK VINA RESULT:    -7.801      0.000      0.000
REMARK INTER + INTRA:         -14.448
REMARK INTER:                 -11.905
REMARK INTRA:                  -2.544
REMARK UNBOUND:                -2.544
REMARK  9 active torsions:
REMARK  status: ('A' for Active; 'I' for Inactive)
REMARK    1  A    between atoms: O02_2  and  CAX_24 
REMARK    2  A    between atoms: CAC_3  and  CAM_13 
REMARK    3  A    between atoms: CAC_3  and  NBH_34 
REMARK    4  A    between atoms: CAM_13  and  CAN_14 
REMARK    5  A    between atoms: CAN_14  and  OAW_23 
REMARK    6  A    between atoms: NAU_21  and  CBB_28 
REMARK    7  A    between atoms: NAU_21  and  CBE_31 
REMARK    8  A    between atoms: OAV_22  and  CBC_29 
REMARK    9  A    between atoms: OAW_23  and  CBD_30 
ROOT
HETATM    1  NAD   D T 445      -1.381  -7.693 -10.899  1.00172.85    -0.191 NA
HETATM    2  CAG   D T 445      -2.244  -7.105 -11.036  1.00172.72     0.104 C 
HETATM    3  CAH   D T 445      -4.785  -6.667 -10.961  1.00173.65     0.111 A 
HETATM    4  CAK   D T 445      -7.170  -3.893 -11.718  1.00175.08     0.045 A 
HETATM    5  CAL   D T 445      -4.707  -2.697 -12.365  1.00173.14     0.029 A 
HETATM    6  NAT   D T 445      -5.948  -5.918 -11.122  1.00174.21    -0.243 NA
HETATM    7  CBA   D T 445      -3.505  -6.202 -11.243  1.00172.91     0.105 A 
HETATM    8  CBC   D T 445      -5.890  -1.967 -12.514  1.00173.92     0.116 A 
HETATM    9  CBD   D T 445      -7.153  -2.556 -12.196  1.00174.94     0.118 A 
HETATM   10  CBE   D T 445      -3.410  -4.874 -11.701  1.00172.61     0.094 A 
HETATM   11  CBF   D T 445      -5.911  -4.622 -11.577  1.00174.22     0.085 A 
HETATM   12  CBG   D T 445      -4.653  -4.071 -11.886  1.00173.34     0.038 A 
ENDROOT
BRANCH  10  13
HETATM   13  NAU   D T 445      -2.056  -4.305 -12.060  1.00171.92    -0.244 NA
BRANCH  13  14
HETATM   14  CBB   D T 445      -0.989  -3.652 -11.282  1.00169.02     0.094 A 
HETATM   15  CAJ   D T 445      -1.146  -2.696 -10.306  1.00169.48     0.045 A 
HETATM   16  CAX   D T 445      -0.022  -2.120  -9.532  1.00166.40     0.106 A 
HETATM   17  CAY   D T 445       1.263  -2.585  -9.774  1.00162.90     0.081 A 
HETATM   18 CL1    D T 445       2.642  -2.003  -8.907  1.00167.07    -0.080 Cl
HETATM   19  CAI   D T 445       1.434  -3.579 -10.748  1.00162.68     0.026 A 
HETATM   20  CAZ   D T 445       0.359  -4.118 -11.485  1.00165.75     0.076 A 
HETATM   21 CL2    D T 445       0.733  -5.321 -12.643  1.00297.59    -0.081 Cl
BRANCH  16  22
HETATM   22  O02   D T 445      -0.228  -1.139  -8.573  1.00167.55    -0.327 OA
HETATM   23  C01   D T 445      -1.195  -1.224  -7.490  1.00  7.55     0.181 C 
ENDBRANCH  16  22
ENDBRANCH  13  14
ENDBRANCH  10  13
BRANCH   8  24
HETATM   24  OAV   D T 445      -5.716  -0.627 -12.950  1.00174.06    -0.326 OA
HETATM   25  CAA   D T 445      -4.684  -0.331 -13.818  1.00171.51     0.181 C 
ENDBRANCH   8  24
BRANCH   9  26
HETATM   26  OAW   D T 445      -8.399  -1.736 -12.231  1.00176.22    -0.329 OA
BRANCH  26  27
HETATM   27  CAN   D T 445      -8.958  -1.349 -11.029  1.00172.41     0.151 C 
BRANCH  27  28
HETATM   28  CAM   D T 445      -8.404   0.038 -10.706  1.00172.95     0.068 C 
BRANCH  28  29
HETATM   29  CAC   D T 445      -7.932   0.092  -9.251  1.00176.18     0.253 C 
BRANCH  29  30
HETATM   30  NBH   D T 445      -6.519   0.487  -9.267  1.00176.27     0.141 N 
HETATM   31  CAP   D T 445      -6.203   1.414 -10.358  1.00179.63     0.285 C 
HETATM   32  CAR   D T 445      -4.733   1.779 -10.413  1.00181.97     0.285 C 
HETATM   33  NBI   D T 445      -3.885   0.614 -10.430  1.00180.77     0.143 N 
HETATM   34  CAO   D T 445      -2.469   0.990 -10.422  1.00184.53     0.285 C 
HETATM   35  CAS   D T 445      -4.232  -0.244  -9.334  1.00176.33     0.285 C 
HETATM   36  CAQ   D T 445      -5.682  -0.670  -9.317  1.00174.56     0.285 C 
ENDBRANCH  29  30
ENDBRANCH  28  29
ENDBRANCH  27  28
ENDBRANCH  26  27
ENDBRANCH   9  26
TORSDOF 9
ENDMDL
MODEL 2
REMARK VINA RESULT:    -7.373      2.381      4.559
REMARK INTER + INTRA:         -13.796
REMARK INTER:                 -12.084
REMARK INTRA:                  -1.712
REMARK UNBOUND:                -2.544
REMARK  9 active torsions:
REMARK  status: ('A' for Active; 'I' for Inactive)
REMARK    1  A    between atoms: O02_2  and  CAX_24 
REMARK    2  A    between atoms: CAC_3  and  CAM_13 
REMARK    3  A    between atoms: CAC_3  and  NBH_34 
REMARK    4  A    between atoms: CAM_13  and  CAN_14 
REMARK    5  A    between atoms: CAN_14  and  OAW_23 
REMARK    6  A    between atoms: NAU_21  and  CBB_28 
REMARK    7  A    between atoms: NAU_21  and  CBE_31 
REMARK    8  A    between atoms: OAV_22  and  CBC_29 
REMARK    9  A    between atoms: OAW_23  and  CBD_30 
ROOT
HETATM    1  NAD   D T 445      -1.127  -7.692 -11.104  1.00172.85    -0.191 NA
HETATM    2  CAG   D T 445      -2.025  -7.147 -11.193  1.00172.72     0.104 C 
HETATM    3  CAH   D T 445      -4.584  -6.858 -11.048  1.00173.65     0.111 A 
HETATM    4  CAK   D T 445      -7.135  -4.187 -11.609  1.00175.08     0.045 A 
HETATM    5  CAL   D T 445      -4.756  -2.821 -12.236  1.00173.14     0.029 A 
HETATM    6  NAT   D T 445      -5.790  -6.169 -11.146  1.00174.21    -0.243 NA
HETATM    7  CBA   D T 445      -3.338  -6.308 -11.328  1.00172.91     0.105 A 
HETATM    8  CBC   D T 445      -5.981  -2.153 -12.323  1.00173.92     0.116 A 
HETATM    9  CBD   D T 445      -7.202  -2.829 -12.015  1.00174.94     0.118 A 
HETATM   10  CBE   D T 445      -3.327  -4.955 -11.715  1.00172.61     0.094 A 
HETATM   11  CBF   D T 445      -5.834  -4.850 -11.532  1.00174.22     0.085 A 
HETATM   12  CBG   D T 445      -4.616  -4.214 -11.833  1.00173.34     0.038 A 
ENDROOT
BRANCH  10  13
HETATM   13  NAU   D T 445      -2.015  -4.291 -12.067  1.00171.92    -0.244 NA
BRANCH  13  14
HETATM   14  CBB   D T 445      -0.948  -3.660 -11.271  1.00169.02     0.094 A 
HETATM   15  CAJ   D T 445      -1.109  -2.835 -10.182  1.00169.48     0.045 A 
HETATM   16  CAX   D T 445       0.018  -2.275  -9.402  1.00166.40     0.106 A 
HETATM   17  CAY   D T 445       1.314  -2.619  -9.760  1.00162.90     0.081 A 
HETATM   18 CL1    D T 445       2.701  -2.047  -8.899  1.00167.07    -0.080 Cl
HETATM   19  CAI   D T 445       1.492  -3.481 -10.852  1.00162.68     0.026 A 
HETATM   20  CAZ   D T 445       0.413  -4.005 -11.593  1.00165.75     0.076 A 
HETATM   21 CL2    D T 445       0.796  -5.039 -12.903  1.00297.59    -0.081 Cl
BRANCH  16  22
HETATM   22  O02   D T 445      -0.195  -1.428  -8.325  1.00167.55    -0.327 OA
HETATM   23  C01   D T 445      -1.501  -1.047  -7.809  1.00  7.55     0.181 C 
ENDBRANCH  16  22
ENDBRANCH  13  14
ENDBRANCH  10  13
BRANCH   8  24
HETATM   24  OAV   D T 445      -5.890  -0.784 -12.690  1.00174.06    -0.326 OA
HETATM   25  CAA   D T 445      -4.902  -0.387 -13.568  1.00171.51     0.181 C 
ENDBRANCH   8  24
BRANCH   9  26
HETATM   26  OAW   D T 445      -8.492  -2.079 -11.982  1.00176.22    -0.329 OA
BRANCH  26  27
HETATM   27  CAN   D T 445      -9.503  -2.558 -11.173  1.00172.41     0.151 C 
BRANCH  27  28
HETATM   28  CAM   D T 445     -10.823  -2.231 -11.869  1.00172.95     0.068 C 
BRANCH  28  29
HETATM   29  CAC   D T 445     -11.061  -3.200 -13.030  1.00176.18     0.253 C 
BRANCH  29  30
HETATM   30  NBH   D T 445     -10.834  -4.556 -12.517  1.00176.27     0.141 N 
HETATM   31  CAP   D T 445     -10.132  -5.413 -13.476  1.00179.63     0.285 C 
HETATM   32  CAR   D T 445      -9.947  -6.831 -12.972  1.00181.97     0.285 C 
HETATM   33  NBI   D T 445     -11.188  -7.416 -12.529  1.00180.77     0.143 N 
HETATM   34  CAO   D T 445     -10.976  -8.762 -11.991  1.00184.53     0.285 C 
HETATM   35  CAS   D T 445     -11.817  -6.539 -11.585  1.00176.33     0.285 C 
HETATM   36  CAQ   D T 445     -12.071  -5.144 -12.109  1.00174.56     0.285 C 
ENDBRANCH  29  30
ENDBRANCH  28  29
ENDBRANCH  27  28
ENDBRANCH  26  27
ENDBRANCH   9  26
TORSDOF 9
ENDMDL
MODEL 3
REMARK VINA RESULT:    -7.073      1.810      2.472
REMARK INTER + INTRA:         -13.338
REMARK INTER:                 -11.831
REMARK INTRA:                  -1.507
REMARK UNBOUND:                -2.544
REMARK  9 active torsions:
REMARK  status: ('A' for Active; 'I' for Inactive)
REMARK    1  A    between atoms: O02_2  and  CAX_24 
REMARK    2  A    between atoms: CAC_3  and  CAM_13 
REMARK    3  A    between atoms: CAC_3  and  NBH_34 
REMARK    4  A    between atoms: CAM_13  and  CAN_14 
REMARK    5  A    between atoms: CAN_14  and  OAW_23 
REMARK    6  A    between atoms: NAU_21  and  CBB_28 
REMARK    7  A    between atoms: NAU_21  and  CBE_31 
REMARK    8  A    between atoms: OAV_22  and  CBC_29 
REMARK    9  A    between atoms: OAW_23  and  CBD_30 
ROOT
HETATM    1  NAD   D T 445      -1.052  -7.719 -11.252  1.00172.85    -0.191 NA
HETATM    2  CAG   D T 445      -1.952  -7.172 -11.282  1.00172.72     0.104 C 
HETATM    3  CAH   D T 445      -4.505  -6.895 -11.034  1.00173.65     0.111 A 
HETATM    4  CAK   D T 445      -7.073  -4.204 -11.372  1.00175.08     0.045 A 
HETATM    5  CAL   D T 445      -4.718  -2.804 -12.011  1.00173.14     0.029 A 
HETATM    6  NAT   D T 445      -5.713  -6.204 -11.056  1.00174.21    -0.243 NA
HETATM    7  CBA   D T 445      -3.269  -6.329 -11.329  1.00172.91     0.105 A 
HETATM    8  CBC   D T 445      -5.945  -2.134 -12.022  1.00173.92     0.116 A 
HETATM    9  CBD   D T 445      -7.155  -2.826 -11.706  1.00174.94     0.118 A 
HETATM   10  CBE   D T 445      -3.272  -4.958 -11.648  1.00172.61     0.094 A 
HETATM   11  CBF   D T 445      -5.771  -4.867 -11.373  1.00174.22     0.085 A 
HETATM   12  CBG   D T 445      -4.563  -4.214 -11.684  1.00173.34     0.038 A 
ENDROOT
BRANCH  10  13
HETATM   13  NAU   D T 445      -1.972  -4.275 -12.012  1.00171.92    -0.244 NA
BRANCH  13  14
HETATM   14  CBB   D T 445      -0.903  -3.637 -11.224  1.00169.02     0.094 A 
HETATM   15  CAJ   D T 445      -1.061  -2.792 -10.151  1.00169.48     0.045 A 
HETATM   16  CAX   D T 445       0.069  -2.225  -9.378  1.00166.40     0.106 A 
HETATM   17  CAY   D T 445       1.363  -2.586  -9.726  1.00162.90     0.081 A 
HETATM   18 CL1    D T 445       2.751  -2.008  -8.872  1.00167.07    -0.080 Cl
HETATM   19  CAI   D T 445       1.537  -3.468 -10.801  1.00162.68     0.026 A 
HETATM   20  CAZ   D T 445       0.456  -3.998 -11.536  1.00165.75     0.076 A 
HETATM   21 CL2    D T 445       0.835  -5.059 -12.825  1.00297.59    -0.081 Cl
BRANCH  16  22
HETATM   22  O02   D T 445      -0.141  -1.357  -8.317  1.00167.55    -0.327 OA
HETATM   23  C01   D T 445      -1.368  -1.270  -7.541  1.00  7.55     0.181 C 
ENDBRANCH  16  22
ENDBRANCH  13  14
ENDBRANCH  10  13
BRANCH   8  24
HETATM   24  OAV   D T 445      -5.867  -0.748 -12.323  1.00174.06    -0.326 OA
HETATM   25  CAA   D T 445      -5.359  -0.352 -13.543  1.00171.51     0.181 C 
ENDBRANCH   8  24
BRANCH   9  26
HETATM   26  OAW   D T 445      -8.443  -2.082 -11.591  1.00176.22    -0.329 OA
BRANCH  26  27
HETATM   27  CAN   D T 445      -9.267  -2.031 -12.696  1.00172.41     0.151 C 
BRANCH  27  28
HETATM   28  CAM   D T 445     -10.192  -0.829 -12.508  1.00172.95     0.068 C 
BRANCH  28  29
HETATM   29  CAC   D T 445     -11.075  -1.032 -11.274  1.00176.18     0.253 C 
BRANCH  29  30
HETATM   30  NBH   D T 445     -10.774   0.060 -10.341  1.00176.27     0.141 N 
HETATM   31  CAP   D T 445     -10.018   1.148 -10.969  1.00179.63     0.285 C 
HETATM   32  CAR   D T 445      -9.654   2.251  -9.994  1.00181.97     0.285 C 
HETATM   33  NBI   D T 445      -8.995   1.740  -8.818  1.00180.77     0.143 N 
HETATM   34  CAO   D T 445      -8.708   2.815  -7.865  1.00184.53     0.285 C 
HETATM   35  CAS   D T 445      -9.789   0.693  -8.244  1.00176.33     0.285 C 
HETATM   36  CAQ   D T 445     -10.092  -0.445  -9.192  1.00174.56     0.285 C 
ENDBRANCH  29  30
ENDBRANCH  28  29
ENDBRANCH  27  28
ENDBRANCH  26  27
ENDBRANCH   9  26
TORSDOF 9
ENDMDL
MODEL 4
REMARK VINA RESULT:    -6.914      3.967      6.806
REMARK INTER + INTRA:         -13.095
REMARK INTER:                 -11.920
REMARK INTRA:                  -1.175
REMARK UNBOUND:                -2.544
REMARK  9 active torsions:
REMARK  status: ('A' for Active; 'I' for Inactive)
REMARK    1  A    between atoms: O02_2  and  CAX_24 
REMARK    2  A    between atoms: CAC_3  and  CAM_13 
REMARK    3  A    between atoms: CAC_3  and  NBH_34 
REMARK    4  A    between atoms: CAM_13  and  CAN_14 
REMARK    5  A    between atoms: CAN_14  and  OAW_23 
REMARK    6  A    between atoms: NAU_21  and  CBB_28 
REMARK    7  A    between atoms: NAU_21  and  CBE_31 
REMARK    8  A    between atoms: OAV_22  and  CBC_29 
REMARK    9  A    between atoms: OAW_23  and  CBD_30 
ROOT
HETATM    1  NAD   D T 445       1.151  -6.221 -11.282  1.00172.85    -0.191 NA
HETATM    2  CAG   D T 445       0.839  -5.237 -11.072  1.00172.72     0.104 C 
HETATM    3  CAH   D T 445       1.121  -2.884 -10.053  1.00173.65     0.111 A 
HETATM    4  CAK   D T 445      -0.775   0.330  -9.865  1.00175.08     0.045 A 
HETATM    5  CAL   D T 445      -2.535  -1.263 -11.376  1.00173.14     0.029 A 
HETATM    6  NAT   D T 445       0.747  -1.575  -9.763  1.00174.21    -0.243 NA
HETATM    7  CBA   D T 445       0.349  -3.779 -10.786  1.00172.91     0.105 A 
HETATM    8  CBC   D T 445      -2.884   0.056 -11.072  1.00173.92     0.116 A 
HETATM    9  CBD   D T 445      -2.008   0.881 -10.301  1.00174.94     0.118 A 
HETATM   10  CBE   D T 445      -0.879  -3.291 -11.272  1.00172.61     0.094 A 
HETATM   11  CBF   D T 445      -0.448  -1.054 -10.202  1.00174.22     0.085 A 
HETATM   12  CBG   D T 445      -1.291  -1.893 -10.955  1.00173.34     0.038 A 
ENDROOT
BRANCH  10  13
HETATM   13  NAU   D T 445      -1.790  -4.212 -12.051  1.00171.92    -0.244 NA
BRANCH  13  14
HETATM   14  CBB   D T 445      -3.210  -4.584 -11.924  1.00169.02     0.094 A 
HETATM   15  CAJ   D T 445      -4.297  -3.841 -12.322  1.00169.48     0.045 A 
HETATM   16  CAX   D T 445      -5.698  -4.305 -12.204  1.00166.40     0.106 A 
HETATM   17  CAY   D T 445      -5.941  -5.572 -11.693  1.00162.90     0.081 A 
HETATM   18 CL1    D T 445      -7.535  -6.225 -11.539  1.00167.07    -0.080 Cl
HETATM   19  CAI   D T 445      -4.840  -6.351 -11.307  1.00162.68     0.026 A 
HETATM   20  CAZ   D T 445      -3.509  -5.899 -11.418  1.00165.75     0.076 A 
HETATM   21 CL2    D T 445      -2.276  -6.967 -10.899  1.00297.59    -0.081 Cl
BRANCH  16  22
HETATM   22  O02   D T 445      -6.763  -3.508 -12.598  1.00167.55    -0.327 OA
HETATM   23  C01   D T 445      -6.987  -2.140 -12.158  1.00  7.55     0.181 C 
ENDBRANCH  16  22
ENDBRANCH  13  14
ENDBRANCH  10  13
BRANCH   8  24
HETATM   24  OAV   D T 445      -4.121   0.489 -11.619  1.00174.06    -0.326 OA
HETATM   25  CAA   D T 445      -4.319   0.405 -12.982  1.00171.51     0.181 C 
ENDBRANCH   8  24
BRANCH   9  26
HETATM   26  OAW   D T 445      -2.321   2.325 -10.090  1.00176.22    -0.329 OA
BRANCH  26  27
HETATM   27  CAN   D T 445      -1.444   3.080  -9.339  1.00172.41     0.151 C 
BRANCH  27  28
HETATM   28  CAM   D T 445      -1.169   4.360 -10.126  1.00172.95     0.068 C 
BRANCH  28  29
HETATM   29  CAC   D T 445      -0.254   4.062 -11.316  1.00176.18     0.253 C 
BRANCH  29  30
HETATM   30  NBH   D T 445       1.126   4.273 -10.865  1.00176.27     0.141 N 
HETATM   31  CAP   D T 445       1.313   5.565 -10.199  1.00179.63     0.285 C 
HETATM   32  CAR   D T 445       2.750   5.811  -9.784  1.00181.97     0.285 C 
HETATM   33  NBI   D T 445       3.670   5.628 -10.878  1.00180.77     0.143 N 
HETATM   34  CAO   D T 445       5.056   5.811 -10.440  1.00184.53     0.285 C 
HETATM   35  CAS   D T 445       3.448   4.344 -11.477  1.00176.33     0.285 C 
HETATM   36  CAQ   D T 445       2.033   4.122 -11.959  1.00174.56     0.285 C 
ENDBRANCH  29  30
ENDBRANCH  28  29
ENDBRANCH  27  28
ENDBRANCH  26  27
ENDBRANCH   9  26
TORSDOF 9
ENDMDL
MODEL 5
REMARK VINA RESULT:    -6.909      2.724      4.072
REMARK INTER + INTRA:         -13.087
REMARK INTER:                 -11.512
REMARK INTRA:                  -1.575
REMARK UNBOUND:                -2.544
REMARK  9 active torsions:
REMARK  status: ('A' for Active; 'I' for Inactive)
REMARK    1  A    between atoms: O02_2  and  CAX_24 
REMARK    2  A    between atoms: CAC_3  and  CAM_13 
REMARK    3  A    between atoms: CAC_3  and  NBH_34 
REMARK    4  A    between atoms: CAM_13  and  CAN_14 
REMARK    5  A    between atoms: CAN_14  and  OAW_23 
REMARK    6  A    between atoms: NAU_21  and  CBB_28 
REMARK    7  A    between atoms: NAU_21  and  CBE_31 
REMARK    8  A    between atoms: OAV_22  and  CBC_29 
REMARK    9  A    between atoms: OAW_23  and  CBD_30 
ROOT
HETATM    1  NAD   D T 445      -1.065  -7.538 -11.239  1.00172.85    -0.191 NA
HETATM    2  CAG   D T 445      -1.971  -7.003 -11.283  1.00172.72     0.104 C 
HETATM    3  CAH   D T 445      -4.530  -6.758 -11.067  1.00173.65     0.111 A 
HETATM    4  CAK   D T 445      -7.130  -4.103 -11.447  1.00175.08     0.045 A 
HETATM    5  CAL   D T 445      -4.785  -2.675 -12.065  1.00173.14     0.029 A 
HETATM    6  NAT   D T 445      -5.747  -6.084 -11.106  1.00174.21    -0.243 NA
HETATM    7  CBA   D T 445      -3.299  -6.178 -11.349  1.00172.91     0.105 A 
HETATM    8  CBC   D T 445      -6.021  -2.021 -12.094  1.00173.92     0.116 A 
HETATM    9  CBD   D T 445      -7.225  -2.728 -11.789  1.00174.94     0.118 A 
HETATM   10  CBE   D T 445      -3.315  -4.808 -11.674  1.00172.61     0.094 A 
HETATM   11  CBF   D T 445      -5.819  -4.749 -11.430  1.00174.22     0.085 A 
HETATM   12  CBG   D T 445      -4.616  -4.082 -11.729  1.00173.34     0.038 A 
ENDROOT
BRANCH  10  13
HETATM   13  NAU   D T 445      -2.021  -4.110 -12.026  1.00171.92    -0.244 NA
BRANCH  13  14
HETATM   14  CBB   D T 445      -0.933  -3.522 -11.226  1.00169.02     0.094 A 
HETATM   15  CAJ   D T 445      -1.064  -2.679 -10.148  1.00169.48     0.045 A 
HETATM   16  CAX   D T 445       0.082  -2.165  -9.362  1.00166.40     0.106 A 
HETATM   17  CAY   D T 445       1.363  -2.574  -9.704  1.00162.90     0.081 A 
HETATM   18 CL1    D T 445       2.767  -2.059  -8.836  1.00167.07    -0.080 Cl
HETATM   19  CAI   D T 445       1.509  -3.454 -10.786  1.00162.68     0.026 A 
HETATM   20  CAZ   D T 445       0.413  -3.934 -11.532  1.00165.75     0.076 A 
HETATM   21 CL2    D T 445       0.758  -4.999 -12.827  1.00297.59    -0.081 Cl
BRANCH  16  22
HETATM   22  O02   D T 445      -0.101  -1.297  -8.296  1.00167.55    -0.327 OA
HETATM   23  C01   D T 445      -1.302  -1.222  -7.478  1.00  7.55     0.181 C 
ENDBRANCH  16  22
ENDBRANCH  13  14
ENDBRANCH  10  13
BRANCH   8  24
HETATM   24  OAV   D T 445      -5.958  -0.636 -12.400  1.00174.06    -0.326 OA
HETATM   25  CAA   D T 445      -6.048  -0.233 -13.717  1.00171.51     0.181 C 
ENDBRANCH   8  24
BRANCH   9  26
HETATM   26  OAW   D T 445      -8.524  -2.000 -11.692  1.00176.22    -0.329 OA
BRANCH  26  27
HETATM   27  CAN   D T 445      -9.530  -2.560 -10.930  1.00172.41     0.151 C 
BRANCH  27  28
HETATM   28  CAM   D T 445     -10.617  -3.024 -11.898  1.00172.95     0.068 C 
BRANCH  28  29
HETATM   29  CAC   D T 445     -11.546  -1.858 -12.246  1.00176.18     0.253 C 
BRANCH  29  30
HETATM   30  NBH   D T 445     -11.589  -1.760 -13.710  1.00176.27     0.141 N 
HETATM   31  CAP   D T 445     -11.319  -3.040 -14.371  1.00179.63     0.285 C 
HETATM   32  CAR   D T 445     -11.305  -2.931 -15.883  1.00181.97     0.285 C 
HETATM   33  NBI   D T 445     -10.424  -1.887 -16.343  1.00180.77     0.143 N 
HETATM   34  CAO   D T 445     -10.473  -1.759 -17.802  1.00184.53     0.285 C 
HETATM   35  CAS   D T 445     -10.748  -0.661 -15.673  1.00176.33     0.285 C 
HETATM   36  CAQ   D T 445     -10.691  -0.747 -14.165  1.00174.56     0.285 C 
ENDBRANCH  29  30
ENDBRANCH  28  29
ENDBRANCH  27  28
ENDBRANCH  26  27
ENDBRANCH   9  26
TORSDOF 9
ENDMDL
MODEL 6
REMARK VINA RESULT:    -6.779      2.027      2.790
REMARK INTER + INTRA:         -12.889
REMARK INTER:                 -11.243
REMARK INTRA:                  -1.646
REMARK UNBOUND:                -2.544
REMARK  9 active torsions:
REMARK  status: ('A' for Active; 'I' for Inactive)
REMARK    1  A    between atoms: O02_2  and  CAX_24 
REMARK    2  A    between atoms: CAC_3  and  CAM_13 
REMARK    3  A    between atoms: CAC_3  and  NBH_34 
REMARK    4  A    between atoms: CAM_13  and  CAN_14 
REMARK    5  A    between atoms: CAN_14  and  OAW_23 
REMARK    6  A    between atoms: NAU_21  and  CBB_28 
REMARK    7  A    between atoms: NAU_21  and  CBE_31 
REMARK    8  A    between atoms: OAV_22  and  CBC_29 
REMARK    9  A    between atoms: OAW_23  and  CBD_30 
ROOT
HETATM    1  NAD   D T 445      -1.086  -7.745 -11.216  1.00172.85    -0.191 NA
HETATM    2  CAG   D T 445      -1.979  -7.188 -11.261  1.00172.72     0.104 C 
HETATM    3  CAH   D T 445      -4.530  -6.878 -11.038  1.00173.65     0.111 A 
HETATM    4  CAK   D T 445      -7.064  -4.162 -11.431  1.00175.08     0.045 A 
HETATM    5  CAL   D T 445      -4.687  -2.798 -12.070  1.00173.14     0.029 A 
HETATM    6  NAT   D T 445      -5.730  -6.173 -11.078  1.00174.21    -0.243 NA
HETATM    7  CBA   D T 445      -3.286  -6.331 -11.330  1.00172.91     0.105 A 
HETATM    8  CBC   D T 445      -5.906  -2.114 -12.100  1.00173.92     0.116 A 
HETATM    9  CBD   D T 445      -7.126  -2.788 -11.785  1.00174.94     0.118 A 
HETATM   10  CBE   D T 445      -3.269  -4.964 -11.667  1.00172.61     0.094 A 
HETATM   11  CBF   D T 445      -5.770  -4.841 -11.413  1.00174.22     0.085 A 
HETATM   12  CBG   D T 445      -4.552  -4.206 -11.723  1.00173.34     0.038 A 
ENDROOT
BRANCH  10  13
HETATM   13  NAU   D T 445      -1.959  -4.302 -12.029  1.00171.92    -0.244 NA
BRANCH  13  14
HETATM   14  CBB   D T 445      -0.887  -3.670 -11.241  1.00169.02     0.094 A 
HETATM   15  CAJ   D T 445      -1.040  -2.833 -10.160  1.00169.48     0.045 A 
HETATM   16  CAX   D T 445       0.092  -2.273  -9.387  1.00166.40     0.106 A 
HETATM   17  CAY   D T 445       1.385  -2.629  -9.744  1.00162.90     0.081 A 
HETATM   18 CL1    D T 445       2.777  -2.058  -8.891  1.00167.07    -0.080 Cl
HETATM   19  CAI   D T 445       1.555  -3.502 -10.828  1.00162.68     0.026 A 
HETATM   20  CAZ   D T 445       0.471  -4.027 -11.562  1.00165.75     0.076 A 
HETATM   21 CL2    D T 445       0.845  -5.076 -12.861  1.00297.59    -0.081 Cl
BRANCH  16  22
HETATM   22  O02   D T 445      -0.113  -1.413  -8.319  1.00167.55    -0.327 OA
HETATM   23  C01   D T 445      -1.371  -1.258  -7.604  1.00  7.55     0.181 C 
ENDBRANCH  16  22
ENDBRANCH  13  14
ENDBRANCH  10  13
BRANCH   8  24
HETATM   24  OAV   D T 445      -5.810  -0.733 -12.418  1.00174.06    -0.326 OA
HETATM   25  CAA   D T 445      -5.137  -0.352 -13.562  1.00171.51     0.181 C 
ENDBRANCH   8  24
BRANCH   9  26
HETATM   26  OAW   D T 445      -8.406  -2.027 -11.690  1.00176.22    -0.329 OA
BRANCH  26  27
HETATM   27  CAN   D T 445      -9.396  -2.297 -12.614  1.00172.41     0.151 C 
BRANCH  27  28
HETATM   28  CAM   D T 445      -9.265  -1.257 -13.724  1.00172.95     0.068 C 
BRANCH  28  29
HETATM   29  CAC   D T 445     -10.388  -0.223 -13.613  1.00176.18     0.253 C 
BRANCH  29  30
HETATM   30  NBH   D T 445      -9.817   0.973 -12.982  1.00176.27     0.141 N 
HETATM   31  CAP   D T 445     -10.634   2.171 -13.195  1.00179.63     0.285 C 
HETATM   32  CAR   D T 445     -10.017   3.418 -12.595  1.00181.97     0.285 C 
HETATM   33  NBI   D T 445      -8.654   3.610 -13.023  1.00180.77     0.143 N 
HETATM   34  CAO   D T 445      -8.059   4.786 -12.383  1.00184.53     0.285 C 
HETATM   35  CAS   D T 445      -7.905   2.412 -12.775  1.00176.33     0.285 C 
HETATM   36  CAQ   D T 445      -8.477   1.177 -13.433  1.00174.56     0.285 C 
ENDBRANCH  29  30
ENDBRANCH  28  29
ENDBRANCH  27  28
ENDBRANCH  26  27
ENDBRANCH   9  26
TORSDOF 9
ENDMDL
MODEL 7
REMARK VINA RESULT:    -6.676      2.719      4.915
REMARK INTER + INTRA:         -12.732
REMARK INTER:                 -10.620
REMARK INTRA:                  -2.112
REMARK UNBOUND:                -2.544
REMARK  9 active torsions:
REMARK  status: ('A' for Active; 'I' for Inactive)
REMARK    1  A    between atoms: O02_2  and  CAX_24 
REMARK    2  A    between atoms: CAC_3  and  CAM_13 
REMARK    3  A    between atoms: CAC_3  and  NBH_34 
REMARK    4  A    between atoms: CAM_13  and  CAN_14 
REMARK    5  A    between atoms: CAN_14  and  OAW_23 
REMARK    6  A    between atoms: NAU_21  and  CBB_28 
REMARK    7  A    between atoms: NAU_21  and  CBE_31 
REMARK    8  A    between atoms: OAV_22  and  CBC_29 
REMARK    9  A    between atoms: OAW_23  and  CBD_30 
ROOT
HETATM    1  NAD   D T 445       1.550  -1.724  -9.035  1.00172.85    -0.191 NA
HETATM    2  CAG   D T 445       0.579  -1.318  -9.081  1.00172.72     0.104 C 
HETATM    3  CAH   D T 445      -1.350   0.176  -8.243  1.00173.65     0.111 A 
HETATM    4  CAK   D T 445      -4.835   1.071  -9.246  1.00175.08     0.045 A 
HETATM    5  CAL   D T 445      -4.118  -0.732 -11.284  1.00173.14     0.029 A 
HETATM    6  NAT   D T 445      -2.623   0.739  -8.274  1.00174.21    -0.243 NA
HETATM    7  CBA   D T 445      -0.866  -0.728  -9.183  1.00172.91     0.105 A 
HETATM    8  CBC   D T 445      -5.389  -0.149 -11.292  1.00173.92     0.116 A 
HETATM    9  CBD   D T 445      -5.776   0.765 -10.264  1.00174.94     0.118 A 
HETATM   10  CBE   D T 445      -1.740  -1.059 -10.236  1.00172.61     0.094 A 
HETATM   11  CBF   D T 445      -3.517   0.439  -9.273  1.00174.22     0.085 A 
HETATM   12  CBG   D T 445      -3.108  -0.468 -10.269  1.00173.34     0.038 A 
ENDROOT
BRANCH  10  13
HETATM   13  NAU   D T 445      -1.300  -2.059 -11.281  1.00171.92    -0.244 NA
BRANCH  13  14
HETATM   14  CBB   D T 445      -1.564  -3.494 -11.491  1.00169.02     0.094 A 
HETATM   15  CAJ   D T 445      -2.793  -4.111 -11.522  1.00169.48     0.045 A 
HETATM   16  CAX   D T 445      -2.981  -5.556 -11.786  1.00166.40     0.106 A 
HETATM   17  CAY   D T 445      -1.864  -6.337 -12.050  1.00162.90     0.081 A 
HETATM   18 CL1    D T 445      -1.971  -8.027 -12.400  1.00167.07    -0.080 Cl
HETATM   19  CAI   D T 445      -0.607  -5.715 -12.047  1.00162.68     0.026 A 
HETATM   20  CAZ   D T 445      -0.437  -4.339 -11.788  1.00165.75     0.076 A 
HETATM   21 CL2    D T 445       1.163  -3.732 -11.816  1.00297.59    -0.081 Cl
BRANCH  16  22
HETATM   22  O02   D T 445      -4.239  -6.137 -11.784  1.00167.55    -0.327 OA
HETATM   23  C01   D T 445      -5.233  -5.968 -10.736  1.00  7.55     0.181 C 
ENDBRANCH  16  22
ENDBRANCH  13  14
ENDBRANCH  10  13
BRANCH   8  24
HETATM   24  OAV   D T 445      -6.204  -0.505 -12.399  1.00174.06    -0.326 OA
HETATM   25  CAA   D T 445      -6.137   0.248 -13.554  1.00171.51     0.181 C 
ENDBRANCH   8  24
BRANCH   9  26
HETATM   26  OAW   D T 445      -7.081   1.485 -10.346  1.00176.22    -0.329 OA
BRANCH  26  27
HETATM   27  CAN   D T 445      -7.092   2.844 -10.105  1.00172.41     0.151 C 
BRANCH  27  28
HETATM   28  CAM   D T 445      -6.378   3.511 -11.280  1.00172.95     0.068 C 
BRANCH  28  29
HETATM   29  CAC   D T 445      -5.436   4.606 -10.772  1.00176.18     0.253 C 
BRANCH  29  30
HETATM   30  NBH   D T 445      -4.131   3.979 -10.532  1.00176.27     0.141 N 
HETATM   31  CAP   D T 445      -3.207   4.855  -9.807  1.00179.63     0.285 C 
HETATM   32  CAR   D T 445      -1.839   4.233  -9.609  1.00181.97     0.285 C 
HETATM   33  NBI   D T 445      -1.275   3.757 -10.846  1.00180.77     0.143 N 
HETATM   34  CAO   D T 445       0.018   3.105 -10.622  1.00184.53     0.285 C 
HETATM   35  CAS   D T 445      -2.218   2.895 -11.499  1.00176.33     0.285 C 
HETATM   36  CAQ   D T 445      -3.561   3.537 -11.765  1.00174.56     0.285 C 
ENDBRANCH  29  30
ENDBRANCH  28  29
ENDBRANCH  27  28
ENDBRANCH  26  27
ENDBRANCH   9  26
TORSDOF 9
ENDMDL
MODEL 8
REMARK VINA RESULT:    -6.570      2.462      5.499
REMARK INTER + INTRA:         -12.571
REMARK INTER:                 -10.641
REMARK INTRA:                  -1.930
REMARK UNBOUND:                -2.544
REMARK  9 active torsions:
REMARK  status: ('A' for Active; 'I' for Inactive)
REMARK    1  A    between atoms: O02_2  and  CAX_24 
REMARK    2  A    between atoms: CAC_3  and  CAM_13 
REMARK    3  A    between atoms: CAC_3  and  NBH_34 
REMARK    4  A    between atoms: CAM_13  and  CAN_14 
REMARK    5  A    between atoms: CAN_14  and  OAW_23 
REMARK    6  A    between atoms: NAU_21  and  CBB_28 
REMARK    7  A    between atoms: NAU_21  and  CBE_31 
REMARK    8  A    between atoms: OAV_22  and  CBC_29 
REMARK    9  A    between atoms: OAW_23  and  CBD_30 
ROOT
HETATM    1  NAD   D T 445       1.865  -4.312  -9.407  1.00172.85    -0.191 NA
HETATM    2  CAG   D T 445       1.376  -3.387  -9.531  1.00172.72     0.104 C 
HETATM    3  CAH   D T 445       0.951  -0.900  -8.991  1.00173.65     0.111 A 
HETATM    4  CAK   D T 445      -1.255   1.879 -10.159  1.00175.08     0.045 A 
HETATM    5  CAL   D T 445      -2.088  -0.227 -11.829  1.00173.14     0.029 A 
HETATM    6  NAT   D T 445       0.334   0.340  -9.132  1.00174.21    -0.243 NA
HETATM    7  CBA   D T 445       0.637  -2.025  -9.747  1.00172.91     0.105 A 
HETATM    8  CBC   D T 445      -2.688   1.030 -11.950  1.00173.92     0.116 A 
HETATM    9  CBD   D T 445      -2.284   2.112 -11.109  1.00174.94     0.118 A 
HETATM   10  CBE   D T 445      -0.361  -1.860 -10.726  1.00172.61     0.094 A 
HETATM   11  CBF   D T 445      -0.654   0.550 -10.063  1.00174.22     0.085 A 
HETATM   12  CBG   D T 445      -1.033  -0.537 -10.874  1.00173.34     0.038 A 
ENDROOT
BRANCH  10  13
HETATM   13  NAU   D T 445      -0.781  -3.043 -11.568  1.00171.92    -0.244 NA
BRANCH  13  14
HETATM   14  CBB   D T 445      -1.927  -3.968 -11.522  1.00169.02     0.094 A 
HETATM   15  CAJ   D T 445      -3.260  -3.630 -11.508  1.00169.48     0.045 A 
HETATM   16  CAX   D T 445      -4.360  -4.622 -11.509  1.00166.40     0.106 A 
HETATM   17  CAY   D T 445      -4.041  -5.972 -11.559  1.00162.90     0.081 A 
HETATM   18 CL1    D T 445      -5.246  -7.212 -11.595  1.00167.07    -0.080 Cl
HETATM   19  CAI   D T 445      -2.686  -6.330 -11.600  1.00162.68     0.026 A 
HETATM   20  CAZ   D T 445      -1.645  -5.378 -11.593  1.00165.75     0.076 A 
HETATM   21 CL2    D T 445      -0.042  -5.976 -11.642  1.00297.59    -0.081 Cl
BRANCH  16  22
HETATM   22  O02   D T 445      -5.690  -4.232 -11.470  1.00167.55    -0.327 OA
HETATM   23  C01   D T 445      -6.160  -2.860 -11.589  1.00  7.55     0.181 C 
ENDBRANCH  16  22
ENDBRANCH  13  14
ENDBRANCH  10  13
BRANCH   8  24
HETATM   24  OAV   D T 445      -3.664   1.130 -12.977  1.00174.06    -0.326 OA
HETATM   25  CAA   D T 445      -4.363   0.001 -13.353  1.00171.51     0.181 C 
ENDBRANCH   8  24
BRANCH   9  26
HETATM   26  OAW   D T 445      -2.832   3.483 -11.328  1.00176.22    -0.329 OA
BRANCH  26  27
HETATM   27  CAN   D T 445      -3.286   4.187 -10.231  1.00172.41     0.151 C 
BRANCH  27  28
HETATM   28  CAM   D T 445      -4.797   3.975 -10.159  1.00172.95     0.068 C 
BRANCH  28  29
HETATM   29  CAC   D T 445      -5.191   3.449  -8.777  1.00176.18     0.253 C 
BRANCH  29  30
HETATM   30  NBH   D T 445      -6.073   2.295  -8.987  1.00176.27     0.141 N 
HETATM   31  CAP   D T 445      -6.008   1.775 -10.356  1.00179.63     0.285 C 
HETATM   32  CAR   D T 445      -6.961   0.620 -10.593  1.00181.97     0.285 C 
HETATM   33  NBI   D T 445      -8.310   0.939 -10.198  1.00180.77     0.143 N 
HETATM   34  CAO   D T 445      -9.200  -0.211 -10.379  1.00184.53     0.285 C 
HETATM   35  CAS   D T 445      -8.308   1.426  -8.849  1.00176.33     0.285 C 
HETATM   36  CAQ   D T 445      -7.415   2.625  -8.625  1.00174.56     0.285 C 
ENDBRANCH  29  30
ENDBRANCH  28  29
ENDBRANCH  27  28
ENDBRANCH  26  27
ENDBRANCH   9  26
TORSDOF 9
ENDMDL
MODEL 9
REMARK VINA RESULT:    -6.291      2.518      4.876
REMARK INTER + INTRA:         -12.145
REMARK INTER:                 -10.005
REMARK INTRA:                  -2.140
REMARK UNBOUND:                -2.544
REMARK  9 active torsions:
REMARK  status: ('A' for Active; 'I' for Inactive)
REMARK    1  A    between atoms: O02_2  and  CAX_24 
REMARK    2  A    between atoms: CAC_3  and  CAM_13 
REMARK    3  A    between atoms: CAC_3  and  NBH_34 
REMARK    4  A    between atoms: CAM_13  and  CAN_14 
REMARK    5  A    between atoms: CAN_14  and  OAW_23 
REMARK    6  A    between atoms: NAU_21  and  CBB_28 
REMARK    7  A    between atoms: NAU_21  and  CBE_31 
REMARK    8  A    between atoms: OAV_22  and  CBC_29 
REMARK    9  A    between atoms: OAW_23  and  CBD_30 
ROOT
HETATM    1  NAD   D T 445      -2.197   2.223 -10.029  1.00172.85    -0.191 NA
HETATM    2  CAG   D T 445      -2.978   1.678 -10.478  1.00172.72     0.104 C 
HETATM    3  CAH   D T 445      -5.004   1.399 -12.052  1.00173.65     0.111 A 
HETATM    4  CAK   D T 445      -7.377  -1.284 -13.110  1.00175.08     0.045 A 
HETATM    5  CAL   D T 445      -5.743  -2.676 -11.291  1.00173.14     0.029 A 
HETATM    6  NAT   D T 445      -6.042   0.710 -12.672  1.00174.21    -0.243 NA
HETATM    7  CBA   D T 445      -4.123   0.837 -11.134  1.00172.91     0.105 A 
HETATM    8  CBC   D T 445      -6.791  -3.345 -11.931  1.00173.92     0.116 A 
HETATM    9  CBD   D T 445      -7.637  -2.656 -12.854  1.00174.94     0.118 A 
HETATM   10  CBE   D T 445      -4.308  -0.529 -10.850  1.00172.61     0.094 A 
HETATM   11  CBF   D T 445      -6.272  -0.621 -12.419  1.00174.22     0.085 A 
HETATM   12  CBG   D T 445      -5.425  -1.271 -11.502  1.00173.34     0.038 A 
ENDROOT
BRANCH  10  13
HETATM   13  NAU   D T 445      -3.412  -1.207  -9.838  1.00171.92    -0.244 NA
BRANCH  13  14
HETATM   14  CBB   D T 445      -2.258  -2.117  -9.949  1.00169.02     0.094 A 
HETATM   15  CAJ   D T 445      -2.087  -3.123 -10.872  1.00169.48     0.045 A 
HETATM   16  CAX   D T 445      -0.873  -3.968 -10.950  1.00166.40     0.106 A 
HETATM   17  CAY   D T 445       0.171  -3.721 -10.069  1.00162.90     0.081 A 
HETATM   18 CL1    D T 445       1.644  -4.626 -10.093  1.00167.07    -0.080 Cl
HETATM   19  CAI   D T 445       0.019  -2.681  -9.140  1.00162.68     0.026 A 
HETATM   20  CAZ   D T 445      -1.143  -1.885  -9.069  1.00165.75     0.076 A 
HETATM   21 CL2    D T 445      -1.175  -0.658  -7.876  1.00297.59    -0.081 Cl
BRANCH  16  22
HETATM   22  O02   D T 445      -0.756  -4.986 -11.884  1.00167.55    -0.327 OA
HETATM   23  C01   D T 445      -1.299  -6.327 -11.727  1.00  7.55     0.181 C 
ENDBRANCH  16  22
ENDBRANCH  13  14
ENDBRANCH  10  13
BRANCH   8  24
HETATM   24  OAV   D T 445      -6.899  -4.726 -11.619  1.00174.06    -0.326 OA
HETATM   25  CAA   D T 445      -6.020  -5.280 -10.709  1.00171.51     0.181 C 
ENDBRANCH   8  24
BRANCH   9  26
HETATM   26  OAW   D T 445      -8.670  -3.401 -13.633  1.00176.22    -0.329 OA
BRANCH  26  27
HETATM   27  CAN   D T 445      -9.957  -2.904 -13.649  1.00172.41     0.151 C 
BRANCH  27  28
HETATM   28  CAM   D T 445     -10.421  -2.817 -12.196  1.00172.95     0.068 C 
BRANCH  28  29
HETATM   29  CAC   D T 445     -11.457  -1.702 -12.040  1.00176.18     0.253 C 
BRANCH  29  30
HETATM   30  NBH   D T 445     -10.845  -0.653 -11.216  1.00176.27     0.141 N 
HETATM   31  CAP   D T 445     -10.299   0.448 -12.015  1.00179.63     0.285 C 
HETATM   32  CAR   D T 445      -9.615   1.505 -11.171  1.00181.97     0.285 C 
HETATM   33  NBI   D T 445      -8.629   0.938 -10.286  1.00180.77     0.143 N 
HETATM   34  CAO   D T 445      -8.024   1.968  -9.438  1.00184.53     0.285 C 
HETATM   35  CAS   D T 445      -9.226  -0.120  -9.524  1.00176.33     0.285 C 
HETATM   36  CAQ   D T 445      -9.845  -1.214 -10.363  1.00174.56     0.285 C 
ENDBRANCH  29  30
ENDBRANCH  28  29
ENDBRANCH  27  28
ENDBRANCH  26  27
ENDBRANCH   9  26
TORSDOF 9
ENDMDL
