MODEL 1
REMARK VINA RESULT:    -7.708      0.000      0.000
REMARK INTER + INTRA:         -13.420
REMARK INTER:                 -11.763
REMARK INTRA:                  -1.656
REMARK UNBOUND:                -1.656
REMARK  9 active torsions:
REMARK  status: ('A' for Active; 'I' for Inactive)
REMARK    1  A    between atoms: O02_2  and  CAX_24 
REMARK    2  A    between atoms: CAC_3  and  CAM_13 
REMARK    3  A    between atoms: CAC_3  and  NBH_34 
REMARK    4  A    between atoms: CAM_13  and  CAN_14 
REMARK    5  A    between atoms: CAN_14  and  OAW_23 
REMARK    6  A    between atoms: NAU_21  and  CBB_28 
REMARK    7  A    between atoms: NAU_21  and  CBE_31 
REMARK    8  A    between atoms: OAV_22  and  CBC_29 
REMARK    9  A    between atoms: OAW_23  and  CBD_30 
ROOT
HETATM    1  NAD   D T 445       1.426   3.026  11.074  1.00172.85    -0.191 NA
HETATM    2  CAG   D T 445       2.191   3.472  10.504  1.00172.72     0.104 C 
HETATM    3  CAH   D T 445       4.606   3.658   9.613  1.00173.65     0.111 A 
HETATM    4  CAK   D T 445       6.578   5.847   7.317  1.00175.08     0.045 A 
HETATM    5  CAL   D T 445       4.040   7.054   7.186  1.00173.14     0.029 A 
HETATM    6  NAT   D T 445       5.643   4.213   8.868  1.00174.21    -0.243 NA
HETATM    7  CBA   D T 445       3.305   4.151   9.642  1.00172.91     0.105 A 
HETATM    8  CBC   D T 445       5.099   7.587   6.446  1.00173.92     0.116 A 
HETATM    9  CBD   D T 445       6.398   6.994   6.502  1.00174.94     0.118 A 
HETATM   10  CBE   D T 445       3.048   5.278   8.837  1.00172.61     0.094 A 
HETATM   11  CBF   D T 445       5.446   5.319   8.076  1.00174.22     0.085 A 
HETATM   12  CBG   D T 445       4.157   5.883   8.046  1.00173.34     0.038 A 
ENDROOT
BRANCH  10  13
HETATM   13  NAU   D T 445       1.667   5.895   8.837  1.00171.92    -0.244 NA
BRANCH  13  14
HETATM   14  CBB   D T 445       0.734   6.300   7.772  1.00169.02     0.094 A 
HETATM   15  CAJ   D T 445       0.792   7.449   7.018  1.00169.48     0.045 A 
HETATM   16  CAX   D T 445      -0.160   7.764   5.927  1.00166.40     0.106 A 
HETATM   17  CAY   D T 445      -1.150   6.843   5.619  1.00162.90     0.081 A 
HETATM   18 CL1    D T 445      -2.294   7.098   4.347  1.00167.07    -0.080 Cl
HETATM   19  CAI   D T 445      -1.204   5.656   6.363  1.00162.68     0.026 A 
HETATM   20  CAZ   D T 445      -0.299   5.366   7.404  1.00165.75     0.076 A 
HETATM   21 CL2    D T 445      -0.500   3.876   8.221  1.00297.59    -0.081 Cl
BRANCH  16  22
HETATM   22  O02   D T 445      -0.075   8.947   5.210  1.00167.55    -0.327 OA
HETATM   23  C01   D T 445       0.355  10.226   5.756  1.00  7.55     0.181 C 
ENDBRANCH  16  22
ENDBRANCH  13  14
ENDBRANCH  10  13
BRANCH   8  24
HETATM   24  OAV   D T 445       4.760   8.703   5.634  1.00174.06    -0.326 OA
HETATM   25  CAA   D T 445       3.567   8.692   4.939  1.00171.51     0.181 C 
ENDBRANCH   8  24
BRANCH   9  26
HETATM   26  OAW   D T 445       7.491   7.485   5.612  1.00176.22    -0.329 OA
BRANCH  26  27
HETATM   27  CAN   D T 445       8.342   8.456   6.101  1.00172.41     0.151 C 
BRANCH  27  28
HETATM   28  CAM   D T 445       8.307   9.619   5.110  1.00172.95     0.068 C 
BRANCH  28  29
HETATM   29  CAC   D T 445       8.163   9.089   3.681  1.00176.18     0.253 C 
BRANCH  29  30
HETATM   30  NBH   D T 445       7.208   9.964   2.989  1.00176.27     0.141 N 
HETATM   31  CAP   D T 445       6.724  11.056   3.838  1.00179.63     0.285 C 
HETATM   32  CAR   D T 445       5.694  11.928   3.145  1.00181.97     0.285 C 
HETATM   33  NBI   D T 445       4.614  11.154   2.589  1.00180.77     0.143 N 
HETATM   34  CAO   D T 445       3.664  12.009   1.873  1.00184.53     0.285 C 
HETATM   35  CAS   D T 445       5.150  10.114   1.759  1.00176.33     0.285 C 
HETATM   36  CAQ   D T 445       6.123   9.198   2.466  1.00174.56     0.285 C 
ENDBRANCH  29  30
ENDBRANCH  28  29
ENDBRANCH  27  28
ENDBRANCH  26  27
ENDBRANCH   9  26
TORSDOF 9
ENDMDL
MODEL 2
REMARK VINA RESULT:    -7.416      2.646      5.514
REMARK INTER + INTRA:         -12.975
REMARK INTER:                 -11.860
REMARK INTRA:                  -1.114
REMARK UNBOUND:                -1.656
REMARK  9 active torsions:
REMARK  status: ('A' for Active; 'I' for Inactive)
REMARK    1  A    between atoms: O02_2  and  CAX_24 
REMARK    2  A    between atoms: CAC_3  and  CAM_13 
REMARK    3  A    between atoms: CAC_3  and  NBH_34 
REMARK    4  A    between atoms: CAM_13  and  CAN_14 
REMARK    5  A    between atoms: CAN_14  and  OAW_23 
REMARK    6  A    between atoms: NAU_21  and  CBB_28 
REMARK    7  A    between atoms: NAU_21  and  CBE_31 
REMARK    8  A    between atoms: OAV_22  and  CBC_29 
REMARK    9  A    between atoms: OAW_23  and  CBD_30 
ROOT
HETATM    1  NAD   D T 445      -1.508   4.132   8.493  1.00172.85    -0.191 NA
HETATM    2  CAG   D T 445      -1.009   4.863   7.923  1.00172.72     0.104 C 
HETATM    3  CAH   D T 445      -0.742   6.435   5.894  1.00173.65     0.111 A 
HETATM    4  CAK   D T 445       1.669   8.996   4.638  1.00175.08     0.045 A 
HETATM    5  CAL   D T 445       2.899   8.212   7.045  1.00173.14     0.029 A 
HETATM    6  NAT   D T 445      -0.117   7.404   5.115  1.00174.21    -0.243 NA
HETATM    7  CBA   D T 445      -0.247   5.955   7.102  1.00172.91     0.105 A 
HETATM    8  CBC   D T 445       3.503   9.186   6.244  1.00173.92     0.116 A 
HETATM    9  CBD   D T 445       2.899   9.595   5.015  1.00174.94     0.118 A 
HETATM   10  CBE   D T 445       0.961   6.522   7.550  1.00172.61     0.094 A 
HETATM   11  CBF   D T 445       1.070   7.980   5.502  1.00174.22     0.085 A 
HETATM   12  CBG   D T 445       1.642   7.553   6.715  1.00173.34     0.038 A 
ENDROOT
BRANCH  10  13
HETATM   13  NAU   D T 445       1.584   6.032   8.839  1.00171.92    -0.244 NA
BRANCH  13  14
HETATM   14  CBB   D T 445       2.839   5.331   9.159  1.00169.02     0.094 A 
HETATM   15  CAJ   D T 445       4.104   5.671   8.739  1.00169.48     0.045 A 
HETATM   16  CAX   D T 445       5.328   4.940   9.144  1.00166.40     0.106 A 
HETATM   17  CAY   D T 445       5.208   3.872  10.021  1.00162.90     0.081 A 
HETATM   18 CL1    D T 445       6.573   2.971  10.582  1.00167.07    -0.080 Cl
HETATM   19  CAI   D T 445       3.927   3.532  10.478  1.00162.68     0.026 A 
HETATM   20  CAZ   D T 445       2.766   4.228  10.082  1.00165.75     0.076 A 
HETATM   21 CL2    D T 445       1.275   3.686  10.723  1.00297.59    -0.081 Cl
BRANCH  16  22
HETATM   22  O02   D T 445       6.580   5.307   8.675  1.00167.55    -0.327 OA
HETATM   23  C01   D T 445       7.126   4.940   7.377  1.00  7.55     0.181 C 
ENDBRANCH  16  22
ENDBRANCH  13  14
ENDBRANCH  10  13
BRANCH   8  24
HETATM   24  OAV   D T 445       4.702   9.736   6.772  1.00174.06    -0.326 OA
HETATM   25  CAA   D T 445       5.819   8.933   6.884  1.00171.51     0.181 C 
ENDBRANCH   8  24
BRANCH   9  26
HETATM   26  OAW   D T 445       3.476  10.726   4.230  1.00176.22    -0.329 OA
BRANCH  26  27
HETATM   27  CAN   D T 445       4.627  10.494   3.505  1.00172.41     0.151 C 
BRANCH  27  28
HETATM   28  CAM   D T 445       4.194  10.126   2.086  1.00172.95     0.068 C 
BRANCH  28  29
HETATM   29  CAC   D T 445       2.901  10.861   1.723  1.00176.18     0.253 C 
BRANCH  29  30
HETATM   30  NBH   D T 445       3.036  11.315   0.333  1.00176.27     0.141 N 
HETATM   31  CAP   D T 445       4.025  12.386   0.182  1.00179.63     0.285 C 
HETATM   32  CAR   D T 445       4.126  12.897  -1.242  1.00181.97     0.285 C 
HETATM   33  NBI   D T 445       2.841  13.266  -1.779  1.00180.77     0.143 N 
HETATM   34  CAO   D T 445       2.954  13.698  -3.174  1.00184.53     0.285 C 
HETATM   35  CAS   D T 445       1.924  12.175  -1.614  1.00176.33     0.285 C 
HETATM   36  CAQ   D T 445       1.766  11.710  -0.185  1.00174.56     0.285 C 
ENDBRANCH  29  30
ENDBRANCH  28  29
ENDBRANCH  27  28
ENDBRANCH  26  27
ENDBRANCH   9  26
TORSDOF 9
ENDMDL
MODEL 3
REMARK VINA RESULT:    -7.415      3.929      7.544
REMARK INTER + INTRA:         -12.972
REMARK INTER:                 -11.624
REMARK INTRA:                  -1.348
REMARK UNBOUND:                -1.656
REMARK  9 active torsions:
REMARK  status: ('A' for Active; 'I' for Inactive)
REMARK    1  A    between atoms: O02_2  and  CAX_24 
REMARK    2  A    between atoms: CAC_3  and  CAM_13 
REMARK    3  A    between atoms: CAC_3  and  NBH_34 
REMARK    4  A    between atoms: CAM_13  and  CAN_14 
REMARK    5  A    between atoms: CAN_14  and  OAW_23 
REMARK    6  A    between atoms: NAU_21  and  CBB_28 
REMARK    7  A    between atoms: NAU_21  and  CBE_31 
REMARK    8  A    between atoms: OAV_22  and  CBC_29 
REMARK    9  A    between atoms: OAW_23  and  CBD_30 
ROOT
HETATM    1  NAD   D T 445       5.147   9.242   4.454  1.00172.85    -0.191 NA
HETATM    2  CAG   D T 445       5.265   8.449   5.137  1.00172.72     0.104 C 
HETATM    3  CAH   D T 445       6.565   6.505   6.228  1.00173.65     0.111 A 
HETATM    4  CAK   D T 445       6.078   3.993   8.948  1.00175.08     0.045 A 
HETATM    5  CAL   D T 445       3.641   5.397   9.050  1.00173.14     0.029 A 
HETATM    6  NAT   D T 445       6.762   5.454   7.120  1.00174.21    -0.243 NA
HETATM    7  CBA   D T 445       5.412   7.282   6.168  1.00172.91     0.105 A 
HETATM    8  CBC   D T 445       3.868   4.339   9.935  1.00173.92     0.116 A 
HETATM    9  CBD   D T 445       5.095   3.609   9.898  1.00174.94     0.118 A 
HETATM   10  CBE   D T 445       4.403   6.970   7.098  1.00172.61     0.094 A 
HETATM   11  CBF   D T 445       5.802   5.104   8.039  1.00174.22     0.085 A 
HETATM   12  CBG   D T 445       4.603   5.839   8.048  1.00173.34     0.038 A 
ENDROOT
BRANCH  10  13
HETATM   13  NAU   D T 445       3.104   7.747   7.077  1.00171.92    -0.244 NA
BRANCH  13  14
HETATM   14  CBB   D T 445       1.756   7.460   6.556  1.00169.02     0.094 A 
HETATM   15  CAJ   D T 445       0.951   6.396   6.892  1.00169.48     0.045 A 
HETATM   16  CAX   D T 445      -0.417   6.202   6.358  1.00166.40     0.106 A 
HETATM   17  CAY   D T 445      -0.938   7.154   5.495  1.00162.90     0.081 A 
HETATM   18 CL1    D T 445      -2.534   7.040   4.837  1.00167.07    -0.080 Cl
HETATM   19  CAI   D T 445      -0.137   8.257   5.165  1.00162.68     0.026 A 
HETATM   20  CAZ   D T 445       1.166   8.431   5.672  1.00165.75     0.076 A 
HETATM   21 CL2    D T 445       2.018   9.828   5.169  1.00297.59    -0.081 Cl
BRANCH  16  22
HETATM   22  O02   D T 445      -1.182   5.100   6.709  1.00167.55    -0.327 OA
HETATM   23  C01   D T 445      -1.178   4.463   8.018  1.00  7.55     0.181 C 
ENDBRANCH  16  22
ENDBRANCH  13  14
ENDBRANCH  10  13
BRANCH   8  24
HETATM   24  OAV   D T 445       2.820   4.102  10.865  1.00174.06    -0.326 OA
HETATM   25  CAA   D T 445       1.730   3.352  10.474  1.00171.51     0.181 C 
ENDBRANCH   8  24
BRANCH   9  26
HETATM   26  OAW   D T 445       5.387   2.568  10.928  1.00176.22    -0.329 OA
BRANCH  26  27
HETATM   27  CAN   D T 445       6.416   2.803  11.817  1.00172.41     0.151 C 
BRANCH  27  28
HETATM   28  CAM   D T 445       5.894   3.805  12.847  1.00172.95     0.068 C 
BRANCH  28  29
HETATM   29  CAC   D T 445       6.914   3.979  13.976  1.00176.18     0.253 C 
BRANCH  29  30
HETATM   30  NBH   D T 445       7.587   5.266  13.757  1.00176.27     0.141 N 
HETATM   31  CAP   D T 445       8.886   5.119  13.094  1.00179.63     0.285 C 
HETATM   32  CAR   D T 445       9.609   6.441  12.918  1.00181.97     0.285 C 
HETATM   33  NBI   D T 445       9.711   7.172  14.155  1.00180.77     0.143 N 
HETATM   34  CAO   D T 445      10.358   8.471  13.949  1.00184.53     0.285 C 
HETATM   35  CAS   D T 445       8.410   7.294  14.745  1.00176.33     0.285 C 
HETATM   36  CAQ   D T 445       7.715   5.975  14.989  1.00174.56     0.285 C 
ENDBRANCH  29  30
ENDBRANCH  28  29
ENDBRANCH  27  28
ENDBRANCH  26  27
ENDBRANCH   9  26
TORSDOF 9
ENDMDL
MODEL 4
REMARK VINA RESULT:    -7.406      2.900      4.493
REMARK INTER + INTRA:         -12.960
REMARK INTER:                 -11.732
REMARK INTRA:                  -1.227
REMARK UNBOUND:                -1.656
REMARK  9 active torsions:
REMARK  status: ('A' for Active; 'I' for Inactive)
REMARK    1  A    between atoms: O02_2  and  CAX_24 
REMARK    2  A    between atoms: CAC_3  and  CAM_13 
REMARK    3  A    between atoms: CAC_3  and  NBH_34 
REMARK    4  A    between atoms: CAM_13  and  CAN_14 
REMARK    5  A    between atoms: CAN_14  and  OAW_23 
REMARK    6  A    between atoms: NAU_21  and  CBB_28 
REMARK    7  A    between atoms: NAU_21  and  CBE_31 
REMARK    8  A    between atoms: OAV_22  and  CBC_29 
REMARK    9  A    between atoms: OAW_23  and  CBD_30 
ROOT
HETATM    1  NAD   D T 445       1.181   2.940  10.805  1.00172.85    -0.191 NA
HETATM    2  CAG   D T 445       2.019   3.378  10.342  1.00172.72     0.104 C 
HETATM    3  CAH   D T 445       4.506   3.466   9.660  1.00173.65     0.111 A 
HETATM    4  CAK   D T 445       6.803   5.703   7.745  1.00175.08     0.045 A 
HETATM    5  CAL   D T 445       4.370   7.101   7.537  1.00173.14     0.029 A 
HETATM    6  NAT   D T 445       5.636   4.008   9.054  1.00174.21    -0.243 NA
HETATM    7  CBA   D T 445       3.243   4.049   9.637  1.00172.91     0.105 A 
HETATM    8  CBC   D T 445       5.520   7.620   6.935  1.00173.92     0.116 A 
HETATM    9  CBD   D T 445       6.768   6.930   7.033  1.00174.94     0.118 A 
HETATM   10  CBE   D T 445       3.129   5.260   8.928  1.00172.61     0.094 A 
HETATM   11  CBF   D T 445       5.579   5.193   8.361  1.00174.22     0.085 A 
HETATM   12  CBG   D T 445       4.337   5.851   8.286  1.00173.34     0.038 A 
ENDROOT
BRANCH  10  13
HETATM   13  NAU   D T 445       1.796   5.974   8.882  1.00171.92    -0.244 NA
BRANCH  13  14
HETATM   14  CBB   D T 445       0.931   6.444   7.786  1.00169.02     0.094 A 
HETATM   15  CAJ   D T 445       1.123   7.559   7.004  1.00169.48     0.045 A 
HETATM   16  CAX   D T 445       0.230   7.940   5.885  1.00166.40     0.106 A 
HETATM   17  CAY   D T 445      -0.845   7.118   5.579  1.00162.90     0.081 A 
HETATM   18 CL1    D T 445      -1.931   7.453   4.275  1.00167.07    -0.080 Cl
HETATM   19  CAI   D T 445      -1.036   5.964   6.352  1.00162.68     0.026 A 
HETATM   20  CAZ   D T 445      -0.185   5.612   7.420  1.00165.75     0.076 A 
HETATM   21 CL2    D T 445      -0.556   4.174   8.271  1.00297.59    -0.081 Cl
BRANCH  16  22
HETATM   22  O02   D T 445       0.451   9.087   5.139  1.00167.55    -0.327 OA
HETATM   23  C01   D T 445       0.489  10.439   5.677  1.00  7.55     0.181 C 
ENDBRANCH  16  22
ENDBRANCH  13  14
ENDBRANCH  10  13
BRANCH   8  24
HETATM   24  OAV   D T 445       5.324   8.827   6.212  1.00174.06    -0.326 OA
HETATM   25  CAA   D T 445       4.053   9.356   6.117  1.00171.51     0.181 C 
ENDBRANCH   8  24
BRANCH   9  26
HETATM   26  OAW   D T 445       7.961   7.418   6.281  1.00176.22    -0.329 OA
BRANCH  26  27
HETATM   27  CAN   D T 445       9.170   7.473   6.944  1.00172.41     0.151 C 
BRANCH  27  28
HETATM   28  CAM   D T 445       9.020   8.506   8.060  1.00172.95     0.068 C 
BRANCH  28  29
HETATM   29  CAC   D T 445      10.303   8.574   8.892  1.00176.18     0.253 C 
BRANCH  29  30
HETATM   30  NBH   D T 445       9.960   9.218  10.167  1.00176.27     0.141 N 
HETATM   31  CAP   D T 445       9.655   8.250  11.225  1.00179.63     0.285 C 
HETATM   32  CAR   D T 445       9.244   8.912  12.527  1.00181.97     0.285 C 
HETATM   33  NBI   D T 445       8.180   9.864  12.339  1.00180.77     0.143 N 
HETATM   34  CAO   D T 445       7.842  10.534  13.597  1.00184.53     0.285 C 
HETATM   35  CAS   D T 445       8.543  10.789  11.305  1.00176.33     0.285 C 
HETATM   36  CAQ   D T 445       8.883  10.137   9.984  1.00174.56     0.285 C 
ENDBRANCH  29  30
ENDBRANCH  28  29
ENDBRANCH  27  28
ENDBRANCH  26  27
ENDBRANCH   9  26
TORSDOF 9
ENDMDL
MODEL 5
REMARK VINA RESULT:    -7.234      3.367      7.177
REMARK INTER + INTRA:         -12.697
REMARK INTER:                 -11.363
REMARK INTRA:                  -1.334
REMARK UNBOUND:                -1.656
REMARK  9 active torsions:
REMARK  status: ('A' for Active; 'I' for Inactive)
REMARK    1  A    between atoms: O02_2  and  CAX_24 
REMARK    2  A    between atoms: CAC_3  and  CAM_13 
REMARK    3  A    between atoms: CAC_3  and  NBH_34 
REMARK    4  A    between atoms: CAM_13  and  CAN_14 
REMARK    5  A    between atoms: CAN_14  and  OAW_23 
REMARK    6  A    between atoms: NAU_21  and  CBB_28 
REMARK    7  A    between atoms: NAU_21  and  CBE_31 
REMARK    8  A    between atoms: OAV_22  and  CBC_29 
REMARK    9  A    between atoms: OAW_23  and  CBD_30 
ROOT
HETATM    1  NAD   D T 445       4.872   9.722   4.658  1.00172.85    -0.191 NA
HETATM    2  CAG   D T 445       5.009   8.938   5.348  1.00172.72     0.104 C 
HETATM    3  CAH   D T 445       6.401   7.135   6.558  1.00173.65     0.111 A 
HETATM    4  CAK   D T 445       5.930   4.553   9.216  1.00175.08     0.045 A 
HETATM    5  CAL   D T 445       3.356   5.683   9.081  1.00173.14     0.029 A 
HETATM    6  NAT   D T 445       6.624   6.101   7.464  1.00174.21    -0.243 NA
HETATM    7  CBA   D T 445       5.182   7.782   6.387  1.00172.91     0.105 A 
HETATM    8  CBC   D T 445       3.610   4.646   9.983  1.00173.92     0.116 A 
HETATM    9  CBD   D T 445       4.907   4.053  10.065  1.00174.94     0.118 A 
HETATM   10  CBE   D T 445       4.127   7.353   7.214  1.00172.61     0.094 A 
HETATM   11  CBF   D T 445       5.624   5.638   8.285  1.00174.22     0.085 A 
HETATM   12  CBG   D T 445       4.356   6.239   8.177  1.00173.34     0.038 A 
ENDROOT
BRANCH  10  13
HETATM   13  NAU   D T 445       2.760   7.984   7.067  1.00171.92    -0.244 NA
BRANCH  13  14
HETATM   14  CBB   D T 445       1.466   7.499   6.557  1.00169.02     0.094 A 
HETATM   15  CAJ   D T 445       0.713   6.466   7.066  1.00169.48     0.045 A 
HETATM   16  CAX   D T 445      -0.607   6.067   6.524  1.00166.40     0.106 A 
HETATM   17  CAY   D T 445      -1.139   6.788   5.465  1.00162.90     0.081 A 
HETATM   18 CL1    D T 445      -2.684   6.426   4.776  1.00167.07    -0.080 Cl
HETATM   19  CAI   D T 445      -0.394   7.860   4.954  1.00162.68     0.026 A 
HETATM   20  CAZ   D T 445       0.865   8.229   5.471  1.00165.75     0.076 A 
HETATM   21 CL2    D T 445       1.652   9.558   4.734  1.00297.59    -0.081 Cl
BRANCH  16  22
HETATM   22  O02   D T 445      -1.318   5.003   7.057  1.00167.55    -0.327 OA
HETATM   23  C01   D T 445      -0.729   3.878   7.767  1.00  7.55     0.181 C 
ENDBRANCH  16  22
ENDBRANCH  13  14
ENDBRANCH  10  13
BRANCH   8  24
HETATM   24  OAV   D T 445       2.509   4.286  10.806  1.00174.06    -0.326 OA
HETATM   25  CAA   D T 445       1.734   3.199  10.456  1.00171.51     0.181 C 
ENDBRANCH   8  24
BRANCH   9  26
HETATM   26  OAW   D T 445       5.209   3.039  11.117  1.00176.22    -0.329 OA
BRANCH  26  27
HETATM   27  CAN   D T 445       5.205   3.447  12.435  1.00172.41     0.151 C 
BRANCH  27  28
HETATM   28  CAM   D T 445       6.581   4.049  12.719  1.00172.95     0.068 C 
BRANCH  28  29
HETATM   29  CAC   D T 445       7.657   2.962  12.648  1.00176.18     0.253 C 
BRANCH  29  30
HETATM   30  NBH   D T 445       8.513   3.275  11.496  1.00176.27     0.141 N 
HETATM   31  CAP   D T 445       9.789   2.554  11.529  1.00179.63     0.285 C 
HETATM   32  CAR   D T 445      10.700   2.918  10.372  1.00181.97     0.285 C 
HETATM   33  NBI   D T 445      10.884   4.342  10.253  1.00180.77     0.143 N 
HETATM   34  CAO   D T 445      11.716   4.673   9.093  1.00184.53     0.285 C 
HETATM   35  CAS   D T 445       9.603   4.986  10.212  1.00176.33     0.285 C 
HETATM   36  CAQ   D T 445       8.720   4.684  11.400  1.00174.56     0.285 C 
ENDBRANCH  29  30
ENDBRANCH  28  29
ENDBRANCH  27  28
ENDBRANCH  26  27
ENDBRANCH   9  26
TORSDOF 9
ENDMDL
MODEL 6
REMARK VINA RESULT:    -7.167      2.184      3.584
REMARK INTER + INTRA:         -12.595
REMARK INTER:                 -11.419
REMARK INTRA:                  -1.176
REMARK UNBOUND:                -1.656
REMARK  9 active torsions:
REMARK  status: ('A' for Active; 'I' for Inactive)
REMARK    1  A    between atoms: O02_2  and  CAX_24 
REMARK    2  A    between atoms: CAC_3  and  CAM_13 
REMARK    3  A    between atoms: CAC_3  and  NBH_34 
REMARK    4  A    between atoms: CAM_13  and  CAN_14 
REMARK    5  A    between atoms: CAN_14  and  OAW_23 
REMARK    6  A    between atoms: NAU_21  and  CBB_28 
REMARK    7  A    between atoms: NAU_21  and  CBE_31 
REMARK    8  A    between atoms: OAV_22  and  CBC_29 
REMARK    9  A    between atoms: OAW_23  and  CBD_30 
ROOT
HETATM    1  NAD   D T 445       2.673   3.432  11.199  1.00172.85    -0.191 NA
HETATM    2  CAG   D T 445       3.261   3.864  10.439  1.00172.72     0.104 C 
HETATM    3  CAH   D T 445       5.432   4.164   9.077  1.00173.65     0.111 A 
HETATM    4  CAK   D T 445       6.661   6.177   6.181  1.00175.08     0.045 A 
HETATM    5  CAL   D T 445       4.005   7.082   6.396  1.00173.14     0.029 A 
HETATM    6  NAT   D T 445       6.238   4.706   8.080  1.00174.21    -0.243 NA
HETATM    7  CBA   D T 445       4.105   4.519   9.297  1.00172.91     0.105 A 
HETATM    8  CBC   D T 445       4.837   7.606   5.402  1.00173.92     0.116 A 
HETATM    9  CBD   D T 445       6.190   7.166   5.278  1.00174.94     0.118 A 
HETATM   10  CBE   D T 445       3.564   5.479   8.421  1.00172.61     0.094 A 
HETATM   11  CBF   D T 445       5.761   5.655   7.208  1.00174.22     0.085 A 
HETATM   12  CBG   D T 445       4.425   6.072   7.358  1.00173.34     0.038 A 
ENDROOT
BRANCH  10  13
HETATM   13  NAU   D T 445       2.136   5.944   8.613  1.00171.92    -0.244 NA
BRANCH  13  14
HETATM   14  CBB   D T 445       1.041   6.272   7.684  1.00169.02     0.094 A 
HETATM   15  CAJ   D T 445       0.942   7.390   6.888  1.00169.48     0.045 A 
HETATM   16  CAX   D T 445      -0.173   7.627   5.942  1.00166.40     0.106 A 
HETATM   17  CAY   D T 445      -1.161   6.662   5.819  1.00162.90     0.081 A 
HETATM   18 CL1    D T 445      -2.490   6.824   4.724  1.00167.07    -0.080 Cl
HETATM   19  CAI   D T 445      -1.058   5.506   6.606  1.00162.68     0.026 A 
HETATM   20  CAZ   D T 445       0.002   5.290   7.510  1.00165.75     0.076 A 
HETATM   21 CL2    D T 445      -0.017   3.830   8.403  1.00297.59    -0.081 Cl
BRANCH  16  22
HETATM   22  O02   D T 445      -0.241   8.781   5.176  1.00167.55    -0.327 OA
HETATM   23  C01   D T 445       0.335  10.065   5.548  1.00  7.55     0.181 C 
ENDBRANCH  16  22
ENDBRANCH  13  14
ENDBRANCH  10  13
BRANCH   8  24
HETATM   24  OAV   D T 445       4.215   8.547   4.537  1.00174.06    -0.326 OA
HETATM   25  CAA   D T 445       3.981   9.828   4.993  1.00171.51     0.181 C 
ENDBRANCH   8  24
BRANCH   9  26
HETATM   26  OAW   D T 445       7.034   7.629   4.137  1.00176.22    -0.329 OA
BRANCH  26  27
HETATM   27  CAN   D T 445       7.467   8.939   4.137  1.00172.41     0.151 C 
BRANCH  27  28
HETATM   28  CAM   D T 445       8.399   9.099   5.338  1.00172.95     0.068 C 
BRANCH  28  29
HETATM   29  CAC   D T 445       7.987  10.320   6.164  1.00176.18     0.253 C 
BRANCH  29  30
HETATM   30  NBH   D T 445       8.478  10.103   7.532  1.00176.27     0.141 N 
HETATM   31  CAP   D T 445       7.769   9.021   8.221  1.00179.63     0.285 C 
HETATM   32  CAR   D T 445       8.234   8.833   9.653  1.00181.97     0.285 C 
HETATM   33  NBI   D T 445       8.204  10.064  10.400  1.00180.77     0.143 N 
HETATM   34  CAO   D T 445       8.715   9.870  11.760  1.00184.53     0.285 C 
HETATM   35  CAS   D T 445       8.924  11.075   9.682  1.00176.33     0.285 C 
HETATM   36  CAQ   D T 445       8.417  11.318   8.279  1.00174.56     0.285 C 
ENDBRANCH  29  30
ENDBRANCH  28  29
ENDBRANCH  27  28
ENDBRANCH  26  27
ENDBRANCH   9  26
TORSDOF 9
ENDMDL
MODEL 7
REMARK VINA RESULT:    -7.108      3.773      7.485
REMARK INTER + INTRA:         -12.505
REMARK INTER:                 -11.150
REMARK INTRA:                  -1.354
REMARK UNBOUND:                -1.656
REMARK  9 active torsions:
REMARK  status: ('A' for Active; 'I' for Inactive)
REMARK    1  A    between atoms: O02_2  and  CAX_24 
REMARK    2  A    between atoms: CAC_3  and  CAM_13 
REMARK    3  A    between atoms: CAC_3  and  NBH_34 
REMARK    4  A    between atoms: CAM_13  and  CAN_14 
REMARK    5  A    between atoms: CAN_14  and  OAW_23 
REMARK    6  A    between atoms: NAU_21  and  CBB_28 
REMARK    7  A    between atoms: NAU_21  and  CBE_31 
REMARK    8  A    between atoms: OAV_22  and  CBC_29 
REMARK    9  A    between atoms: OAW_23  and  CBD_30 
ROOT
HETATM    1  NAD   D T 445      -1.260   7.517   7.062  1.00172.85    -0.191 NA
HETATM    2  CAG   D T 445      -0.538   6.921   7.544  1.00172.72     0.104 C 
HETATM    3  CAH   D T 445       0.230   4.905   8.961  1.00173.65     0.111 A 
HETATM    4  CAK   D T 445       3.416   3.455  10.265  1.00175.08     0.045 A 
HETATM    5  CAL   D T 445       4.363   5.717   8.884  1.00173.14     0.029 A 
HETATM    6  NAT   D T 445       1.154   4.087   9.605  1.00174.21    -0.243 NA
HETATM    7  CBA   D T 445       0.558   6.051   8.244  1.00172.91     0.105 A 
HETATM    8  CBC   D T 445       5.268   4.876   9.538  1.00173.92     0.116 A 
HETATM    9  CBD   D T 445       4.809   3.725  10.250  1.00174.94     0.118 A 
HETATM   10  CBE   D T 445       1.928   6.368   8.167  1.00172.61     0.094 A 
HETATM   11  CBF   D T 445       2.501   4.360   9.571  1.00174.22     0.085 A 
HETATM   12  CBG   D T 445       2.921   5.502   8.865  1.00173.34     0.038 A 
ENDROOT
BRANCH  10  13
HETATM   13  NAU   D T 445       2.365   7.616   7.433  1.00171.92    -0.244 NA
BRANCH  13  14
HETATM   14  CBB   D T 445       3.222   7.858   6.260  1.00169.02     0.094 A 
HETATM   15  CAJ   D T 445       4.515   7.427   6.080  1.00169.48     0.045 A 
HETATM   16  CAX   D T 445       5.298   7.671   4.846  1.00166.40     0.106 A 
HETATM   17  CAY   D T 445       4.694   8.344   3.794  1.00162.90     0.081 A 
HETATM   18 CL1    D T 445       5.506   8.656   2.299  1.00167.07    -0.080 Cl
HETATM   19  CAI   D T 445       3.367   8.767   3.955  1.00162.68     0.026 A 
HETATM   20  CAZ   D T 445       2.630   8.536   5.135  1.00165.75     0.076 A 
HETATM   21 CL2    D T 445       1.022   9.119   5.178  1.00297.59    -0.081 Cl
BRANCH  16  22
HETATM   22  O02   D T 445       6.608   7.236   4.720  1.00167.55    -0.327 OA
HETATM   23  C01   D T 445       7.783   8.000   5.111  1.00  7.55     0.181 C 
ENDBRANCH  16  22
ENDBRANCH  13  14
ENDBRANCH  10  13
BRANCH   8  24
HETATM   24  OAV   D T 445       6.634   5.239   9.392  1.00174.06    -0.326 OA
HETATM   25  CAA   D T 445       7.073   5.736   8.182  1.00171.51     0.181 C 
ENDBRANCH   8  24
BRANCH   9  26
HETATM   26  OAW   D T 445       5.786   2.760  10.834  1.00176.22    -0.329 OA
BRANCH  26  27
HETATM   27  CAN   D T 445       5.648   2.419  12.165  1.00172.41     0.151 C 
BRANCH  27  28
HETATM   28  CAM   D T 445       5.807   3.707  12.973  1.00172.95     0.068 C 
BRANCH  28  29
HETATM   29  CAC   D T 445       7.259   3.867  13.429  1.00176.18     0.253 C 
BRANCH  29  30
HETATM   30  NBH   D T 445       7.631   5.270  13.207  1.00176.27     0.141 N 
HETATM   31  CAP   D T 445       8.696   5.421  12.210  1.00179.63     0.285 C 
HETATM   32  CAR   D T 445       9.123   6.864  12.021  1.00181.97     0.285 C 
HETATM   33  NBI   D T 445       9.454   7.501  13.270  1.00180.77     0.143 N 
HETATM   34  CAO   D T 445       9.804   8.910  13.069  1.00184.53     0.285 C 
HETATM   35  CAS   D T 445       8.371   7.331  14.194  1.00176.33     0.285 C 
HETATM   36  CAQ   D T 445       7.990   5.890  14.442  1.00174.56     0.285 C 
ENDBRANCH  29  30
ENDBRANCH  28  29
ENDBRANCH  27  28
ENDBRANCH  26  27
ENDBRANCH   9  26
TORSDOF 9
ENDMDL
MODEL 8
REMARK VINA RESULT:    -7.062      2.740      5.105
REMARK INTER + INTRA:         -12.434
REMARK INTER:                 -11.105
REMARK INTRA:                  -1.328
REMARK UNBOUND:                -1.656
REMARK  9 active torsions:
REMARK  status: ('A' for Active; 'I' for Inactive)
REMARK    1  A    between atoms: O02_2  and  CAX_24 
REMARK    2  A    between atoms: CAC_3  and  CAM_13 
REMARK    3  A    between atoms: CAC_3  and  NBH_34 
REMARK    4  A    between atoms: CAM_13  and  CAN_14 
REMARK    5  A    between atoms: CAN_14  and  OAW_23 
REMARK    6  A    between atoms: NAU_21  and  CBB_28 
REMARK    7  A    between atoms: NAU_21  and  CBE_31 
REMARK    8  A    between atoms: OAV_22  and  CBC_29 
REMARK    9  A    between atoms: OAW_23  and  CBD_30 
ROOT
HETATM    1  NAD   D T 445       1.443   2.937  10.802  1.00172.85    -0.191 NA
HETATM    2  CAG   D T 445       2.284   3.384  10.352  1.00172.72     0.104 C 
HETATM    3  CAH   D T 445       4.777   3.491   9.697  1.00173.65     0.111 A 
HETATM    4  CAK   D T 445       7.085   5.761   7.833  1.00175.08     0.045 A 
HETATM    5  CAL   D T 445       4.648   7.152   7.619  1.00173.14     0.029 A 
HETATM    6  NAT   D T 445       5.911   4.045   9.109  1.00174.21    -0.243 NA
HETATM    7  CBA   D T 445       3.513   4.069   9.668  1.00172.91     0.105 A 
HETATM    8  CBC   D T 445       5.802   7.684   7.036  1.00173.92     0.116 A 
HETATM    9  CBD   D T 445       7.051   6.998   7.137  1.00174.94     0.118 A 
HETATM   10  CBE   D T 445       3.401   5.288   8.974  1.00172.61     0.094 A 
HETATM   11  CBF   D T 445       5.856   5.239   8.431  1.00174.22     0.085 A 
HETATM   12  CBG   D T 445       4.613   5.893   8.352  1.00173.34     0.038 A 
ENDROOT
BRANCH  10  13
HETATM   13  NAU   D T 445       2.065   5.998   8.924  1.00171.92    -0.244 NA
BRANCH  13  14
HETATM   14  CBB   D T 445       1.202   6.463   7.825  1.00169.02     0.094 A 
HETATM   15  CAJ   D T 445       1.431   7.533   6.992  1.00169.48     0.045 A 
HETATM   16  CAX   D T 445       0.534   7.911   5.875  1.00166.40     0.106 A 
HETATM   17  CAY   D T 445      -0.586   7.131   5.625  1.00162.90     0.081 A 
HETATM   18 CL1    D T 445      -1.682   7.464   4.330  1.00167.07    -0.080 Cl
HETATM   19  CAI   D T 445      -0.817   6.022   6.451  1.00162.68     0.026 A 
HETATM   20  CAZ   D T 445       0.038   5.673   7.517  1.00165.75     0.076 A 
HETATM   21 CL2    D T 445      -0.385   4.293   8.437  1.00297.59    -0.081 Cl
BRANCH  16  22
HETATM   22  O02   D T 445       0.796   9.013   5.075  1.00167.55    -0.327 OA
HETATM   23  C01   D T 445       0.665  10.400   5.496  1.00  7.55     0.181 C 
ENDBRANCH  16  22
ENDBRANCH  13  14
ENDBRANCH  10  13
BRANCH   8  24
HETATM   24  OAV   D T 445       5.608   8.900   6.326  1.00174.06    -0.326 OA
HETATM   25  CAA   D T 445       4.323   9.358   6.116  1.00171.51     0.181 C 
ENDBRANCH   8  24
BRANCH   9  26
HETATM   26  OAW   D T 445       8.250   7.500   6.404  1.00176.22    -0.329 OA
BRANCH  26  27
HETATM   27  CAN   D T 445       9.422   7.672   7.113  1.00172.41     0.151 C 
BRANCH  27  28
HETATM   28  CAM   D T 445       9.112   8.634   8.259  1.00172.95     0.068 C 
BRANCH  28  29
HETATM   29  CAC   D T 445      10.223   8.576   9.310  1.00176.18     0.253 C 
BRANCH  29  30
HETATM   30  NBH   D T 445      10.137   7.262   9.960  1.00176.27     0.141 N 
HETATM   31  CAP   D T 445       8.892   7.084  10.713  1.00179.63     0.285 C 
HETATM   32  CAR   D T 445       8.825   5.751  11.433  1.00181.97     0.285 C 
HETATM   33  NBI   D T 445       9.989   5.515  12.248  1.00180.77     0.143 N 
HETATM   34  CAO   D T 445       9.931   4.197  12.884  1.00184.53     0.285 C 
HETATM   35  CAS   D T 445      11.171   5.690  11.453  1.00176.33     0.285 C 
HETATM   36  CAQ   D T 445      11.277   7.045  10.792  1.00174.56     0.285 C 
ENDBRANCH  29  30
ENDBRANCH  28  29
ENDBRANCH  27  28
ENDBRANCH  26  27
ENDBRANCH   9  26
TORSDOF 9
ENDMDL
MODEL 9
REMARK VINA RESULT:    -7.001      2.552      4.768
REMARK INTER + INTRA:         -12.341
REMARK INTER:                 -10.819
REMARK INTRA:                  -1.522
REMARK UNBOUND:                -1.656
REMARK  9 active torsions:
REMARK  status: ('A' for Active; 'I' for Inactive)
REMARK    1  A    between atoms: O02_2  and  CAX_24 
REMARK    2  A    between atoms: CAC_3  and  CAM_13 
REMARK    3  A    between atoms: CAC_3  and  NBH_34 
REMARK    4  A    between atoms: CAM_13  and  CAN_14 
REMARK    5  A    between atoms: CAN_14  and  OAW_23 
REMARK    6  A    between atoms: NAU_21  and  CBB_28 
REMARK    7  A    between atoms: NAU_21  and  CBE_31 
REMARK    8  A    between atoms: OAV_22  and  CBC_29 
REMARK    9  A    between atoms: OAW_23  and  CBD_30 
ROOT
HETATM    1  NAD   D T 445      -0.895   8.338   5.156  1.00172.85    -0.191 NA
HETATM    2  CAG   D T 445       0.138   8.358   4.953  1.00172.72     0.104 C 
HETATM    3  CAH   D T 445       2.192   8.630   3.414  1.00173.65     0.111 A 
HETATM    4  CAK   D T 445       5.917   8.542   3.680  1.00175.08     0.045 A 
HETATM    5  CAL   D T 445       5.161   8.035   6.343  1.00173.14     0.029 A 
HETATM    6  NAT   D T 445       3.549   8.672   3.107  1.00174.21    -0.243 NA
HETATM    7  CBA   D T 445       1.679   8.389   4.685  1.00172.91     0.105 A 
HETATM    8  CBC   D T 445       6.516   8.086   6.006  1.00173.92     0.116 A 
HETATM    9  CBD   D T 445       6.923   8.337   4.660  1.00174.94     0.118 A 
HETATM   10  CBE   D T 445       2.623   8.198   5.712  1.00172.61     0.094 A 
HETATM   11  CBF   D T 445       4.510   8.480   4.072  1.00174.22     0.085 A 
HETATM   12  CBG   D T 445       4.077   8.231   5.388  1.00173.34     0.038 A 
ENDROOT
BRANCH  10  13
HETATM   13  NAU   D T 445       2.146   7.899   7.116  1.00171.92    -0.244 NA
BRANCH  13  14
HETATM   14  CBB   D T 445       2.190   6.700   7.971  1.00169.02     0.094 A 
HETATM   15  CAJ   D T 445       3.312   6.099   8.493  1.00169.48     0.045 A 
HETATM   16  CAX   D T 445       3.270   4.917   9.386  1.00166.40     0.106 A 
HETATM   17  CAY   D T 445       2.036   4.399   9.749  1.00162.90     0.081 A 
HETATM   18 CL1    D T 445       1.872   3.042  10.810  1.00167.07    -0.080 Cl
HETATM   19  CAI   D T 445       0.884   5.018   9.245  1.00162.68     0.026 A 
HETATM   20  CAZ   D T 445       0.932   6.138   8.390  1.00165.75     0.076 A 
HETATM   21 CL2    D T 445      -0.564   6.776   7.855  1.00297.59    -0.081 Cl
BRANCH  16  22
HETATM   22  O02   D T 445       4.430   4.332   9.869  1.00167.55    -0.327 OA
HETATM   23  C01   D T 445       5.152   3.249   9.218  1.00  7.55     0.181 C 
ENDBRANCH  16  22
ENDBRANCH  13  14
ENDBRANCH  10  13
BRANCH   8  24
HETATM   24  OAV   D T 445       7.411   7.916   7.097  1.00174.06    -0.326 OA
HETATM   25  CAA   D T 445       7.865   6.649   7.403  1.00171.51     0.181 C 
ENDBRANCH   8  24
BRANCH   9  26
HETATM   26  OAW   D T 445       8.367   8.521   4.328  1.00176.22    -0.329 OA
BRANCH  26  27
HETATM   27  CAN   D T 445       8.874   9.804   4.317  1.00172.41     0.151 C 
BRANCH  27  28
HETATM   28  CAM   D T 445       9.050  10.200   2.851  1.00172.95     0.068 C 
BRANCH  28  29
HETATM   29  CAC   D T 445       8.399  11.561   2.592  1.00176.18     0.253 C 
BRANCH  29  30
HETATM   30  NBH   D T 445       6.966  11.322   2.377  1.00176.27     0.141 N 
HETATM   31  CAP   D T 445       6.635  11.102   0.966  1.00179.63     0.285 C 
HETATM   32  CAR   D T 445       5.148  10.912   0.732  1.00181.97     0.285 C 
HETATM   33  NBI   D T 445       4.368  11.974   1.314  1.00180.77     0.143 N 
HETATM   34  CAO   D T 445       2.933  11.738   1.130  1.00184.53     0.285 C 
HETATM   35  CAS   D T 445       4.726  12.129   2.694  1.00176.33     0.285 C 
HETATM   36  CAQ   D T 445       6.196  12.392   2.926  1.00174.56     0.285 C 
ENDBRANCH  29  30
ENDBRANCH  28  29
ENDBRANCH  27  28
ENDBRANCH  26  27
ENDBRANCH   9  26
TORSDOF 9
ENDMDL
