MODEL 1
REMARK VINA RESULT:    -8.394      0.000      0.000
REMARK INTER + INTRA:         -14.519
REMARK INTER:                 -12.811
REMARK INTRA:                  -1.708
REMARK UNBOUND:                -1.708
REMARK  9 active torsions:
REMARK  status: ('A' for Active; 'I' for Inactive)
REMARK    1  A    between atoms: O02_2  and  CAX_24 
REMARK    2  A    between atoms: CAC_3  and  CAM_13 
REMARK    3  A    between atoms: CAC_3  and  NBH_34 
REMARK    4  A    between atoms: CAM_13  and  CAN_14 
REMARK    5  A    between atoms: CAN_14  and  OAW_23 
REMARK    6  A    between atoms: NAU_21  and  CBB_28 
REMARK    7  A    between atoms: NAU_21  and  CBE_31 
REMARK    8  A    between atoms: OAV_22  and  CBC_29 
REMARK    9  A    between atoms: OAW_23  and  CBD_30 
ROOT
HETATM    1  NAD   D T 445      -1.217  13.507  -0.953  1.00172.85    -0.191 NA
HETATM    2  CAG   D T 445      -0.375  13.300  -0.354  1.00172.72     0.104 C 
HETATM    3  CAH   D T 445       0.794  12.620   1.844  1.00173.65     0.111 A 
HETATM    4  CAK   D T 445       4.264  12.068   3.111  1.00175.08     0.045 A 
HETATM    5  CAL   D T 445       4.760  12.794   0.439  1.00173.14     0.029 A 
HETATM    6  NAT   D T 445       1.881  12.332   2.665  1.00174.21    -0.243 NA
HETATM    7  CBA   D T 445       0.894  12.991   0.507  1.00172.91     0.105 A 
HETATM    8  CBC   D T 445       5.833  12.496   1.285  1.00173.92     0.116 A 
HETATM    9  CBD   D T 445       5.603  12.130   2.647  1.00174.94     0.118 A 
HETATM   10  CBE   D T 445       2.195  13.052  -0.028  1.00172.61     0.094 A 
HETATM   11  CBF   D T 445       3.171  12.388   2.195  1.00174.22     0.085 A 
HETATM   12  CBG   D T 445       3.363  12.756   0.850  1.00173.34     0.038 A 
ENDROOT
BRANCH  10  13
HETATM   13  NAU   D T 445       2.392  13.480  -1.465  1.00171.92    -0.244 NA
BRANCH  13  14
HETATM   14  CBB   D T 445       3.079  14.616  -2.103  1.00169.02     0.094 A 
HETATM   15  CAJ   D T 445       2.792  15.951  -1.939  1.00169.48     0.045 A 
HETATM   16  CAX   D T 445       3.562  17.041  -2.581  1.00166.40     0.106 A 
HETATM   17  CAY   D T 445       4.654  16.711  -3.370  1.00162.90     0.081 A 
HETATM   18 CL1    D T 445       5.639  17.906  -4.142  1.00167.07    -0.080 Cl
HETATM   19  CAI   D T 445       4.974  15.355  -3.525  1.00162.68     0.026 A 
HETATM   20  CAZ   D T 445       4.231  14.322  -2.915  1.00165.75     0.076 A 
HETATM   21 CL2    D T 445       4.745  12.716  -3.205  1.00297.59    -0.081 Cl
BRANCH  16  22
HETATM   22  O02   D T 445       3.220  18.373  -2.404  1.00167.55    -0.327 OA
HETATM   23  C01   D T 445       2.804  18.967  -1.143  1.00  7.55     0.181 C 
ENDBRANCH  16  22
ENDBRANCH  13  14
ENDBRANCH  10  13
BRANCH   8  24
HETATM   24  OAV   D T 445       7.112  12.548   0.670  1.00174.06    -0.326 OA
HETATM   25  CAA   D T 445       7.208  12.390  -0.697  1.00171.51     0.181 C 
ENDBRANCH   8  24
BRANCH   9  26
HETATM   26  OAW   D T 445       6.738  11.687   3.510  1.00176.22    -0.329 OA
BRANCH  26  27
HETATM   27  CAN   D T 445       6.780  10.364   3.903  1.00172.41     0.151 C 
BRANCH  27  28
HETATM   28  CAM   D T 445       7.920   9.705   3.128  1.00172.95     0.068 C 
BRANCH  28  29
HETATM   29  CAC   D T 445       9.183   9.652   3.992  1.00176.18     0.253 C 
BRANCH  29  30
HETATM   30  NBH   D T 445      10.215  10.433   3.299  1.00176.27     0.141 N 
HETATM   31  CAP   D T 445      10.467  11.729   3.936  1.00179.63     0.285 C 
HETATM   32  CAR   D T 445      11.490  12.563   3.190  1.00181.97     0.285 C 
HETATM   33  NBI   D T 445      11.165  12.699   1.793  1.00180.77     0.143 N 
HETATM   34  CAO   D T 445      12.199  13.455   1.081  1.00184.53     0.285 C 
HETATM   35  CAS   D T 445      10.946  11.400   1.226  1.00176.33     0.285 C 
HETATM   36  CAQ   D T 445       9.875  10.593   1.922  1.00174.56     0.285 C 
ENDBRANCH  29  30
ENDBRANCH  28  29
ENDBRANCH  27  28
ENDBRANCH  26  27
ENDBRANCH   9  26
TORSDOF 9
ENDMDL
MODEL 2
REMARK VINA RESULT:    -8.272      1.553      2.177
REMARK INTER + INTRA:         -14.331
REMARK INTER:                 -12.833
REMARK INTRA:                  -1.498
REMARK UNBOUND:                -1.708
REMARK  9 active torsions:
REMARK  status: ('A' for Active; 'I' for Inactive)
REMARK    1  A    between atoms: O02_2  and  CAX_24 
REMARK    2  A    between atoms: CAC_3  and  CAM_13 
REMARK    3  A    between atoms: CAC_3  and  NBH_34 
REMARK    4  A    between atoms: CAM_13  and  CAN_14 
REMARK    5  A    between atoms: CAN_14  and  OAW_23 
REMARK    6  A    between atoms: NAU_21  and  CBB_28 
REMARK    7  A    between atoms: NAU_21  and  CBE_31 
REMARK    8  A    between atoms: OAV_22  and  CBC_29 
REMARK    9  A    between atoms: OAW_23  and  CBD_30 
ROOT
HETATM    1  NAD   D T 445      -1.029  13.428  -0.901  1.00172.85    -0.191 NA
HETATM    2  CAG   D T 445      -0.187  13.212  -0.306  1.00172.72     0.104 C 
HETATM    3  CAH   D T 445       0.985  12.523   1.888  1.00173.65     0.111 A 
HETATM    4  CAK   D T 445       4.454  11.933   3.140  1.00175.08     0.045 A 
HETATM    5  CAL   D T 445       4.946  12.648   0.464  1.00173.14     0.029 A 
HETATM    6  NAT   D T 445       2.072  12.224   2.705  1.00174.21    -0.243 NA
HETATM    7  CBA   D T 445       1.083  12.890   0.550  1.00172.91     0.105 A 
HETATM    8  CBC   D T 445       6.019  12.339   1.306  1.00173.92     0.116 A 
HETATM    9  CBD   D T 445       5.792  11.978   2.669  1.00174.94     0.118 A 
HETATM   10  CBE   D T 445       2.382  12.935   0.009  1.00172.61     0.094 A 
HETATM   11  CBF   D T 445       3.360  12.264   2.228  1.00174.22     0.085 A 
HETATM   12  CBG   D T 445       3.551  12.627   0.882  1.00173.34     0.038 A 
ENDROOT
BRANCH  10  13
HETATM   13  NAU   D T 445       2.577  13.357  -1.430  1.00171.92    -0.244 NA
BRANCH  13  14
HETATM   14  CBB   D T 445       3.172  14.543  -2.070  1.00169.02     0.094 A 
HETATM   15  CAJ   D T 445       2.784  15.852  -1.906  1.00169.48     0.045 A 
HETATM   16  CAX   D T 445       3.465  16.998  -2.550  1.00166.40     0.106 A 
HETATM   17  CAY   D T 445       4.578  16.754  -3.342  1.00162.90     0.081 A 
HETATM   18 CL1    D T 445       5.465  18.021  -4.116  1.00167.07    -0.080 Cl
HETATM   19  CAI   D T 445       5.000  15.426  -3.497  1.00162.68     0.026 A 
HETATM   20  CAZ   D T 445       4.342  14.339  -2.885  1.00165.75     0.076 A 
HETATM   21 CL2    D T 445       4.978  12.777  -3.176  1.00297.59    -0.081 Cl
BRANCH  16  22
HETATM   22  O02   D T 445       3.022  18.300  -2.372  1.00167.55    -0.327 OA
HETATM   23  C01   D T 445       2.251  19.059  -3.345  1.00  7.55     0.181 C 
ENDBRANCH  16  22
ENDBRANCH  13  14
ENDBRANCH  10  13
BRANCH   8  24
HETATM   24  OAV   D T 445       7.295  12.374   0.685  1.00174.06    -0.326 OA
HETATM   25  CAA   D T 445       8.139  13.437   0.939  1.00171.51     0.181 C 
ENDBRANCH   8  24
BRANCH   9  26
HETATM   26  OAW   D T 445       6.925  11.524   3.528  1.00176.22    -0.329 OA
BRANCH  26  27
HETATM   27  CAN   D T 445       7.345  10.214   3.414  1.00172.41     0.151 C 
BRANCH  27  28
HETATM   28  CAM   D T 445       8.862  10.246   3.234  1.00172.95     0.068 C 
BRANCH  28  29
HETATM   29  CAC   D T 445       9.466  11.386   4.058  1.00176.18     0.253 C 
BRANCH  29  30
HETATM   30  NBH   D T 445      10.670  10.858   4.711  1.00176.27     0.141 N 
HETATM   31  CAP   D T 445      11.530  10.109   3.791  1.00179.63     0.285 C 
HETATM   32  CAR   D T 445      12.745   9.512   4.475  1.00181.97     0.285 C 
HETATM   33  NBI   D T 445      12.389   8.738   5.636  1.00180.77     0.143 N 
HETATM   34  CAO   D T 445      13.581   8.224   6.315  1.00184.53     0.285 C 
HETATM   35  CAS   D T 445      11.562   9.529   6.501  1.00176.33     0.285 C 
HETATM   36  CAQ   D T 445      10.312  10.065   5.843  1.00174.56     0.285 C 
ENDBRANCH  29  30
ENDBRANCH  28  29
ENDBRANCH  27  28
ENDBRANCH  26  27
ENDBRANCH   9  26
TORSDOF 9
ENDMDL
MODEL 3
REMARK VINA RESULT:    -8.200      3.909      8.173
REMARK INTER + INTRA:         -14.222
REMARK INTER:                 -13.044
REMARK INTRA:                  -1.178
REMARK UNBOUND:                -1.708
REMARK  9 active torsions:
REMARK  status: ('A' for Active; 'I' for Inactive)
REMARK    1  A    between atoms: O02_2  and  CAX_24 
REMARK    2  A    between atoms: CAC_3  and  CAM_13 
REMARK    3  A    between atoms: CAC_3  and  NBH_34 
REMARK    4  A    between atoms: CAM_13  and  CAN_14 
REMARK    5  A    between atoms: CAN_14  and  OAW_23 
REMARK    6  A    between atoms: NAU_21  and  CBB_28 
REMARK    7  A    between atoms: NAU_21  and  CBE_31 
REMARK    8  A    between atoms: OAV_22  and  CBC_29 
REMARK    9  A    between atoms: OAW_23  and  CBD_30 
ROOT
HETATM    1  NAD   D T 445       1.929  10.409   2.764  1.00172.85    -0.191 NA
HETATM    2  CAG   D T 445       2.276  11.070   2.021  1.00172.72     0.104 C 
HETATM    3  CAH   D T 445       2.159  12.244  -0.274  1.00173.65     0.111 A 
HETATM    4  CAK   D T 445       4.090  14.782  -2.220  1.00175.08     0.045 A 
HETATM    5  CAL   D T 445       5.609  14.623   0.143  1.00173.14     0.029 A 
HETATM    6  NAT   D T 445       2.581  13.113  -1.276  1.00174.21    -0.243 NA
HETATM    7  CBA   D T 445       2.813  12.067   0.941  1.00172.91     0.105 A 
HETATM    8  CBC   D T 445       6.008  15.490  -0.879  1.00173.92     0.116 A 
HETATM    9  CBD   D T 445       5.254  15.582  -2.089  1.00174.94     0.118 A 
HETATM   10  CBE   D T 445       3.966  12.847   1.149  1.00172.61     0.094 A 
HETATM   11  CBF   D T 445       3.707  13.888  -1.128  1.00174.22     0.085 A 
HETATM   12  CBG   D T 445       4.430  13.771   0.074  1.00173.34     0.038 A 
ENDROOT
BRANCH  10  13
HETATM   13  NAU   D T 445       4.753  12.689   2.430  1.00171.92    -0.244 NA
BRANCH  13  14
HETATM   14  CBB   D T 445       6.073  12.118   2.750  1.00169.02     0.094 A 
HETATM   15  CAJ   D T 445       7.297  12.580   2.324  1.00169.48     0.045 A 
HETATM   16  CAX   D T 445       8.588  11.977   2.729  1.00166.40     0.106 A 
HETATM   17  CAY   D T 445       8.577  10.905   3.609  1.00162.90     0.081 A 
HETATM   18 CL1    D T 445      10.027  10.146   4.168  1.00167.07    -0.080 Cl
HETATM   19  CAI   D T 445       7.337  10.440   4.071  1.00162.68     0.026 A 
HETATM   20  CAZ   D T 445       6.112  11.015   3.676  1.00165.75     0.076 A 
HETATM   21 CL2    D T 445       4.684  10.331   4.324  1.00297.59    -0.081 Cl
BRANCH  16  22
HETATM   22  O02   D T 445       9.796  12.464   2.255  1.00167.55    -0.327 OA
HETATM   23  C01   D T 445       9.955  13.283   1.063  1.00  7.55     0.181 C 
ENDBRANCH  16  22
ENDBRANCH  13  14
ENDBRANCH  10  13
BRANCH   8  24
HETATM   24  OAV   D T 445       7.161  16.266  -0.588  1.00174.06    -0.326 OA
HETATM   25  CAA   D T 445       8.392  15.844  -1.047  1.00171.51     0.181 C 
ENDBRANCH   8  24
BRANCH   9  26
HETATM   26  OAW   D T 445       5.607  16.600  -3.122  1.00176.22    -0.329 OA
BRANCH  26  27
HETATM   27  CAN   D T 445       4.580  17.260  -3.765  1.00172.41     0.151 C 
BRANCH  27  28
HETATM   28  CAM   D T 445       5.033  17.495  -5.205  1.00172.95     0.068 C 
BRANCH  28  29
HETATM   29  CAC   D T 445       5.191  16.158  -5.933  1.00176.18     0.253 C 
BRANCH  29  30
HETATM   30  NBH   D T 445       6.391  16.260  -6.773  1.00176.27     0.141 N 
HETATM   31  CAP   D T 445       7.547  15.570  -6.194  1.00179.63     0.285 C 
HETATM   32  CAR   D T 445       8.803  15.722  -7.031  1.00181.97     0.285 C 
HETATM   33  NBI   D T 445       9.089  17.101  -7.332  1.00180.77     0.143 N 
HETATM   34  CAO   D T 445      10.270  17.221  -8.192  1.00184.53     0.285 C 
HETATM   35  CAS   D T 445       7.928  17.715  -7.907  1.00176.33     0.285 C 
HETATM   36  CAQ   D T 445       6.691  17.629  -7.044  1.00174.56     0.285 C 
ENDBRANCH  29  30
ENDBRANCH  28  29
ENDBRANCH  27  28
ENDBRANCH  26  27
ENDBRANCH   9  26
TORSDOF 9
ENDMDL
MODEL 4
REMARK VINA RESULT:    -8.185      2.026      2.826
REMARK INTER + INTRA:         -14.200
REMARK INTER:                 -12.981
REMARK INTRA:                  -1.219
REMARK UNBOUND:                -1.708
REMARK  9 active torsions:
REMARK  status: ('A' for Active; 'I' for Inactive)
REMARK    1  A    between atoms: O02_2  and  CAX_24 
REMARK    2  A    between atoms: CAC_3  and  CAM_13 
REMARK    3  A    between atoms: CAC_3  and  NBH_34 
REMARK    4  A    between atoms: CAM_13  and  CAN_14 
REMARK    5  A    between atoms: CAN_14  and  OAW_23 
REMARK    6  A    between atoms: NAU_21  and  CBB_28 
REMARK    7  A    between atoms: NAU_21  and  CBE_31 
REMARK    8  A    between atoms: OAV_22  and  CBC_29 
REMARK    9  A    between atoms: OAW_23  and  CBD_30 
ROOT
HETATM    1  NAD   D T 445      -0.844  13.539  -1.162  1.00172.85    -0.191 NA
HETATM    2  CAG   D T 445      -0.000  13.328  -0.568  1.00172.72     0.104 C 
HETATM    3  CAH   D T 445       1.179  12.665   1.630  1.00173.65     0.111 A 
HETATM    4  CAK   D T 445       4.651  12.074   2.874  1.00175.08     0.045 A 
HETATM    5  CAL   D T 445       5.134  12.747   0.185  1.00173.14     0.029 A 
HETATM    6  NAT   D T 445       2.268  12.371   2.445  1.00174.21    -0.243 NA
HETATM    7  CBA   D T 445       1.272  13.012   0.286  1.00172.91     0.105 A 
HETATM    8  CBC   D T 445       6.209  12.445   1.026  1.00173.92     0.116 A 
HETATM    9  CBD   D T 445       5.987  12.105   2.396  1.00174.94     0.118 A 
HETATM   10  CBE   D T 445       2.569  13.042  -0.262  1.00172.61     0.094 A 
HETATM   11  CBF   D T 445       3.554  12.398   1.962  1.00174.22     0.085 A 
HETATM   12  CBG   D T 445       3.740  12.739   0.609  1.00173.34     0.038 A 
ENDROOT
BRANCH  10  13
HETATM   13  NAU   D T 445       2.759  13.442  -1.708  1.00171.92    -0.244 NA
BRANCH  13  14
HETATM   14  CBB   D T 445       3.664  14.381  -2.393  1.00169.02     0.094 A 
HETATM   15  CAJ   D T 445       4.716  14.059  -3.217  1.00169.48     0.045 A 
HETATM   16  CAX   D T 445       5.554  15.065  -3.910  1.00166.40     0.106 A 
HETATM   17  CAY   D T 445       5.252  16.409  -3.750  1.00162.90     0.081 A 
HETATM   18 CL1    D T 445       6.147  17.664  -4.536  1.00167.07    -0.080 Cl
HETATM   19  CAI   D T 445       4.165  16.750  -2.933  1.00162.68     0.026 A 
HETATM   20  CAZ   D T 445       3.376  15.787  -2.271  1.00165.75     0.076 A 
HETATM   21 CL2    D T 445       2.087  16.364  -1.305  1.00297.59    -0.081 Cl
BRANCH  16  22
HETATM   22  O02   D T 445       6.621  14.691  -4.714  1.00167.55    -0.327 OA
HETATM   23  C01   D T 445       7.934  14.300  -4.229  1.00  7.55     0.181 C 
ENDBRANCH  16  22
ENDBRANCH  13  14
ENDBRANCH  10  13
BRANCH   8  24
HETATM   24  OAV   D T 445       7.483  12.464   0.398  1.00174.06    -0.326 OA
HETATM   25  CAA   D T 445       8.355  13.497   0.676  1.00171.51     0.181 C 
ENDBRANCH   8  24
BRANCH   9  26
HETATM   26  OAW   D T 445       7.122  11.657   3.255  1.00176.22    -0.329 OA
BRANCH  26  27
HETATM   27  CAN   D T 445       6.938  10.543   4.049  1.00172.41     0.151 C 
BRANCH  27  28
HETATM   28  CAM   D T 445       8.316  10.132   4.567  1.00172.95     0.068 C 
BRANCH  28  29
HETATM   29  CAC   D T 445       9.381  11.108   4.061  1.00176.18     0.253 C 
BRANCH  29  30
HETATM   30  NBH   D T 445      10.680  10.618   4.539  1.00176.27     0.141 N 
HETATM   31  CAP   D T 445      11.588  10.265   3.445  1.00179.63     0.285 C 
HETATM   32  CAR   D T 445      12.910   9.704   3.935  1.00181.97     0.285 C 
HETATM   33  NBI   D T 445      12.727   8.616   4.861  1.00180.77     0.143 N 
HETATM   34  CAO   D T 445      14.013   8.131   5.369  1.00184.53     0.285 C 
HETATM   35  CAS   D T 445      11.842   9.028   5.913  1.00176.33     0.285 C 
HETATM   36  CAQ   D T 445      10.497   9.519   5.432  1.00174.56     0.285 C 
ENDBRANCH  29  30
ENDBRANCH  28  29
ENDBRANCH  27  28
ENDBRANCH  26  27
ENDBRANCH   9  26
TORSDOF 9
ENDMDL
MODEL 5
REMARK VINA RESULT:    -7.756      4.299      7.787
REMARK INTER + INTRA:         -13.544
REMARK INTER:                 -12.388
REMARK INTRA:                  -1.156
REMARK UNBOUND:                -1.708
REMARK  9 active torsions:
REMARK  status: ('A' for Active; 'I' for Inactive)
REMARK    1  A    between atoms: O02_2  and  CAX_24 
REMARK    2  A    between atoms: CAC_3  and  CAM_13 
REMARK    3  A    between atoms: CAC_3  and  NBH_34 
REMARK    4  A    between atoms: CAM_13  and  CAN_14 
REMARK    5  A    between atoms: CAN_14  and  OAW_23 
REMARK    6  A    between atoms: NAU_21  and  CBB_28 
REMARK    7  A    between atoms: NAU_21  and  CBE_31 
REMARK    8  A    between atoms: OAV_22  and  CBC_29 
REMARK    9  A    between atoms: OAW_23  and  CBD_30 
ROOT
HETATM    1  NAD   D T 445       4.335  10.509   3.729  1.00172.85    -0.191 NA
HETATM    2  CAG   D T 445       4.629  11.307   3.108  1.00172.72     0.104 C 
HETATM    3  CAH   D T 445       6.247  13.158   2.322  1.00173.65     0.111 A 
HETATM    4  CAK   D T 445       6.424  15.775  -0.338  1.00175.08     0.045 A 
HETATM    5  CAL   D T 445       3.932  14.591  -0.891  1.00173.14     0.029 A 
HETATM    6  NAT   D T 445       6.674  14.211   1.518  1.00174.21    -0.243 NA
HETATM    7  CBA   D T 445       5.041  12.484   2.162  1.00172.91     0.105 A 
HETATM    8  CBC   D T 445       4.387  15.649  -1.685  1.00173.92     0.116 A 
HETATM    9  CBD   D T 445       5.647  16.267  -1.418  1.00174.94     0.118 A 
HETATM   10  CBE   D T 445       4.227  12.906   1.094  1.00172.61     0.094 A 
HETATM   11  CBF   D T 445       5.912  14.668   0.470  1.00174.22     0.085 A 
HETATM   12  CBG   D T 445       4.674  14.040   0.235  1.00173.34     0.038 A 
ENDROOT
BRANCH  10  13
HETATM   13  NAU   D T 445       2.885  12.246   0.872  1.00171.92    -0.244 NA
BRANCH  13  14
HETATM   14  CBB   D T 445       1.505  12.753   0.780  1.00169.02     0.094 A 
HETATM   15  CAJ   D T 445       0.710  12.783  -0.342  1.00169.48     0.045 A 
HETATM   16  CAX   D T 445      -0.690  13.267  -0.345  1.00166.40     0.106 A 
HETATM   17  CAY   D T 445      -1.252  13.687   0.852  1.00162.90     0.081 A 
HETATM   18 CL1    D T 445      -2.886  14.242   0.967  1.00167.07    -0.080 Cl
HETATM   19  CAI   D T 445      -0.461  13.637   2.009  1.00162.68     0.026 A 
HETATM   20  CAZ   D T 445       0.873  13.181   2.001  1.00165.75     0.076 A 
HETATM   21 CL2    D T 445       1.707  13.186   3.495  1.00297.59    -0.081 Cl
BRANCH  16  22
HETATM   22  O02   D T 445      -1.444  13.300  -1.508  1.00167.55    -0.327 OA
HETATM   23  C01   D T 445      -2.604  12.464  -1.773  1.00  7.55     0.181 C 
ENDBRANCH  16  22
ENDBRANCH  13  14
ENDBRANCH  10  13
BRANCH   8  24
HETATM   24  OAV   D T 445       3.531  16.000  -2.761  1.00174.06    -0.326 OA
HETATM   25  CAA   D T 445       2.729  17.118  -2.648  1.00171.51     0.181 C 
ENDBRANCH   8  24
BRANCH   9  26
HETATM   26  OAW   D T 445       6.189  17.305  -2.344  1.00176.22    -0.329 OA
BRANCH  26  27
HETATM   27  CAN   D T 445       6.751  16.889  -3.534  1.00172.41     0.151 C 
BRANCH  27  28
HETATM   28  CAM   D T 445       5.988  17.590  -4.657  1.00172.95     0.068 C 
BRANCH  28  29
HETATM   29  CAC   D T 445       6.952  18.414  -5.514  1.00176.18     0.253 C 
BRANCH  29  30
HETATM   30  NBH   D T 445       8.056  17.527  -5.900  1.00176.27     0.141 N 
HETATM   31  CAP   D T 445       9.357  18.203  -5.879  1.00179.63     0.285 C 
HETATM   32  CAR   D T 445      10.493  17.306  -6.333  1.00181.97     0.285 C 
HETATM   33  NBI   D T 445      10.222  16.691  -7.607  1.00180.77     0.143 N 
HETATM   34  CAO   D T 445      11.303  15.782  -7.996  1.00184.53     0.285 C 
HETATM   35  CAS   D T 445       8.946  16.037  -7.559  1.00176.33     0.285 C 
HETATM   36  CAQ   D T 445       7.799  16.944  -7.177  1.00174.56     0.285 C 
ENDBRANCH  29  30
ENDBRANCH  28  29
ENDBRANCH  27  28
ENDBRANCH  26  27
ENDBRANCH   9  26
TORSDOF 9
ENDMDL
MODEL 6
REMARK VINA RESULT:    -7.729      4.225      7.837
REMARK INTER + INTRA:         -13.503
REMARK INTER:                 -11.827
REMARK INTRA:                  -1.676
REMARK UNBOUND:                -1.708
REMARK  9 active torsions:
REMARK  status: ('A' for Active; 'I' for Inactive)
REMARK    1  A    between atoms: O02_2  and  CAX_24 
REMARK    2  A    between atoms: CAC_3  and  CAM_13 
REMARK    3  A    between atoms: CAC_3  and  NBH_34 
REMARK    4  A    between atoms: CAM_13  and  CAN_14 
REMARK    5  A    between atoms: CAN_14  and  OAW_23 
REMARK    6  A    between atoms: NAU_21  and  CBB_28 
REMARK    7  A    between atoms: NAU_21  and  CBE_31 
REMARK    8  A    between atoms: OAV_22  and  CBC_29 
REMARK    9  A    between atoms: OAW_23  and  CBD_30 
ROOT
HETATM    1  NAD   D T 445       2.206  11.438   1.061  1.00172.85    -0.191 NA
HETATM    2  CAG   D T 445       2.725  12.100   0.427  1.00172.72     0.104 C 
HETATM    3  CAH   D T 445       3.078  13.405  -1.771  1.00173.65     0.111 A 
HETATM    4  CAK   D T 445       5.520  15.830  -3.223  1.00175.08     0.045 A 
HETATM    5  CAL   D T 445       6.633  15.382  -0.678  1.00173.14     0.029 A 
HETATM    6  NAT   D T 445       3.731  14.279  -2.635  1.00174.21    -0.243 NA
HETATM    7  CBA   D T 445       3.516  13.093  -0.488  1.00172.91     0.105 A 
HETATM    8  CBC   D T 445       7.267  16.257  -1.566  1.00173.92     0.116 A 
HETATM    9  CBD   D T 445       6.721  16.495  -2.864  1.00174.94     0.118 A 
HETATM   10  CBE   D T 445       4.692  13.734  -0.057  1.00172.61     0.094 A 
HETATM   11  CBF   D T 445       4.889  14.922  -2.267  1.00174.22     0.085 A 
HETATM   12  CBG   D T 445       5.403  14.663  -0.982  1.00173.34     0.038 A 
ENDROOT
BRANCH  10  13
HETATM   13  NAU   D T 445       5.252  13.424   1.313  1.00171.92    -0.244 NA
BRANCH  13  14
HETATM   14  CBB   D T 445       6.236  12.448   1.812  1.00169.02     0.094 A 
HETATM   15  CAJ   D T 445       7.522  12.267   1.358  1.00169.48     0.045 A 
HETATM   16  CAX   D T 445       8.470  11.293   1.945  1.00166.40     0.106 A 
HETATM   17  CAY   D T 445       8.062  10.536   3.034  1.00162.90     0.081 A 
HETATM   18 CL1    D T 445       9.099   9.392   3.814  1.00167.07    -0.080 Cl
HETATM   19  CAI   D T 445       6.762  10.729   3.523  1.00162.68     0.026 A 
HETATM   20  CAZ   D T 445       5.862  11.654   2.955  1.00165.75     0.076 A 
HETATM   21 CL2    D T 445       4.309  11.769   3.664  1.00297.59    -0.081 Cl
BRANCH  16  22
HETATM   22  O02   D T 445       9.751  11.130   1.438  1.00167.55    -0.327 OA
HETATM   23  C01   D T 445      10.712  12.203   1.240  1.00  7.55     0.181 C 
ENDBRANCH  16  22
ENDBRANCH  13  14
ENDBRANCH  10  13
BRANCH   8  24
HETATM   24  OAV   D T 445       8.429  16.891  -1.053  1.00174.06    -0.326 OA
HETATM   25  CAA   D T 445       9.615  16.186  -1.004  1.00171.51     0.181 C 
ENDBRANCH   8  24
BRANCH   9  26
HETATM   26  OAW   D T 445       7.326  17.526  -3.759  1.00176.22    -0.329 OA
BRANCH  26  27
HETATM   27  CAN   D T 445       6.758  17.725  -5.001  1.00172.41     0.151 C 
BRANCH  27  28
HETATM   28  CAM   D T 445       7.897  17.703  -6.020  1.00172.95     0.068 C 
BRANCH  28  29
HETATM   29  CAC   D T 445       8.311  16.259  -6.315  1.00176.18     0.253 C 
BRANCH  29  30
HETATM   30  NBH   D T 445       9.709  16.114  -5.890  1.00176.27     0.141 N 
HETATM   31  CAP   D T 445      10.603  15.764  -6.998  1.00179.63     0.285 C 
HETATM   32  CAR   D T 445      12.038  15.556  -6.553  1.00181.97     0.285 C 
HETATM   33  NBI   D T 445      12.137  14.623  -5.461  1.00180.77     0.143 N 
HETATM   34  CAO   D T 445      13.524  14.484  -5.007  1.00184.53     0.285 C 
HETATM   35  CAS   D T 445      11.252  15.027  -4.407  1.00176.33     0.285 C 
HETATM   36  CAQ   D T 445       9.808  15.164  -4.829  1.00174.56     0.285 C 
ENDBRANCH  29  30
ENDBRANCH  28  29
ENDBRANCH  27  28
ENDBRANCH  26  27
ENDBRANCH   9  26
TORSDOF 9
ENDMDL
MODEL 7
REMARK VINA RESULT:    -7.437      4.298      8.220
REMARK INTER + INTRA:         -13.057
REMARK INTER:                 -11.646
REMARK INTRA:                  -1.411
REMARK UNBOUND:                -1.708
REMARK  9 active torsions:
REMARK  status: ('A' for Active; 'I' for Inactive)
REMARK    1  A    between atoms: O02_2  and  CAX_24 
REMARK    2  A    between atoms: CAC_3  and  CAM_13 
REMARK    3  A    between atoms: CAC_3  and  NBH_34 
REMARK    4  A    between atoms: CAM_13  and  CAN_14 
REMARK    5  A    between atoms: CAN_14  and  OAW_23 
REMARK    6  A    between atoms: NAU_21  and  CBB_28 
REMARK    7  A    between atoms: NAU_21  and  CBE_31 
REMARK    8  A    between atoms: OAV_22  and  CBC_29 
REMARK    9  A    between atoms: OAW_23  and  CBD_30 
ROOT
HETATM    1  NAD   D T 445       1.013  13.450   0.740  1.00172.85    -0.191 NA
HETATM    2  CAG   D T 445       1.550  14.023   0.038  1.00172.72     0.104 C 
HETATM    3  CAH   D T 445       1.914  16.075  -1.485  1.00173.65     0.111 A 
HETATM    4  CAK   D T 445       4.483  17.367  -3.870  1.00175.08     0.045 A 
HETATM    5  CAL   D T 445       5.653  14.941  -3.058  1.00173.14     0.029 A 
HETATM    6  NAT   D T 445       2.597  16.864  -2.406  1.00174.21    -0.243 NA
HETATM    7  CBA   D T 445       2.376  14.856  -0.999  1.00172.91     0.105 A 
HETATM    8  CBC   D T 445       6.318  15.755  -3.980  1.00173.92     0.116 A 
HETATM    9  CBD   D T 445       5.739  16.989  -4.409  1.00174.94     0.118 A 
HETATM   10  CBE   D T 445       3.629  14.428  -1.474  1.00172.61     0.094 A 
HETATM   11  CBF   D T 445       3.819  16.486  -2.910  1.00174.22     0.085 A 
HETATM   12  CBG   D T 445       4.360  15.264  -2.469  1.00173.34     0.038 A 
ENDROOT
BRANCH  10  13
HETATM   13  NAU   D T 445       4.186  13.098  -1.019  1.00171.92    -0.244 NA
BRANCH  13  14
HETATM   14  CBB   D T 445       4.922  12.660   0.180  1.00169.02     0.094 A 
HETATM   15  CAJ   D T 445       4.384  12.316   1.398  1.00169.48     0.045 A 
HETATM   16  CAX   D T 445       5.189  11.838   2.546  1.00166.40     0.106 A 
HETATM   17  CAY   D T 445       6.559  11.696   2.386  1.00162.90     0.081 A 
HETATM   18 CL1    D T 445       7.588  11.118   3.651  1.00167.07    -0.080 Cl
HETATM   19  CAI   D T 445       7.118  12.018   1.141  1.00162.68     0.026 A 
HETATM   20  CAZ   D T 445       6.345  12.479   0.055  1.00165.75     0.076 A 
HETATM   21 CL2    D T 445       7.176  12.835  -1.398  1.00297.59    -0.081 Cl
BRANCH  16  22
HETATM   22  O02   D T 445       4.602  11.526   3.763  1.00167.55    -0.327 OA
HETATM   23  C01   D T 445       4.247  10.184   4.197  1.00  7.55     0.181 C 
ENDBRANCH  16  22
ENDBRANCH  13  14
ENDBRANCH  10  13
BRANCH   8  24
HETATM   24  OAV   D T 445       7.590  15.277  -4.391  1.00174.06    -0.326 OA
HETATM   25  CAA   D T 445       8.681  15.470  -3.569  1.00171.51     0.181 C 
ENDBRANCH   8  24
BRANCH   9  26
HETATM   26  OAW   D T 445       6.509  17.916  -5.290  1.00176.22    -0.329 OA
BRANCH  26  27
HETATM   27  CAN   D T 445       6.063  18.109  -6.582  1.00172.41     0.151 C 
BRANCH  27  28
HETATM   28  CAM   D T 445       7.013  17.343  -7.501  1.00172.95     0.068 C 
BRANCH  28  29
HETATM   29  CAC   D T 445       8.057  18.294  -8.090  1.00176.18     0.253 C 
BRANCH  29  30
HETATM   30  NBH   D T 445       9.378  17.774  -7.717  1.00176.27     0.141 N 
HETATM   31  CAP   D T 445       9.323  16.397  -7.217  1.00179.63     0.285 C 
HETATM   32  CAR   D T 445      10.677  15.876  -6.776  1.00181.97     0.285 C 
HETATM   33  NBI   D T 445      11.323  16.765  -5.844  1.00180.77     0.143 N 
HETATM   34  CAO   D T 445      12.654  16.274  -5.480  1.00184.53     0.285 C 
HETATM   35  CAS   D T 445      11.359  18.089  -6.396  1.00176.33     0.285 C 
HETATM   36  CAQ   D T 445      10.003  18.641  -6.769  1.00174.56     0.285 C 
ENDBRANCH  29  30
ENDBRANCH  28  29
ENDBRANCH  27  28
ENDBRANCH  26  27
ENDBRANCH   9  26
TORSDOF 9
ENDMDL
MODEL 8
REMARK VINA RESULT:    -7.411      5.539      9.162
REMARK INTER + INTRA:         -13.019
REMARK INTER:                 -11.196
REMARK INTRA:                  -1.823
REMARK UNBOUND:                -1.708
REMARK  9 active torsions:
REMARK  status: ('A' for Active; 'I' for Inactive)
REMARK    1  A    between atoms: O02_2  and  CAX_24 
REMARK    2  A    between atoms: CAC_3  and  CAM_13 
REMARK    3  A    between atoms: CAC_3  and  NBH_34 
REMARK    4  A    between atoms: CAM_13  and  CAN_14 
REMARK    5  A    between atoms: CAN_14  and  OAW_23 
REMARK    6  A    between atoms: NAU_21  and  CBB_28 
REMARK    7  A    between atoms: NAU_21  and  CBE_31 
REMARK    8  A    between atoms: OAV_22  and  CBC_29 
REMARK    9  A    between atoms: OAW_23  and  CBD_30 
ROOT
HETATM    1  NAD   D T 445       2.149  18.983  -2.933  1.00172.85    -0.191 NA
HETATM    2  CAG   D T 445       2.914  18.624  -3.561  1.00172.72     0.104 C 
HETATM    3  CAH   D T 445       4.128  18.373  -5.825  1.00173.65     0.111 A 
HETATM    4  CAK   D T 445       7.178  16.708  -7.195  1.00175.08     0.045 A 
HETATM    5  CAL   D T 445       7.310  15.961  -4.485  1.00173.14     0.029 A 
HETATM    6  NAT   D T 445       5.125  17.924  -6.686  1.00174.21    -0.243 NA
HETATM    7  CBA   D T 445       4.070  18.081  -4.466  1.00172.91     0.105 A 
HETATM    8  CBC   D T 445       8.300  15.526  -5.372  1.00173.92     0.116 A 
HETATM    9  CBD   D T 445       8.250  15.890  -6.752  1.00174.94     0.118 A 
HETATM   10  CBE   D T 445       5.115  17.290  -3.953  1.00172.61     0.094 A 
HETATM   11  CBF   D T 445       6.161  17.140  -6.237  1.00174.22     0.085 A 
HETATM   12  CBG   D T 445       6.180  16.797  -4.872  1.00173.34     0.038 A 
ENDROOT
BRANCH  10  13
HETATM   13  NAU   D T 445       5.108  16.901  -2.492  1.00171.92    -0.244 NA
BRANCH  13  14
HETATM   14  CBB   D T 445       4.556  15.755  -1.748  1.00169.02     0.094 A 
HETATM   15  CAJ   D T 445       3.325  15.169  -1.929  1.00169.48     0.045 A 
HETATM   16  CAX   D T 445       2.859  13.985  -1.170  1.00166.40     0.106 A 
HETATM   17  CAY   D T 445       3.714  13.409  -0.243  1.00162.90     0.081 A 
HETATM   18 CL1    D T 445       3.282  12.008   0.676  1.00167.07    -0.080 Cl
HETATM   19  CAI   D T 445       4.982  13.980  -0.066  1.00162.68     0.026 A 
HETATM   20  CAZ   D T 445       5.416  15.111  -0.788  1.00165.75     0.076 A 
HETATM   21 CL2    D T 445       6.990  15.694  -0.455  1.00297.59    -0.081 Cl
BRANCH  16  22
HETATM   22  O02   D T 445       1.599  13.443  -1.373  1.00167.55    -0.327 OA
HETATM   23  C01   D T 445       0.427  13.730  -0.560  1.00  7.55     0.181 C 
ENDBRANCH  16  22
ENDBRANCH  13  14
ENDBRANCH  10  13
BRANCH   8  24
HETATM   24  OAV   D T 445       9.338  14.761  -4.779  1.00174.06    -0.326 OA
HETATM   25  CAA   D T 445      10.289  15.398  -4.007  1.00171.51     0.181 C 
ENDBRANCH   8  24
BRANCH   9  26
HETATM   26  OAW   D T 445       9.375  15.535  -7.667  1.00176.22    -0.329 OA
BRANCH  26  27
HETATM   27  CAN   D T 445      10.090  16.562  -8.250  1.00172.41     0.151 C 
BRANCH  27  28
HETATM   28  CAM   D T 445      11.024  17.120  -7.178  1.00172.95     0.068 C 
BRANCH  28  29
HETATM   29  CAC   D T 445      11.616  18.454  -7.638  1.00176.18     0.253 C 
BRANCH  29  30
HETATM   30  NBH   D T 445      11.175  19.477  -6.681  1.00176.27     0.141 N 
HETATM   31  CAP   D T 445      10.119  18.995  -5.786  1.00179.63     0.285 C 
HETATM   32  CAR   D T 445       9.620  20.067  -4.836  1.00181.97     0.285 C 
HETATM   33  NBI   D T 445       9.237  21.270  -5.528  1.00180.77     0.143 N 
HETATM   34  CAO   D T 445       8.817  22.311  -4.586  1.00184.53     0.285 C 
HETATM   35  CAS   D T 445      10.314  21.697  -6.374  1.00176.33     0.285 C 
HETATM   36  CAQ   D T 445      10.766  20.657  -7.372  1.00174.56     0.285 C 
ENDBRANCH  29  30
ENDBRANCH  28  29
ENDBRANCH  27  28
ENDBRANCH  26  27
ENDBRANCH   9  26
TORSDOF 9
ENDMDL
MODEL 9
REMARK VINA RESULT:    -7.286      3.699      8.151
REMARK INTER + INTRA:         -12.827
REMARK INTER:                 -11.556
REMARK INTRA:                  -1.271
REMARK UNBOUND:                -1.708
REMARK  9 active torsions:
REMARK  status: ('A' for Active; 'I' for Inactive)
REMARK    1  A    between atoms: O02_2  and  CAX_24 
REMARK    2  A    between atoms: CAC_3  and  CAM_13 
REMARK    3  A    between atoms: CAC_3  and  NBH_34 
REMARK    4  A    between atoms: CAM_13  and  CAN_14 
REMARK    5  A    between atoms: CAN_14  and  OAW_23 
REMARK    6  A    between atoms: NAU_21  and  CBB_28 
REMARK    7  A    between atoms: NAU_21  and  CBE_31 
REMARK    8  A    between atoms: OAV_22  and  CBC_29 
REMARK    9  A    between atoms: OAW_23  and  CBD_30 
ROOT
HETATM    1  NAD   D T 445       7.123  10.345   3.543  1.00172.85    -0.191 NA
HETATM    2  CAG   D T 445       7.327  11.122   2.862  1.00172.72     0.104 C 
HETATM    3  CAH   D T 445       8.812  12.953   1.813  1.00173.65     0.111 A 
HETATM    4  CAK   D T 445       8.620  15.476  -0.935  1.00175.08     0.045 A 
HETATM    5  CAL   D T 445       6.090  14.260  -1.123  1.00173.14     0.029 A 
HETATM    6  NAT   D T 445       9.121  13.980   0.925  1.00174.21    -0.243 NA
HETATM    7  CBA   D T 445       7.602  12.267   1.832  1.00172.91     0.105 A 
HETATM    8  CBC   D T 445       6.429  15.292  -2.004  1.00173.92     0.116 A 
HETATM    9  CBD   D T 445       7.706  15.926  -1.923  1.00174.94     0.118 A 
HETATM   10  CBE   D T 445       6.654  12.647   0.863  1.00172.61     0.094 A 
HETATM   11  CBF   D T 445       8.227  14.396  -0.032  1.00174.22     0.085 A 
HETATM   12  CBG   D T 445       6.975  13.753  -0.083  1.00173.34     0.038 A 
ENDROOT
BRANCH  10  13
HETATM   13  NAU   D T 445       5.301  11.972   0.839  1.00171.92    -0.244 NA
BRANCH  13  14
HETATM   14  CBB   D T 445       3.916  12.467   0.916  1.00169.02     0.094 A 
HETATM   15  CAJ   D T 445       3.279  13.282   0.009  1.00169.48     0.045 A 
HETATM   16  CAX   D T 445       1.863  13.700   0.133  1.00166.40     0.106 A 
HETATM   17  CAY   D T 445       1.119  13.226   1.203  1.00162.90     0.081 A 
HETATM   18 CL1    D T 445      -0.549  13.628   1.427  1.00167.07    -0.080 Cl
HETATM   19  CAI   D T 445       1.749  12.374   2.122  1.00162.68     0.026 A 
HETATM   20  CAZ   D T 445       3.099  11.986   2.000  1.00165.75     0.076 A 
HETATM   21 CL2    D T 445       3.723  10.944   3.206  1.00297.59    -0.081 Cl
BRANCH  16  22
HETATM   22  O02   D T 445       1.271  14.542  -0.797  1.00167.55    -0.327 OA
HETATM   23  C01   D T 445       1.920  15.685  -1.418  1.00  7.55     0.181 C 
ENDBRANCH  16  22
ENDBRANCH  13  14
ENDBRANCH  10  13
BRANCH   8  24
HETATM   24  OAV   D T 445       5.437  15.600  -2.973  1.00174.06    -0.326 OA
HETATM   25  CAA   D T 445       4.662  14.582  -3.490  1.00171.51     0.181 C 
ENDBRANCH   8  24
BRANCH   9  26
HETATM   26  OAW   D T 445       8.114  16.934  -2.945  1.00176.22    -0.329 OA
BRANCH  26  27
HETATM   27  CAN   D T 445       9.234  16.673  -3.709  1.00172.41     0.151 C 
BRANCH  27  28
HETATM   28  CAM   D T 445       9.191  17.625  -4.903  1.00172.95     0.068 C 
BRANCH  28  29
HETATM   29  CAC   D T 445       8.731  16.877  -6.157  1.00176.18     0.253 C 
BRANCH  29  30
HETATM   30  NBH   D T 445       7.408  17.404  -6.515  1.00176.27     0.141 N 
HETATM   31  CAP   D T 445       7.110  18.678  -5.855  1.00179.63     0.285 C 
HETATM   32  CAR   D T 445       5.721  19.196  -6.176  1.00181.97     0.285 C 
HETATM   33  NBI   D T 445       4.703  18.208  -5.932  1.00180.77     0.143 N 
HETATM   34  CAO   D T 445       3.378  18.708  -6.308  1.00184.53     0.285 C 
HETATM   35  CAS   D T 445       5.044  16.993  -6.614  1.00176.33     0.285 C 
HETATM   36  CAQ   D T 445       6.398  16.433  -6.242  1.00174.56     0.285 C 
ENDBRANCH  29  30
ENDBRANCH  28  29
ENDBRANCH  27  28
ENDBRANCH  26  27
ENDBRANCH   9  26
TORSDOF 9
ENDMDL
