MODEL 1
REMARK VINA RESULT:    -6.404      0.000      0.000
REMARK INTER + INTRA:         -11.311
REMARK INTER:                  -9.773
REMARK INTRA:                  -1.538
REMARK UNBOUND:                -1.538
REMARK  9 active torsions:
REMARK  status: ('A' for Active; 'I' for Inactive)
REMARK    1  A    between atoms: O02_2  and  CAX_24 
REMARK    2  A    between atoms: CAC_3  and  CAM_13 
REMARK    3  A    between atoms: CAC_3  and  NBH_34 
REMARK    4  A    between atoms: CAM_13  and  CAN_14 
REMARK    5  A    between atoms: CAN_14  and  OAW_23 
REMARK    6  A    between atoms: NAU_21  and  CBB_28 
REMARK    7  A    between atoms: NAU_21  and  CBE_31 
REMARK    8  A    between atoms: OAV_22  and  CBC_29 
REMARK    9  A    between atoms: OAW_23  and  CBD_30 
ROOT
HETATM    1  NAD   D T 445       9.815  -8.440   4.861  1.00172.85    -0.191 NA
HETATM    2  CAG   D T 445       9.731  -8.012   3.902  1.00172.72     0.104 C 
HETATM    3  CAH   D T 445       9.560  -8.108   1.329  1.00173.65     0.111 A 
HETATM    4  CAK   D T 445       9.224  -5.742  -1.542  1.00175.08     0.045 A 
HETATM    5  CAL   D T 445       9.279  -3.962   0.637  1.00173.14     0.029 A 
HETATM    6  NAT   D T 445       9.444  -7.580   0.046  1.00174.21    -0.243 NA
HETATM    7  CBA   D T 445       9.599  -7.346   2.493  1.00172.91     0.105 A 
HETATM    8  CBC   D T 445       9.159  -3.461  -0.662  1.00173.92     0.116 A 
HETATM    9  CBD   D T 445       9.135  -4.346  -1.784  1.00174.94     0.118 A 
HETATM   10  CBE   D T 445       9.493  -5.951   2.329  1.00172.61     0.094 A 
HETATM   11  CBF   D T 445       9.348  -6.226  -0.168  1.00174.22     0.085 A 
HETATM   12  CBG   D T 445       9.380  -5.380   0.957  1.00173.34     0.038 A 
ENDROOT
BRANCH  10  13
HETATM   13  NAU   D T 445       9.561  -5.052   3.543  1.00171.92    -0.244 NA
BRANCH  13  14
HETATM   14  CBB   D T 445      10.621  -4.220   4.136  1.00169.02     0.094 A 
HETATM   15  CAJ   D T 445      11.445  -3.338   3.476  1.00169.48     0.045 A 
HETATM   16  CAX   D T 445      12.461  -2.499   4.151  1.00166.40     0.106 A 
HETATM   17  CAY   D T 445      12.579  -2.576   5.532  1.00162.90     0.081 A 
HETATM   18 CL1    D T 445      13.711  -1.620   6.424  1.00167.07    -0.080 Cl
HETATM   19  CAI   D T 445      11.728  -3.453   6.220  1.00162.68     0.026 A 
HETATM   20  CAZ   D T 445      10.768  -4.252   5.568  1.00165.75     0.076 A 
HETATM   21 CL2    D T 445       9.809  -5.275   6.549  1.00297.59    -0.081 Cl
BRANCH  16  22
HETATM   22  O02   D T 445      13.284  -1.640   3.439  1.00167.55    -0.327 OA
HETATM   23  C01   D T 445      14.452  -2.047   2.673  1.00  7.55     0.181 C 
ENDBRANCH  16  22
ENDBRANCH  13  14
ENDBRANCH  10  13
BRANCH   8  24
HETATM   24  OAV   D T 445       9.026  -2.050  -0.749  1.00174.06    -0.326 OA
HETATM   25  CAA   D T 445       9.995  -1.246  -0.181  1.00171.51     0.181 C 
ENDBRANCH   8  24
BRANCH   9  26
HETATM   26  OAW   D T 445       8.876  -3.819  -3.156  1.00176.22    -0.329 OA
BRANCH  26  27
HETATM   27  CAN   D T 445       9.957  -3.414  -3.913  1.00172.41     0.151 C 
BRANCH  27  28
HETATM   28  CAM   D T 445       9.780  -1.920  -4.180  1.00172.95     0.068 C 
BRANCH  28  29
HETATM   29  CAC   D T 445       8.293  -1.558  -4.182  1.00176.18     0.253 C 
BRANCH  29  30
HETATM   30  NBH   D T 445       8.162  -0.265  -4.865  1.00176.27     0.141 N 
HETATM   31  CAP   D T 445       7.745  -0.403  -6.262  1.00179.63     0.285 C 
HETATM   32  CAR   D T 445       7.664   0.926  -6.987  1.00181.97     0.285 C 
HETATM   33  NBI   D T 445       8.880   1.689  -6.858  1.00180.77     0.143 N 
HETATM   34  CAO   D T 445       8.757   2.994  -7.513  1.00184.53     0.285 C 
HETATM   35  CAS   D T 445       9.227   1.802  -5.471  1.00176.33     0.285 C 
HETATM   36  CAQ   D T 445       9.380   0.475  -4.762  1.00174.56     0.285 C 
ENDBRANCH  29  30
ENDBRANCH  28  29
ENDBRANCH  27  28
ENDBRANCH  26  27
ENDBRANCH   9  26
TORSDOF 9
ENDMDL
MODEL 2
REMARK VINA RESULT:    -6.235      3.879      5.512
REMARK INTER + INTRA:         -11.054
REMARK INTER:                  -9.940
REMARK INTRA:                  -1.115
REMARK UNBOUND:                -1.538
REMARK  9 active torsions:
REMARK  status: ('A' for Active; 'I' for Inactive)
REMARK    1  A    between atoms: O02_2  and  CAX_24 
REMARK    2  A    between atoms: CAC_3  and  CAM_13 
REMARK    3  A    between atoms: CAC_3  and  NBH_34 
REMARK    4  A    between atoms: CAM_13  and  CAN_14 
REMARK    5  A    between atoms: CAN_14  and  OAW_23 
REMARK    6  A    between atoms: NAU_21  and  CBB_28 
REMARK    7  A    between atoms: NAU_21  and  CBE_31 
REMARK    8  A    between atoms: OAV_22  and  CBC_29 
REMARK    9  A    between atoms: OAW_23  and  CBD_30 
ROOT
HETATM    1  NAD   D T 445      13.524  -1.053   3.826  1.00172.85    -0.191 NA
HETATM    2  CAG   D T 445      13.002  -1.403   2.980  1.00172.72     0.104 C 
HETATM    3  CAH   D T 445      11.238  -2.857   1.784  1.00173.65     0.111 A 
HETATM    4  CAK   D T 445       9.964  -3.423  -1.682  1.00175.08     0.045 A 
HETATM    5  CAL   D T 445      11.940  -1.472  -2.132  1.00173.14     0.029 A 
HETATM    6  NAT   D T 445      10.522  -3.339   0.691  1.00174.21    -0.243 NA
HETATM    7  CBA   D T 445      12.241  -1.895   1.706  1.00172.91     0.105 A 
HETATM    8  CBC   D T 445      11.204  -1.970  -3.209  1.00173.92     0.116 A 
HETATM    9  CBD   D T 445      10.199  -2.966  -3.005  1.00174.94     0.118 A 
HETATM   10  CBE   D T 445      12.512  -1.380   0.423  1.00172.61     0.094 A 
HETATM   11  CBF   D T 445      10.757  -2.876  -0.582  1.00174.22     0.085 A 
HETATM   12  CBG   D T 445      11.756  -1.900  -0.751  1.00173.34     0.038 A 
ENDROOT
BRANCH  10  13
HETATM   13  NAU   D T 445      13.609  -0.354   0.250  1.00171.92    -0.244 NA
BRANCH  13  14
HETATM   14  CBB   D T 445      15.068  -0.444   0.071  1.00169.02     0.094 A 
HETATM   15  CAJ   D T 445      15.870  -1.522   0.364  1.00169.48     0.045 A 
HETATM   16  CAX   D T 445      17.329  -1.554   0.111  1.00166.40     0.106 A 
HETATM   17  CAY   D T 445      17.928  -0.451  -0.483  1.00162.90     0.081 A 
HETATM   18 CL1    D T 445      19.617  -0.395  -0.850  1.00167.07    -0.080 Cl
HETATM   19  CAI   D T 445      17.117   0.645  -0.810  1.00162.68     0.026 A 
HETATM   20  CAZ   D T 445      15.730   0.669  -0.560  1.00165.75     0.076 A 
HETATM   21 CL2    D T 445      14.880   2.083  -1.012  1.00297.59    -0.081 Cl
BRANCH  16  22
HETATM   22  O02   D T 445      18.100  -2.657   0.444  1.00167.55    -0.327 OA
HETATM   23  C01   D T 445      17.608  -3.841   1.132  1.00  7.55     0.181 C 
ENDBRANCH  16  22
ENDBRANCH  13  14
ENDBRANCH  10  13
BRANCH   8  24
HETATM   24  OAV   D T 445      11.509  -1.384  -4.466  1.00174.06    -0.326 OA
HETATM   25  CAA   D T 445      11.424  -0.013  -4.607  1.00171.51     0.181 C 
ENDBRANCH   8  24
BRANCH   9  26
HETATM   26  OAW   D T 445       9.326  -3.401  -4.135  1.00176.22    -0.329 OA
BRANCH  26  27
HETATM   27  CAN   D T 445       8.024  -2.943  -4.165  1.00172.41     0.151 C 
BRANCH  27  28
HETATM   28  CAM   D T 445       8.071  -1.498  -4.661  1.00172.95     0.068 C 
BRANCH  28  29
HETATM   29  CAC   D T 445       7.445  -1.399  -6.054  1.00176.18     0.253 C 
BRANCH  29  30
HETATM   30  NBH   D T 445       7.426   0.023  -6.421  1.00176.27     0.141 N 
HETATM   31  CAP   D T 445       7.377   0.233  -7.870  1.00179.63     0.285 C 
HETATM   32  CAR   D T 445       7.415   1.699  -8.254  1.00181.97     0.285 C 
HETATM   33  NBI   D T 445       8.523   2.391  -7.644  1.00180.77     0.143 N 
HETATM   34  CAO   D T 445       8.503   3.817  -7.979  1.00184.53     0.285 C 
HETATM   35  CAS   D T 445       8.506   2.160  -6.228  1.00176.33     0.285 C 
HETATM   36  CAQ   D T 445       8.542   0.699  -5.840  1.00174.56     0.285 C 
ENDBRANCH  29  30
ENDBRANCH  28  29
ENDBRANCH  27  28
ENDBRANCH  26  27
ENDBRANCH   9  26
TORSDOF 9
ENDMDL
MODEL 3
REMARK VINA RESULT:    -6.204      2.193      3.039
REMARK INTER + INTRA:         -11.006
REMARK INTER:                  -9.537
REMARK INTRA:                  -1.470
REMARK UNBOUND:                -1.538
REMARK  9 active torsions:
REMARK  status: ('A' for Active; 'I' for Inactive)
REMARK    1  A    between atoms: O02_2  and  CAX_24 
REMARK    2  A    between atoms: CAC_3  and  CAM_13 
REMARK    3  A    between atoms: CAC_3  and  NBH_34 
REMARK    4  A    between atoms: CAM_13  and  CAN_14 
REMARK    5  A    between atoms: CAN_14  and  OAW_23 
REMARK    6  A    between atoms: NAU_21  and  CBB_28 
REMARK    7  A    between atoms: NAU_21  and  CBE_31 
REMARK    8  A    between atoms: OAV_22  and  CBC_29 
REMARK    9  A    between atoms: OAW_23  and  CBD_30 
ROOT
HETATM    1  NAD   D T 445      10.093  -4.486   4.487  1.00172.85    -0.191 NA
HETATM    2  CAG   D T 445      10.021  -4.576   3.440  1.00172.72     0.104 C 
HETATM    3  CAH   D T 445       9.287  -5.745   1.261  1.00173.65     0.111 A 
HETATM    4  CAK   D T 445       9.505  -5.182  -2.426  1.00175.08     0.045 A 
HETATM    5  CAL   D T 445      10.844  -2.912  -1.440  1.00173.14     0.029 A 
HETATM    6  NAT   D T 445       9.165  -5.896  -0.118  1.00174.21    -0.243 NA
HETATM    7  CBA   D T 445       9.923  -4.675   1.883  1.00172.91     0.105 A 
HETATM    8  CBC   D T 445      10.703  -3.087  -2.819  1.00173.92     0.116 A 
HETATM    9  CBD   D T 445      10.032  -4.235  -3.342  1.00174.94     0.118 A 
HETATM   10  CBE   D T 445      10.452  -3.684   1.032  1.00172.61     0.094 A 
HETATM   11  CBF   D T 445       9.673  -4.963  -0.990  1.00174.22     0.085 A 
HETATM   12  CBG   D T 445      10.334  -3.845  -0.445  1.00173.34     0.038 A 
ENDROOT
BRANCH  10  13
HETATM   13  NAU   D T 445      11.187  -2.505   1.630  1.00171.92    -0.244 NA
BRANCH  13  14
HETATM   14  CBB   D T 445      12.610  -2.151   1.755  1.00169.02     0.094 A 
HETATM   15  CAJ   D T 445      13.571  -2.233   0.775  1.00169.48     0.045 A 
HETATM   16  CAX   D T 445      14.978  -1.812   0.964  1.00166.40     0.106 A 
HETATM   17  CAY   D T 445      15.354  -1.274   2.187  1.00162.90     0.081 A 
HETATM   18 CL1    D T 445      16.962  -0.723   2.506  1.00167.07    -0.080 Cl
HETATM   19  CAI   D T 445      14.378  -1.161   3.188  1.00162.68     0.026 A 
HETATM   20  CAZ   D T 445      13.043  -1.570   3.000  1.00165.75     0.076 A 
HETATM   21 CL2    D T 445      11.973  -1.371   4.321  1.00297.59    -0.081 Cl
BRANCH  16  22
HETATM   22  O02   D T 445      15.916  -1.936  -0.049  1.00167.55    -0.327 OA
HETATM   23  C01   D T 445      16.092  -0.992  -1.143  1.00  7.55     0.181 C 
ENDBRANCH  16  22
ENDBRANCH  13  14
ENDBRANCH  10  13
BRANCH   8  24
HETATM   24  OAV   D T 445      11.232  -2.035  -3.614  1.00174.06    -0.326 OA
HETATM   25  CAA   D T 445      11.363  -0.776  -3.062  1.00171.51     0.181 C 
ENDBRANCH   8  24
BRANCH   9  26
HETATM   26  OAW   D T 445       9.768  -4.354  -4.807  1.00176.22    -0.329 OA
BRANCH  26  27
HETATM   27  CAN   D T 445       8.519  -3.999  -5.275  1.00172.41     0.151 C 
BRANCH  27  28
HETATM   28  CAM   D T 445       8.610  -2.541  -5.727  1.00172.95     0.068 C 
BRANCH  28  29
HETATM   29  CAC   D T 445       7.210  -1.929  -5.817  1.00176.18     0.253 C 
BRANCH  29  30
HETATM   30  NBH   D T 445       7.380  -0.501  -6.110  1.00176.27     0.141 N 
HETATM   31  CAP   D T 445       7.373  -0.214  -7.547  1.00179.63     0.285 C 
HETATM   32  CAR   D T 445       7.605   1.252  -7.856  1.00181.97     0.285 C 
HETATM   33  NBI   D T 445       8.786   1.763  -7.206  1.00180.77     0.143 N 
HETATM   34  CAO   D T 445       8.955   3.194  -7.469  1.00184.53     0.285 C 
HETATM   35  CAS   D T 445       8.725   1.465  -5.805  1.00176.33     0.285 C 
HETATM   36  CAQ   D T 445       8.567  -0.005  -5.491  1.00174.56     0.285 C 
ENDBRANCH  29  30
ENDBRANCH  28  29
ENDBRANCH  27  28
ENDBRANCH  26  27
ENDBRANCH   9  26
TORSDOF 9
ENDMDL
MODEL 4
REMARK VINA RESULT:    -6.133      2.501      4.678
REMARK INTER + INTRA:         -10.899
REMARK INTER:                  -9.675
REMARK INTRA:                  -1.223
REMARK UNBOUND:                -1.538
REMARK  9 active torsions:
REMARK  status: ('A' for Active; 'I' for Inactive)
REMARK    1  A    between atoms: O02_2  and  CAX_24 
REMARK    2  A    between atoms: CAC_3  and  CAM_13 
REMARK    3  A    between atoms: CAC_3  and  NBH_34 
REMARK    4  A    between atoms: CAM_13  and  CAN_14 
REMARK    5  A    between atoms: CAN_14  and  OAW_23 
REMARK    6  A    between atoms: NAU_21  and  CBB_28 
REMARK    7  A    between atoms: NAU_21  and  CBE_31 
REMARK    8  A    between atoms: OAV_22  and  CBC_29 
REMARK    9  A    between atoms: OAW_23  and  CBD_30 
ROOT
HETATM    1  NAD   D T 445      13.589  -4.235   4.443  1.00172.85    -0.191 NA
HETATM    2  CAG   D T 445      13.352  -3.819   3.505  1.00172.72     0.104 C 
HETATM    3  CAH   D T 445      13.924  -2.635   1.285  1.00173.65     0.111 A 
HETATM    4  CAK   D T 445      12.167  -1.479  -1.803  1.00175.08     0.045 A 
HETATM    5  CAL   D T 445      10.037  -2.589  -0.338  1.00173.14     0.029 A 
HETATM    6  NAT   D T 445      13.652  -2.080   0.037  1.00174.21    -0.243 NA
HETATM    7  CBA   D T 445      12.969  -3.215   2.114  1.00172.91     0.105 A 
HETATM    8  CBC   D T 445       9.793  -2.029  -1.594  1.00173.92     0.116 A 
HETATM    9  CBD   D T 445      10.859  -1.455  -2.353  1.00174.94     0.118 A 
HETATM   10  CBE   D T 445      11.650  -3.245   1.620  1.00172.61     0.094 A 
HETATM   11  CBF   D T 445      12.380  -2.075  -0.485  1.00174.22     0.085 A 
HETATM   12  CBG   D T 445      11.351  -2.643   0.290  1.00173.34     0.038 A 
ENDROOT
BRANCH  10  13
HETATM   13  NAU   D T 445      10.548  -3.830   2.475  1.00171.92    -0.244 NA
BRANCH  13  14
HETATM   14  CBB   D T 445       9.979  -5.181   2.617  1.00169.02     0.094 A 
HETATM   15  CAJ   D T 445       9.734  -6.083   1.609  1.00169.48     0.045 A 
HETATM   16  CAX   D T 445       9.200  -7.447   1.837  1.00166.40     0.106 A 
HETATM   17  CAY   D T 445       8.959  -7.858   3.140  1.00162.90     0.081 A 
HETATM   18 CL1    D T 445       8.366  -9.438   3.521  1.00167.07    -0.080 Cl
HETATM   19  CAI   D T 445       9.229  -6.957   4.179  1.00162.68     0.026 A 
HETATM   20  CAZ   D T 445       9.731  -5.660   3.952  1.00165.75     0.076 A 
HETATM   21 CL2    D T 445      10.003  -4.677   5.327  1.00297.59    -0.081 Cl
BRANCH  16  22
HETATM   22  O02   D T 445       8.948  -8.313   0.784  1.00167.55    -0.327 OA
HETATM   23  C01   D T 445       9.422  -8.129  -0.579  1.00  7.55     0.181 C 
ENDBRANCH  16  22
ENDBRANCH  13  14
ENDBRANCH  10  13
BRANCH   8  24
HETATM   24  OAV   D T 445       8.448  -2.122  -2.041  1.00174.06    -0.326 OA
HETATM   25  CAA   D T 445       8.155  -2.918  -3.131  1.00171.51     0.181 C 
ENDBRANCH   8  24
BRANCH   9  26
HETATM   26  OAW   D T 445      10.621  -0.977  -3.747  1.00176.22    -0.329 OA
BRANCH  26  27
HETATM   27  CAN   D T 445      11.206   0.211  -4.138  1.00172.41     0.151 C 
BRANCH  27  28
HETATM   28  CAM   D T 445      10.657   0.543  -5.525  1.00172.95     0.068 C 
BRANCH  28  29
HETATM   29  CAC   D T 445      10.312   2.032  -5.612  1.00176.18     0.253 C 
BRANCH  29  30
HETATM   30  NBH   D T 445       9.000   2.135  -6.263  1.00176.27     0.141 N 
HETATM   31  CAP   D T 445       8.380   0.828  -6.497  1.00179.63     0.285 C 
HETATM   32  CAR   D T 445       7.051   0.927  -7.220  1.00181.97     0.285 C 
HETATM   33  NBI   D T 445       7.149   1.705  -8.430  1.00180.77     0.143 N 
HETATM   34  CAO   D T 445       5.842   1.838  -9.078  1.00184.53     0.285 C 
HETATM   35  CAS   D T 445       7.747   2.974  -8.133  1.00176.33     0.285 C 
HETATM   36  CAQ   D T 445       9.106   2.879  -7.477  1.00174.56     0.285 C 
ENDBRANCH  29  30
ENDBRANCH  28  29
ENDBRANCH  27  28
ENDBRANCH  26  27
ENDBRANCH   9  26
TORSDOF 9
ENDMDL
MODEL 5
REMARK VINA RESULT:    -6.076      5.134      9.099
REMARK INTER + INTRA:         -10.811
REMARK INTER:                  -9.276
REMARK INTRA:                  -1.535
REMARK UNBOUND:                -1.538
REMARK  9 active torsions:
REMARK  status: ('A' for Active; 'I' for Inactive)
REMARK    1  A    between atoms: O02_2  and  CAX_24 
REMARK    2  A    between atoms: CAC_3  and  CAM_13 
REMARK    3  A    between atoms: CAC_3  and  NBH_34 
REMARK    4  A    between atoms: CAM_13  and  CAN_14 
REMARK    5  A    between atoms: CAN_14  and  OAW_23 
REMARK    6  A    between atoms: NAU_21  and  CBB_28 
REMARK    7  A    between atoms: NAU_21  and  CBE_31 
REMARK    8  A    between atoms: OAV_22  and  CBC_29 
REMARK    9  A    between atoms: OAW_23  and  CBD_30 
ROOT
HETATM    1  NAD   D T 445       7.925  -5.707  -0.507  1.00172.85    -0.191 NA
HETATM    2  CAG   D T 445       8.701  -5.091  -0.148  1.00172.72     0.104 C 
HETATM    3  CAH   D T 445      10.169  -4.059   1.706  1.00173.65     0.111 A 
HETATM    4  CAK   D T 445      13.057  -1.708   2.002  1.00175.08     0.045 A 
HETATM    5  CAL   D T 445      12.665  -1.753  -0.783  1.00173.14     0.029 A 
HETATM    6  NAT   D T 445      11.190  -3.263   2.218  1.00174.21    -0.243 NA
HETATM    7  CBA   D T 445       9.865  -4.175   0.353  1.00172.91     0.105 A 
HETATM    8  CBC   D T 445      13.685  -0.966  -0.242  1.00173.92     0.116 A 
HETATM    9  CBD   D T 445      13.898  -0.923   1.170  1.00174.94     0.118 A 
HETATM   10  CBE   D T 445      10.676  -3.439  -0.534  1.00172.61     0.094 A 
HETATM   11  CBF   D T 445      12.001  -2.518   1.396  1.00174.22     0.085 A 
HETATM   12  CBG   D T 445      11.763  -2.577   0.010  1.00173.34     0.038 A 
ENDROOT
BRANCH  10  13
HETATM   13  NAU   D T 445      10.389  -3.487  -2.018  1.00171.92    -0.244 NA
BRANCH  13  14
HETATM   14  CBB   D T 445       9.730  -2.563  -2.957  1.00169.02     0.094 A 
HETATM   15  CAJ   D T 445       9.635  -1.197  -2.841  1.00169.48     0.045 A 
HETATM   16  CAX   D T 445       8.994  -0.327  -3.855  1.00166.40     0.106 A 
HETATM   17  CAY   D T 445       8.484  -0.911  -5.006  1.00162.90     0.081 A 
HETATM   18 CL1    D T 445       7.743   0.014  -6.267  1.00167.07    -0.080 Cl
HETATM   19  CAI   D T 445       8.597  -2.301  -5.149  1.00162.68     0.026 A 
HETATM   20  CAZ   D T 445       9.203  -3.120  -4.176  1.00165.75     0.076 A 
HETATM   21 CL2    D T 445       9.258  -4.801  -4.496  1.00297.59    -0.081 Cl
BRANCH  16  22
HETATM   22  O02   D T 445       8.904   1.045  -3.681  1.00167.55    -0.327 OA
HETATM   23  C01   D T 445       9.916   2.007  -4.090  1.00  7.55     0.181 C 
ENDBRANCH  16  22
ENDBRANCH  13  14
ENDBRANCH  10  13
BRANCH   8  24
HETATM   24  OAV   D T 445      14.480  -0.277  -1.195  1.00174.06    -0.326 OA
HETATM   25  CAA   D T 445      15.723  -0.782  -1.525  1.00171.51     0.181 C 
ENDBRANCH   8  24
BRANCH   9  26
HETATM   26  OAW   D T 445      15.067  -0.187   1.735  1.00176.22    -0.329 OA
BRANCH  26  27
HETATM   27  CAN   D T 445      15.769  -0.774   2.769  1.00172.41     0.151 C 
BRANCH  27  28
HETATM   28  CAM   D T 445      16.912  -1.568   2.136  1.00172.95     0.068 C 
BRANCH  28  29
HETATM   29  CAC   D T 445      17.908  -0.617   1.468  1.00176.18     0.253 C 
BRANCH  29  30
HETATM   30  NBH   D T 445      18.846  -1.443   0.698  1.00176.27     0.141 N 
HETATM   31  CAP   D T 445      19.357  -0.758  -0.492  1.00179.63     0.285 C 
HETATM   32  CAR   D T 445      20.282  -1.628  -1.321  1.00181.97     0.285 C 
HETATM   33  NBI   D T 445      19.686  -2.901  -1.642  1.00180.77     0.143 N 
HETATM   34  CAO   D T 445      20.620  -3.747  -2.389  1.00184.53     0.285 C 
HETATM   35  CAS   D T 445      19.222  -3.526  -0.437  1.00176.33     0.285 C 
HETATM   36  CAQ   D T 445      18.242  -2.690   0.355  1.00174.56     0.285 C 
ENDBRANCH  29  30
ENDBRANCH  28  29
ENDBRANCH  27  28
ENDBRANCH  26  27
ENDBRANCH   9  26
TORSDOF 9
ENDMDL
MODEL 6
REMARK VINA RESULT:    -6.042      2.287      3.184
REMARK INTER + INTRA:         -10.760
REMARK INTER:                  -9.464
REMARK INTRA:                  -1.296
REMARK UNBOUND:                -1.538
REMARK  9 active torsions:
REMARK  status: ('A' for Active; 'I' for Inactive)
REMARK    1  A    between atoms: O02_2  and  CAX_24 
REMARK    2  A    between atoms: CAC_3  and  CAM_13 
REMARK    3  A    between atoms: CAC_3  and  NBH_34 
REMARK    4  A    between atoms: CAM_13  and  CAN_14 
REMARK    5  A    between atoms: CAN_14  and  OAW_23 
REMARK    6  A    between atoms: NAU_21  and  CBB_28 
REMARK    7  A    between atoms: NAU_21  and  CBE_31 
REMARK    8  A    between atoms: OAV_22  and  CBC_29 
REMARK    9  A    between atoms: OAW_23  and  CBD_30 
ROOT
HETATM    1  NAD   D T 445       9.246  -5.623   3.973  1.00172.85    -0.191 NA
HETATM    2  CAG   D T 445       9.445  -5.108   3.075  1.00172.72     0.104 C 
HETATM    3  CAH   D T 445       8.814  -4.157   0.761  1.00173.65     0.111 A 
HETATM    4  CAK   D T 445      10.416  -2.207  -1.993  1.00175.08     0.045 A 
HETATM    5  CAL   D T 445      12.536  -2.410  -0.154  1.00173.14     0.029 A 
HETATM    6  NAT   D T 445       9.037  -3.478  -0.434  1.00174.21    -0.243 NA
HETATM    7  CBA   D T 445       9.771  -4.333   1.757  1.00172.91     0.105 A 
HETATM    8  CBC   D T 445      12.730  -1.731  -1.360  1.00173.92     0.116 A 
HETATM    9  CBD   D T 445      11.669  -1.621  -2.311  1.00174.94     0.118 A 
HETATM   10  CBE   D T 445      11.033  -3.757   1.517  1.00172.61     0.094 A 
HETATM   11  CBF   D T 445      10.254  -2.908  -0.720  1.00174.22     0.085 A 
HETATM   12  CBG   D T 445      11.281  -3.039   0.234  1.00173.34     0.038 A 
ENDROOT
BRANCH  10  13
HETATM   13  NAU   D T 445      12.137  -3.931   2.536  1.00171.92    -0.244 NA
BRANCH  13  14
HETATM   14  CBB   D T 445      12.683  -3.074   3.602  1.00169.02     0.094 A 
HETATM   15  CAJ   D T 445      12.935  -1.724   3.527  1.00169.48     0.045 A 
HETATM   16  CAX   D T 445      13.443  -0.918   4.662  1.00166.40     0.106 A 
HETATM   17  CAY   D T 445      13.651  -1.544   5.883  1.00162.90     0.081 A 
HETATM   18 CL1    D T 445      14.213  -0.692   7.279  1.00167.07    -0.080 Cl
HETATM   19  CAI   D T 445      13.374  -2.914   5.980  1.00162.68     0.026 A 
HETATM   20  CAZ   D T 445      12.896  -3.674   4.893  1.00165.75     0.076 A 
HETATM   21 CL2    D T 445      12.611  -5.339   5.171  1.00297.59    -0.081 Cl
BRANCH  16  22
HETATM   22  O02   D T 445      13.703   0.437   4.530  1.00167.55    -0.327 OA
HETATM   23  C01   D T 445      14.761   1.008   3.710  1.00  7.55     0.181 C 
ENDBRANCH  16  22
ENDBRANCH  13  14
ENDBRANCH  10  13
BRANCH   8  24
HETATM   24  OAV   D T 445      14.016  -1.151  -1.520  1.00174.06    -0.326 OA
HETATM   25  CAA   D T 445      14.367  -0.067  -0.740  1.00171.51     0.181 C 
ENDBRANCH   8  24
BRANCH   9  26
HETATM   26  OAW   D T 445      11.838  -0.786  -3.536  1.00176.22    -0.329 OA
BRANCH  26  27
HETATM   27  CAN   D T 445      10.939   0.238  -3.756  1.00172.41     0.151 C 
BRANCH  27  28
HETATM   28  CAM   D T 445      10.790   0.382  -5.271  1.00172.95     0.068 C 
BRANCH  28  29
HETATM   29  CAC   D T 445      10.610   1.856  -5.645  1.00176.18     0.253 C 
BRANCH  29  30
HETATM   30  NBH   D T 445       9.265   1.998  -6.216  1.00176.27     0.141 N 
HETATM   31  CAP   D T 445       8.617   0.707  -6.463  1.00179.63     0.285 C 
HETATM   32  CAR   D T 445       7.251   0.848  -7.105  1.00181.97     0.285 C 
HETATM   33  NBI   D T 445       7.290   1.671  -8.288  1.00180.77     0.143 N 
HETATM   34  CAO   D T 445       5.951   1.843  -8.856  1.00184.53     0.285 C 
HETATM   35  CAS   D T 445       7.920   2.921  -7.979  1.00176.33     0.285 C 
HETATM   36  CAQ   D T 445       9.313   2.787  -7.405  1.00174.56     0.285 C 
ENDBRANCH  29  30
ENDBRANCH  28  29
ENDBRANCH  27  28
ENDBRANCH  26  27
ENDBRANCH   9  26
TORSDOF 9
ENDMDL
MODEL 7
REMARK VINA RESULT:    -5.919      2.641      4.506
REMARK INTER + INTRA:         -10.572
REMARK INTER:                  -9.501
REMARK INTRA:                  -1.071
REMARK UNBOUND:                -1.538
REMARK  9 active torsions:
REMARK  status: ('A' for Active; 'I' for Inactive)
REMARK    1  A    between atoms: O02_2  and  CAX_24 
REMARK    2  A    between atoms: CAC_3  and  CAM_13 
REMARK    3  A    between atoms: CAC_3  and  NBH_34 
REMARK    4  A    between atoms: CAM_13  and  CAN_14 
REMARK    5  A    between atoms: CAN_14  and  OAW_23 
REMARK    6  A    between atoms: NAU_21  and  CBB_28 
REMARK    7  A    between atoms: NAU_21  and  CBE_31 
REMARK    8  A    between atoms: OAV_22  and  CBC_29 
REMARK    9  A    between atoms: OAW_23  and  CBD_30 
ROOT
HETATM    1  NAD   D T 445      16.552  -1.571   1.644  1.00172.85    -0.191 NA
HETATM    2  CAG   D T 445      15.671  -1.636   1.071  1.00172.72     0.104 C 
HETATM    3  CAH   D T 445      14.155  -1.025  -0.925  1.00173.65     0.111 A 
HETATM    4  CAK   D T 445      10.791  -1.940  -2.266  1.00175.08     0.045 A 
HETATM    5  CAL   D T 445      10.924  -3.550   0.037  1.00173.14     0.029 A 
HETATM    6  NAT   D T 445      13.008  -1.089  -1.713  1.00174.21    -0.243 NA
HETATM    7  CBA   D T 445      14.353  -1.763   0.238  1.00172.91     0.105 A 
HETATM    8  CBC   D T 445       9.787  -3.597  -0.773  1.00173.92     0.116 A 
HETATM    9  CBD   D T 445       9.695  -2.784  -1.945  1.00174.94     0.118 A 
HETATM   10  CBE   D T 445      13.314  -2.640   0.605  1.00172.61     0.094 A 
HETATM   11  CBF   D T 445      11.962  -1.920  -1.392  1.00174.22     0.085 A 
HETATM   12  CBG   D T 445      12.080  -2.704  -0.228  1.00173.34     0.038 A 
ENDROOT
BRANCH  10  13
HETATM   13  NAU   D T 445      13.440  -3.453   1.873  1.00171.92    -0.244 NA
BRANCH  13  14
HETATM   14  CBB   D T 445      12.468  -3.972   2.850  1.00169.02     0.094 A 
HETATM   15  CAJ   D T 445      11.990  -5.258   2.937  1.00169.48     0.045 A 
HETATM   16  CAX   D T 445      11.045  -5.716   3.981  1.00166.40     0.106 A 
HETATM   17  CAY   D T 445      10.634  -4.813   4.951  1.00162.90     0.081 A 
HETATM   18 CL1    D T 445       9.558  -5.250   6.233  1.00167.07    -0.080 Cl
HETATM   19  CAI   D T 445      11.134  -3.504   4.890  1.00162.68     0.026 A 
HETATM   20  CAZ   D T 445      12.028  -3.076   3.889  1.00165.75     0.076 A 
HETATM   21 CL2    D T 445      12.541  -1.444   3.948  1.00297.59    -0.081 Cl
BRANCH  16  22
HETATM   22  O02   D T 445      10.574  -7.020   4.013  1.00167.55    -0.327 OA
HETATM   23  C01   D T 445      10.905  -8.050   3.040  1.00  7.55     0.181 C 
ENDBRANCH  16  22
ENDBRANCH  13  14
ENDBRANCH  10  13
BRANCH   8  24
HETATM   24  OAV   D T 445       8.794  -4.524  -0.360  1.00174.06    -0.326 OA
HETATM   25  CAA   D T 445       9.186  -5.737   0.173  1.00171.51     0.181 C 
ENDBRANCH   8  24
BRANCH   9  26
HETATM   26  OAW   D T 445       8.540  -2.932  -2.878  1.00176.22    -0.329 OA
BRANCH  26  27
HETATM   27  CAN   D T 445       8.743  -2.656  -4.216  1.00172.41     0.151 C 
BRANCH  27  28
HETATM   28  CAM   D T 445       7.856  -1.461  -4.563  1.00172.95     0.068 C 
BRANCH  28  29
HETATM   29  CAC   D T 445       7.741  -1.314  -6.082  1.00176.18     0.253 C 
BRANCH  29  30
HETATM   30  NBH   D T 445       7.700   0.123  -6.377  1.00176.27     0.141 N 
HETATM   31  CAP   D T 445       7.372   0.404  -7.777  1.00179.63     0.285 C 
HETATM   32  CAR   D T 445       7.386   1.886  -8.099  1.00181.97     0.285 C 
HETATM   33  NBI   D T 445       8.616   2.518  -7.694  1.00180.77     0.143 N 
HETATM   34  CAO   D T 445       8.582   3.959  -7.958  1.00184.53     0.285 C 
HETATM   35  CAS   D T 445       8.873   2.219  -6.315  1.00176.33     0.285 C 
HETATM   36  CAQ   D T 445       8.933   0.741  -6.003  1.00174.56     0.285 C 
ENDBRANCH  29  30
ENDBRANCH  28  29
ENDBRANCH  27  28
ENDBRANCH  26  27
ENDBRANCH   9  26
TORSDOF 9
ENDMDL
MODEL 8
REMARK VINA RESULT:    -5.850      2.477      4.731
REMARK INTER + INTRA:         -10.466
REMARK INTER:                  -9.458
REMARK INTRA:                  -1.008
REMARK UNBOUND:                -1.538
REMARK  9 active torsions:
REMARK  status: ('A' for Active; 'I' for Inactive)
REMARK    1  A    between atoms: O02_2  and  CAX_24 
REMARK    2  A    between atoms: CAC_3  and  CAM_13 
REMARK    3  A    between atoms: CAC_3  and  NBH_34 
REMARK    4  A    between atoms: CAM_13  and  CAN_14 
REMARK    5  A    between atoms: CAN_14  and  OAW_23 
REMARK    6  A    between atoms: NAU_21  and  CBB_28 
REMARK    7  A    between atoms: NAU_21  and  CBE_31 
REMARK    8  A    between atoms: OAV_22  and  CBC_29 
REMARK    9  A    between atoms: OAW_23  and  CBD_30 
ROOT
HETATM    1  NAD   D T 445      13.258  -2.563   6.514  1.00172.85    -0.191 NA
HETATM    2  CAG   D T 445      12.850  -2.408   5.555  1.00172.72     0.104 C 
HETATM    3  CAH   D T 445      12.245  -0.970   3.501  1.00173.65     0.111 A 
HETATM    4  CAK   D T 445      10.635  -1.405   0.158  1.00175.08     0.045 A 
HETATM    5  CAL   D T 445      10.499  -4.023   1.181  1.00173.14     0.029 A 
HETATM    6  NAT   D T 445      11.723  -0.727   2.233  1.00174.21    -0.243 NA
HETATM    7  CBA   D T 445      12.244  -2.213   4.127  1.00172.91     0.105 A 
HETATM    8  CBC   D T 445       9.987  -3.751  -0.089  1.00173.92     0.116 A 
HETATM    9  CBD   D T 445      10.040  -2.428  -0.627  1.00174.94     0.118 A 
HETATM   10  CBE   D T 445      11.688  -3.279   3.395  1.00172.61     0.094 A 
HETATM   11  CBF   D T 445      11.159  -1.731   1.483  1.00174.22     0.085 A 
HETATM   12  CBG   D T 445      11.117  -3.023   2.042  1.00173.34     0.038 A 
ENDROOT
BRANCH  10  13
HETATM   13  NAU   D T 445      11.620  -4.655   4.019  1.00171.92    -0.244 NA
BRANCH  13  14
HETATM   14  CBB   D T 445      10.957  -5.914   3.639  1.00169.02     0.094 A 
HETATM   15  CAJ   D T 445      11.504  -6.949   2.918  1.00169.48     0.045 A 
HETATM   16  CAX   D T 445      10.786  -8.209   2.614  1.00166.40     0.106 A 
HETATM   17  CAY   D T 445       9.499  -8.378   3.105  1.00162.90     0.081 A 
HETATM   18 CL1    D T 445       8.583  -9.820   2.835  1.00167.07    -0.080 Cl
HETATM   19  CAI   D T 445       8.939  -7.341   3.864  1.00162.68     0.026 A 
HETATM   20  CAZ   D T 445       9.628  -6.143   4.143  1.00165.75     0.076 A 
HETATM   21 CL2    D T 445       8.805  -4.970   5.079  1.00297.59    -0.081 Cl
BRANCH  16  22
HETATM   22  O02   D T 445      11.373  -9.215   1.862  1.00167.55    -0.327 OA
HETATM   23  C01   D T 445      11.179  -9.411   0.433  1.00  7.55     0.181 C 
ENDBRANCH  16  22
ENDBRANCH  13  14
ENDBRANCH  10  13
BRANCH   8  24
HETATM   24  OAV   D T 445       9.470  -4.878  -0.781  1.00174.06    -0.326 OA
HETATM   25  CAA   D T 445       8.887  -5.901  -0.059  1.00171.51     0.181 C 
ENDBRANCH   8  24
BRANCH   9  26
HETATM   26  OAW   D T 445       9.612  -2.166  -2.033  1.00176.22    -0.329 OA
BRANCH  26  27
HETATM   27  CAN   D T 445      10.347  -1.270  -2.782  1.00172.41     0.151 C 
BRANCH  27  28
HETATM   28  CAM   D T 445       9.380  -0.614  -3.767  1.00172.95     0.068 C 
BRANCH  28  29
HETATM   29  CAC   D T 445      10.092   0.496  -4.545  1.00176.18     0.253 C 
BRANCH  29  30
HETATM   30  NBH   D T 445       9.410   0.625  -5.838  1.00176.27     0.141 N 
HETATM   31  CAP   D T 445       9.208   2.022  -6.234  1.00179.63     0.285 C 
HETATM   32  CAR   D T 445       8.453   2.160  -7.541  1.00181.97     0.285 C 
HETATM   33  NBI   D T 445       7.219   1.415  -7.537  1.00180.77     0.143 N 
HETATM   34  CAO   D T 445       6.539   1.513  -8.830  1.00184.53     0.285 C 
HETATM   35  CAS   D T 445       7.485   0.057  -7.158  1.00176.33     0.285 C 
HETATM   36  CAQ   D T 445       8.173  -0.088  -5.819  1.00174.56     0.285 C 
ENDBRANCH  29  30
ENDBRANCH  28  29
ENDBRANCH  27  28
ENDBRANCH  26  27
ENDBRANCH   9  26
TORSDOF 9
ENDMDL
MODEL 9
REMARK VINA RESULT:    -5.802      2.737      4.136
REMARK INTER + INTRA:         -10.393
REMARK INTER:                  -9.104
REMARK INTRA:                  -1.289
REMARK UNBOUND:                -1.538
REMARK  9 active torsions:
REMARK  status: ('A' for Active; 'I' for Inactive)
REMARK    1  A    between atoms: O02_2  and  CAX_24 
REMARK    2  A    between atoms: CAC_3  and  CAM_13 
REMARK    3  A    between atoms: CAC_3  and  NBH_34 
REMARK    4  A    between atoms: CAM_13  and  CAN_14 
REMARK    5  A    between atoms: CAN_14  and  OAW_23 
REMARK    6  A    between atoms: NAU_21  and  CBB_28 
REMARK    7  A    between atoms: NAU_21  and  CBE_31 
REMARK    8  A    between atoms: OAV_22  and  CBC_29 
REMARK    9  A    between atoms: OAW_23  and  CBD_30 
ROOT
HETATM    1  NAD   D T 445      12.940  -4.018   6.451  1.00172.85    -0.191 NA
HETATM    2  CAG   D T 445      12.394  -3.997   5.551  1.00172.72     0.104 C 
HETATM    3  CAH   D T 445      10.345  -4.517   4.071  1.00173.65     0.111 A 
HETATM    4  CAK   D T 445       9.202  -3.921   0.565  1.00175.08     0.045 A 
HETATM    5  CAL   D T 445      11.727  -2.679   0.542  1.00173.14     0.029 A 
HETATM    6  NAT   D T 445       9.590  -4.506   2.901  1.00174.21    -0.243 NA
HETATM    7  CBA   D T 445      11.606  -3.944   4.201  1.00172.91     0.105 A 
HETATM    8  CBC   D T 445      10.947  -2.679  -0.617  1.00173.92     0.116 A 
HETATM    9  CBD   D T 445       9.664  -3.309  -0.629  1.00174.94     0.118 A 
HETATM   10  CBE   D T 445      12.117  -3.298   3.058  1.00172.61     0.094 A 
HETATM   11  CBF   D T 445      10.049  -3.899   1.757  1.00174.22     0.085 A 
HETATM   12  CBG   D T 445      11.319  -3.292   1.799  1.00173.34     0.038 A 
ENDROOT
BRANCH  10  13
HETATM   13  NAU   D T 445      13.496  -2.678   3.108  1.00171.92    -0.244 NA
BRANCH  13  14
HETATM   14  CBB   D T 445      14.474  -2.288   2.079  1.00169.02     0.094 A 
HETATM   15  CAJ   D T 445      14.711  -1.021   1.602  1.00169.48     0.045 A 
HETATM   16  CAX   D T 445      15.749  -0.700   0.595  1.00166.40     0.106 A 
HETATM   17  CAY   D T 445      16.556  -1.725   0.121  1.00162.90     0.081 A 
HETATM   18 CL1    D T 445      17.817  -1.457  -1.032  1.00167.07    -0.080 Cl
HETATM   19  CAI   D T 445      16.343  -3.019   0.618  1.00162.68     0.026 A 
HETATM   20  CAZ   D T 445      15.348  -3.315   1.571  1.00165.75     0.076 A 
HETATM   21 CL2    D T 445      15.210  -4.945   2.074  1.00297.59    -0.081 Cl
BRANCH  16  22
HETATM   22  O02   D T 445      15.934   0.592   0.129  1.00167.55    -0.327 OA
HETATM   23  C01   D T 445      14.864   1.515  -0.217  1.00  7.55     0.181 C 
ENDBRANCH  16  22
ENDBRANCH  13  14
ENDBRANCH  10  13
BRANCH   8  24
HETATM   24  OAV   D T 445      11.511  -1.984  -1.719  1.00174.06    -0.326 OA
HETATM   25  CAA   D T 445      12.810  -1.524  -1.630  1.00171.51     0.181 C 
ENDBRANCH   8  24
BRANCH   9  26
HETATM   26  OAW   D T 445       8.778  -3.194  -1.825  1.00176.22    -0.329 OA
BRANCH  26  27
HETATM   27  CAN   D T 445       8.929  -4.119  -2.839  1.00172.41     0.151 C 
BRANCH  27  28
HETATM   28  CAM   D T 445       9.253  -3.337  -4.111  1.00172.95     0.068 C 
BRANCH  28  29
HETATM   29  CAC   D T 445       8.049  -2.489  -4.530  1.00176.18     0.253 C 
BRANCH  29  30
HETATM   30  NBH   D T 445       8.566  -1.355  -5.305  1.00176.27     0.141 N 
HETATM   31  CAP   D T 445       9.269  -0.375  -4.474  1.00179.63     0.285 C 
HETATM   32  CAR   D T 445       9.754   0.826  -5.262  1.00181.97     0.285 C 
HETATM   33  NBI   D T 445       8.699   1.429  -6.037  1.00180.77     0.143 N 
HETATM   34  CAO   D T 445       9.204   2.548  -6.836  1.00184.53     0.285 C 
HETATM   35  CAS   D T 445       8.062   0.425  -6.838  1.00176.33     0.285 C 
HETATM   36  CAQ   D T 445       7.512  -0.741  -6.047  1.00174.56     0.285 C 
ENDBRANCH  29  30
ENDBRANCH  28  29
ENDBRANCH  27  28
ENDBRANCH  26  27
ENDBRANCH   9  26
TORSDOF 9
ENDMDL
