MODEL 1
REMARK VINA RESULT:    -7.730      0.000      0.000
REMARK INTER + INTRA:         -13.332
REMARK INTER:                 -11.797
REMARK INTRA:                  -1.534
REMARK UNBOUND:                -1.534
REMARK  9 active torsions:
REMARK  status: ('A' for Active; 'I' for Inactive)
REMARK    1  A    between atoms: O02_2  and  CAX_24 
REMARK    2  A    between atoms: CAC_3  and  CAM_13 
REMARK    3  A    between atoms: CAC_3  and  NBH_34 
REMARK    4  A    between atoms: CAM_13  and  CAN_14 
REMARK    5  A    between atoms: CAN_14  and  OAW_23 
REMARK    6  A    between atoms: NAU_21  and  CBB_28 
REMARK    7  A    between atoms: NAU_21  and  CBE_31 
REMARK    8  A    between atoms: OAV_22  and  CBC_29 
REMARK    9  A    between atoms: OAW_23  and  CBD_30 
ROOT
HETATM    1  NAD   D T 445       9.483   7.503  -1.728  1.00172.85    -0.191 NA
HETATM    2  CAG   D T 445       9.743   6.603  -1.246  1.00172.72     0.104 C 
HETATM    3  CAH   D T 445      10.073   5.095   0.821  1.00173.65     0.111 A 
HETATM    4  CAK   D T 445      11.130   1.595   1.591  1.00175.08     0.045 A 
HETATM    5  CAL   D T 445      11.333   1.629  -1.215  1.00173.14     0.029 A 
HETATM    6  NAT   D T 445      10.400   3.921   1.495  1.00174.21    -0.243 NA
HETATM    7  CBA   D T 445      10.128   5.251  -0.560  1.00172.91     0.105 A 
HETATM    8  CBC   D T 445      11.653   0.463  -0.513  1.00173.92     0.116 A 
HETATM    9  CBD   D T 445      11.562   0.425   0.912  1.00174.94     0.118 A 
HETATM   10  CBE   D T 445      10.528   4.122  -1.299  1.00172.61     0.094 A 
HETATM   11  CBF   D T 445      10.807   2.795   0.820  1.00174.22     0.085 A 
HETATM   12  CBG   D T 445      10.891   2.866  -0.584  1.00173.34     0.038 A 
ENDROOT
BRANCH  10  13
HETATM   13  NAU   D T 445      10.645   4.220  -2.804  1.00171.92    -0.244 NA
BRANCH  13  14
HETATM   14  CBB   D T 445       9.756   3.852  -3.920  1.00169.02     0.094 A 
HETATM   15  CAJ   D T 445       9.142   2.638  -4.121  1.00169.48     0.045 A 
HETATM   16  CAX   D T 445       8.221   2.359  -5.247  1.00166.40     0.106 A 
HETATM   17  CAY   D T 445       7.931   3.381  -6.140  1.00162.90     0.081 A 
HETATM   18 CL1    D T 445       6.847   3.171  -7.472  1.00167.07    -0.080 Cl
HETATM   19  CAI   D T 445       8.531   4.631  -5.933  1.00162.68     0.026 A 
HETATM   20  CAZ   D T 445       9.410   4.886  -4.862  1.00165.75     0.076 A 
HETATM   21 CL2    D T 445      10.065   6.463  -4.749  1.00297.59    -0.081 Cl
BRANCH  16  22
HETATM   22  O02   D T 445       7.644   1.110  -5.419  1.00167.55    -0.327 OA
HETATM   23  C01   D T 445       7.879  -0.041  -4.561  1.00  7.55     0.181 C 
ENDBRANCH  16  22
ENDBRANCH  13  14
ENDBRANCH  10  13
BRANCH   8  24
HETATM   24  OAV   D T 445      12.017  -0.643  -1.325  1.00174.06    -0.326 OA
HETATM   25  CAA   D T 445      12.163  -0.461  -2.686  1.00171.51     0.181 C 
ENDBRANCH   8  24
BRANCH   9  26
HETATM   26  OAW   D T 445      11.776  -0.855   1.648  1.00176.22    -0.329 OA
BRANCH  26  27
HETATM   27  CAN   D T 445      10.684  -1.451   2.248  1.00172.41     0.151 C 
BRANCH  27  28
HETATM   28  CAM   D T 445      10.426  -2.760   1.504  1.00172.95     0.068 C 
BRANCH  28  29
HETATM   29  CAC   D T 445      11.451  -3.817   1.923  1.00176.18     0.253 C 
BRANCH  29  30
HETATM   30  NBH   D T 445      12.146  -4.253   0.706  1.00176.27     0.141 N 
HETATM   31  CAP   D T 445      11.461  -3.828  -0.519  1.00179.63     0.285 C 
HETATM   32  CAR   D T 445      12.145  -4.326  -1.778  1.00181.97     0.285 C 
HETATM   33  NBI   D T 445      12.369  -5.749  -1.747  1.00180.77     0.143 N 
HETATM   34  CAO   D T 445      13.085  -6.198  -2.944  1.00184.53     0.285 C 
HETATM   35  CAS   D T 445      13.054  -6.098  -0.536  1.00176.33     0.285 C 
HETATM   36  CAQ   D T 445      12.338  -5.668   0.725  1.00174.56     0.285 C 
ENDBRANCH  29  30
ENDBRANCH  28  29
ENDBRANCH  27  28
ENDBRANCH  26  27
ENDBRANCH   9  26
TORSDOF 9
ENDMDL
MODEL 2
REMARK VINA RESULT:    -7.538      2.064      3.235
REMARK INTER + INTRA:         -13.038
REMARK INTER:                 -11.244
REMARK INTRA:                  -1.794
REMARK UNBOUND:                -1.534
REMARK  9 active torsions:
REMARK  status: ('A' for Active; 'I' for Inactive)
REMARK    1  A    between atoms: O02_2  and  CAX_24 
REMARK    2  A    between atoms: CAC_3  and  CAM_13 
REMARK    3  A    between atoms: CAC_3  and  NBH_34 
REMARK    4  A    between atoms: CAM_13  and  CAN_14 
REMARK    5  A    between atoms: CAN_14  and  OAW_23 
REMARK    6  A    between atoms: NAU_21  and  CBB_28 
REMARK    7  A    between atoms: NAU_21  and  CBE_31 
REMARK    8  A    between atoms: OAV_22  and  CBC_29 
REMARK    9  A    between atoms: OAW_23  and  CBD_30 
ROOT
HETATM    1  NAD   D T 445       9.522   6.752  -5.337  1.00172.85    -0.191 NA
HETATM    2  CAG   D T 445       9.725   6.296  -4.410  1.00172.72     0.104 C 
HETATM    3  CAH   D T 445      10.047   6.293  -1.850  1.00173.65     0.111 A 
HETATM    4  CAK   D T 445      10.808   3.850   0.872  1.00175.08     0.045 A 
HETATM    5  CAL   D T 445      10.821   2.178  -1.391  1.00173.14     0.029 A 
HETATM    6  NAT   D T 445      10.304   5.725  -0.604  1.00174.21    -0.243 NA
HETATM    7  CBA   D T 445      10.022   5.586  -3.047  1.00172.91     0.105 A 
HETATM    8  CBC   D T 445      11.073   1.633  -0.128  1.00173.92     0.116 A 
HETATM    9  CBD   D T 445      11.077   2.465   1.034  1.00174.94     0.118 A 
HETATM   10  CBE   D T 445      10.259   4.201  -2.959  1.00172.61     0.094 A 
HETATM   11  CBF   D T 445      10.552   4.380  -0.466  1.00174.22     0.085 A 
HETATM   12  CBG   D T 445      10.545   3.588  -1.630  1.00173.34     0.038 A 
ENDROOT
BRANCH  10  13
HETATM   13  NAU   D T 445      10.281   3.367  -4.220  1.00171.92    -0.244 NA
BRANCH  13  14
HETATM   14  CBB   D T 445       9.241   2.677  -5.002  1.00169.02     0.094 A 
HETATM   15  CAJ   D T 445       8.190   3.258  -5.673  1.00169.48     0.045 A 
HETATM   16  CAX   D T 445       7.209   2.497  -6.480  1.00166.40     0.106 A 
HETATM   17  CAY   D T 445       7.363   1.123  -6.597  1.00162.90     0.081 A 
HETATM   18 CL1    D T 445       6.292   0.144  -7.538  1.00167.07    -0.080 Cl
HETATM   19  CAI   D T 445       8.444   0.520  -5.938  1.00162.68     0.026 A 
HETATM   20  CAZ   D T 445       9.371   1.251  -5.168  1.00165.75     0.076 A 
HETATM   21 CL2    D T 445      10.633   0.369  -4.422  1.00297.59    -0.081 Cl
BRANCH  16  22
HETATM   22  O02   D T 445       6.152   3.128  -7.120  1.00167.55    -0.327 OA
HETATM   23  C01   D T 445       6.224   3.743  -8.436  1.00  7.55     0.181 C 
ENDBRANCH  16  22
ENDBRANCH  13  14
ENDBRANCH  10  13
BRANCH   8  24
HETATM   24  OAV   D T 445      11.270   0.227  -0.110  1.00174.06    -0.326 OA
HETATM   25  CAA   D T 445      12.088  -0.349  -1.062  1.00171.51     0.181 C 
ENDBRANCH   8  24
BRANCH   9  26
HETATM   26  OAW   D T 445      11.214   1.863   2.392  1.00176.22    -0.329 OA
BRANCH  26  27
HETATM   27  CAN   D T 445      12.472   1.819   2.961  1.00172.41     0.151 C 
BRANCH  27  28
HETATM   28  CAM   D T 445      12.687   0.389   3.455  1.00172.95     0.068 C 
BRANCH  28  29
HETATM   29  CAC   D T 445      11.339  -0.284   3.727  1.00176.18     0.253 C 
BRANCH  29  30
HETATM   30  NBH   D T 445      11.381  -1.607   3.092  1.00176.27     0.141 N 
HETATM   31  CAP   D T 445      12.652  -1.868   2.412  1.00179.63     0.285 C 
HETATM   32  CAR   D T 445      12.678  -3.211   1.706  1.00181.97     0.285 C 
HETATM   33  NBI   D T 445      11.547  -3.384   0.829  1.00180.77     0.143 N 
HETATM   34  CAO   D T 445      11.559  -4.710   0.206  1.00184.53     0.285 C 
HETATM   35  CAS   D T 445      10.337  -3.130   1.556  1.00176.33     0.285 C 
HETATM   36  CAQ   D T 445      10.277  -1.764   2.200  1.00174.56     0.285 C 
ENDBRANCH  29  30
ENDBRANCH  28  29
ENDBRANCH  27  28
ENDBRANCH  26  27
ENDBRANCH   9  26
TORSDOF 9
ENDMDL
MODEL 3
REMARK VINA RESULT:    -7.260     19.497     21.318
REMARK INTER + INTRA:         -12.615
REMARK INTER:                 -11.047
REMARK INTRA:                  -1.568
REMARK UNBOUND:                -1.534
REMARK  9 active torsions:
REMARK  status: ('A' for Active; 'I' for Inactive)
REMARK    1  A    between atoms: O02_2  and  CAX_24 
REMARK    2  A    between atoms: CAC_3  and  CAM_13 
REMARK    3  A    between atoms: CAC_3  and  NBH_34 
REMARK    4  A    between atoms: CAM_13  and  CAN_14 
REMARK    5  A    between atoms: CAN_14  and  OAW_23 
REMARK    6  A    between atoms: NAU_21  and  CBB_28 
REMARK    7  A    between atoms: NAU_21  and  CBE_31 
REMARK    8  A    between atoms: OAV_22  and  CBC_29 
REMARK    9  A    between atoms: OAW_23  and  CBD_30 
ROOT
HETATM    1  NAD   D T 445      -2.568   4.849 -16.159  1.00172.85    -0.191 NA
HETATM    2  CAG   D T 445      -3.183   4.032 -15.909  1.00172.72     0.104 C 
HETATM    3  CAH   D T 445      -5.162   2.908 -14.693  1.00173.65     0.111 A 
HETATM    4  CAK   D T 445      -6.746  -0.467 -14.453  1.00175.08     0.045 A 
HETATM    5  CAL   D T 445      -4.634  -0.973 -16.243  1.00173.14     0.029 A 
HETATM    6  NAT   D T 445      -6.002   1.853 -14.344  1.00174.21    -0.243 NA
HETATM    7  CBA   D T 445      -4.083   2.799 -15.564  1.00172.91     0.105 A 
HETATM    8  CBC   D T 445      -5.494  -2.013 -15.878  1.00173.92     0.116 A 
HETATM    9  CBD   D T 445      -6.570  -1.780 -14.966  1.00174.94     0.118 A 
HETATM   10  CBE   D T 445      -3.863   1.528 -16.129  1.00172.61     0.094 A 
HETATM   11  CBF   D T 445      -5.822   0.591 -14.859  1.00174.22     0.085 A 
HETATM   12  CBG   D T 445      -4.751   0.393 -15.751  1.00173.34     0.038 A 
ENDROOT
BRANCH  10  13
HETATM   13  NAU   D T 445      -2.690   1.320 -17.060  1.00171.92    -0.244 NA
BRANCH  13  14
HETATM   14  CBB   D T 445      -2.442   1.650 -18.475  1.00169.02     0.094 A 
HETATM   15  CAJ   D T 445      -3.252   1.352 -19.546  1.00169.48     0.045 A 
HETATM   16  CAX   D T 445      -2.956   1.760 -20.938  1.00166.40     0.106 A 
HETATM   17  CAY   D T 445      -1.816   2.511 -21.185  1.00162.90     0.081 A 
HETATM   18 CL1    D T 445      -1.392   3.065 -22.768  1.00167.07    -0.080 Cl
HETATM   19  CAI   D T 445      -0.995   2.845 -20.099  1.00162.68     0.026 A 
HETATM   20  CAZ   D T 445      -1.281   2.447 -18.777  1.00165.75     0.076 A 
HETATM   21 CL2    D T 445      -0.177   2.928 -17.561  1.00297.59    -0.081 Cl
BRANCH  16  22
HETATM   22  O02   D T 445      -3.793   1.414 -21.988  1.00167.55    -0.327 OA
HETATM   23  C01   D T 445      -3.695   0.185 -22.761  1.00  7.55     0.181 C 
ENDBRANCH  16  22
ENDBRANCH  13  14
ENDBRANCH  10  13
BRANCH   8  24
HETATM   24  OAV   D T 445      -5.233  -3.257 -16.510  1.00174.06    -0.326 OA
HETATM   25  CAA   D T 445      -5.477  -3.390 -17.862  1.00171.51     0.181 C 
ENDBRANCH   8  24
BRANCH   9  26
HETATM   26  OAW   D T 445      -7.564  -2.855 -14.681  1.00176.22    -0.329 OA
BRANCH  26  27
HETATM   27  CAN   D T 445      -8.655  -2.541 -13.895  1.00172.41     0.151 C 
BRANCH  27  28
HETATM   28  CAM   D T 445      -8.718  -3.587 -12.783  1.00172.95     0.068 C 
BRANCH  28  29
HETATM   29  CAC   D T 445      -7.952  -3.095 -11.552  1.00176.18     0.253 C 
BRANCH  29  30
HETATM   30  NBH   D T 445      -7.102  -4.203 -11.100  1.00176.27     0.141 N 
HETATM   31  CAP   D T 445      -5.703  -4.045 -11.509  1.00179.63     0.285 C 
HETATM   32  CAR   D T 445      -4.832  -5.215 -11.094  1.00181.97     0.285 C 
HETATM   33  NBI   D T 445      -5.382  -6.478 -11.518  1.00180.77     0.143 N 
HETATM   34  CAO   D T 445      -4.558  -7.597 -11.054  1.00184.53     0.285 C 
HETATM   35  CAS   D T 445      -6.743  -6.578 -11.076  1.00176.33     0.285 C 
HETATM   36  CAQ   D T 445      -7.632  -5.450 -11.550  1.00174.56     0.285 C 
ENDBRANCH  29  30
ENDBRANCH  28  29
ENDBRANCH  27  28
ENDBRANCH  26  27
ENDBRANCH   9  26
TORSDOF 9
ENDMDL
MODEL 4
REMARK VINA RESULT:    -7.172      3.746      9.434
REMARK INTER + INTRA:         -12.480
REMARK INTER:                 -10.916
REMARK INTRA:                  -1.564
REMARK UNBOUND:                -1.534
REMARK  9 active torsions:
REMARK  status: ('A' for Active; 'I' for Inactive)
REMARK    1  A    between atoms: O02_2  and  CAX_24 
REMARK    2  A    between atoms: CAC_3  and  CAM_13 
REMARK    3  A    between atoms: CAC_3  and  NBH_34 
REMARK    4  A    between atoms: CAM_13  and  CAN_14 
REMARK    5  A    between atoms: CAN_14  and  OAW_23 
REMARK    6  A    between atoms: NAU_21  and  CBB_28 
REMARK    7  A    between atoms: NAU_21  and  CBE_31 
REMARK    8  A    between atoms: OAV_22  and  CBC_29 
REMARK    9  A    between atoms: OAW_23  and  CBD_30 
ROOT
HETATM    1  NAD   D T 445      10.797   0.382  -4.854  1.00172.85    -0.191 NA
HETATM    2  CAG   D T 445      10.580   1.047  -4.067  1.00172.72     0.104 C 
HETATM    3  CAH   D T 445       9.391   3.080  -3.012  1.00173.65     0.111 A 
HETATM    4  CAK   D T 445       9.237   4.831   0.284  1.00175.08     0.045 A 
HETATM    5  CAL   D T 445      11.056   2.759   0.844  1.00173.14     0.029 A 
HETATM    6  NAT   D T 445       9.073   3.975  -1.994  1.00174.21    -0.243 NA
HETATM    7  CBA   D T 445      10.272   2.012  -2.874  1.00172.91     0.105 A 
HETATM    8  CBC   D T 445      10.717   3.670   1.848  1.00173.92     0.116 A 
HETATM    9  CBD   D T 445       9.800   4.734   1.584  1.00174.94     0.118 A 
HETATM   10  CBE   D T 445      10.851   1.842  -1.603  1.00172.61     0.094 A 
HETATM   11  CBF   D T 445       9.621   3.859  -0.738  1.00174.22     0.085 A 
HETATM   12  CBG   D T 445      10.524   2.804  -0.512  1.00173.34     0.038 A 
ENDROOT
BRANCH  10  13
HETATM   13  NAU   D T 445      11.846   0.724  -1.380  1.00171.92    -0.244 NA
BRANCH  13  14
HETATM   14  CBB   D T 445      11.784  -0.567  -0.673  1.00169.02     0.094 A 
HETATM   15  CAJ   D T 445      11.267  -0.798   0.580  1.00169.48     0.045 A 
HETATM   16  CAX   D T 445      11.198  -2.138   1.206  1.00166.40     0.106 A 
HETATM   17  CAY   D T 445      11.651  -3.234   0.487  1.00162.90     0.081 A 
HETATM   18 CL1    D T 445      11.590  -4.846   1.112  1.00167.07    -0.080 Cl
HETATM   19  CAI   D T 445      12.158  -3.017  -0.802  1.00162.68     0.026 A 
HETATM   20  CAZ   D T 445      12.225  -1.737  -1.389  1.00165.75     0.076 A 
HETATM   21 CL2    D T 445      12.875  -1.636  -2.968  1.00297.59    -0.081 Cl
BRANCH  16  22
HETATM   22  O02   D T 445      10.688  -2.316   2.483  1.00167.55    -0.327 OA
HETATM   23  C01   D T 445      10.726  -1.318   3.542  1.00  7.55     0.181 C 
ENDBRANCH  16  22
ENDBRANCH  13  14
ENDBRANCH  10  13
BRANCH   8  24
HETATM   24  OAV   D T 445      11.314   3.419   3.112  1.00174.06    -0.326 OA
HETATM   25  CAA   D T 445      11.855   2.174   3.364  1.00171.51     0.181 C 
ENDBRANCH   8  24
BRANCH   9  26
HETATM   26  OAW   D T 445       9.338   5.624   2.689  1.00176.22    -0.329 OA
BRANCH  26  27
HETATM   27  CAN   D T 445      10.183   6.633   3.108  1.00172.41     0.151 C 
BRANCH  27  28
HETATM   28  CAM   D T 445       9.840   7.872   2.283  1.00172.95     0.068 C 
BRANCH  28  29
HETATM   29  CAC   D T 445      11.075   8.355   1.518  1.00176.18     0.253 C 
BRANCH  29  30
HETATM   30  NBH   D T 445      10.600   9.196   0.413  1.00176.27     0.141 N 
HETATM   31  CAP   D T 445       9.862  10.374   0.877  1.00179.63     0.285 C 
HETATM   32  CAR   D T 445       9.319  11.215  -0.262  1.00181.97     0.285 C 
HETATM   33  NBI   D T 445       8.554  10.431  -1.199  1.00180.77     0.143 N 
HETATM   34  CAO   D T 445       8.092  11.250  -2.323  1.00184.53     0.285 C 
HETATM   35  CAS   D T 445       9.334   9.305  -1.626  1.00176.33     0.285 C 
HETATM   36  CAQ   D T 445       9.816   8.422  -0.496  1.00174.56     0.285 C 
ENDBRANCH  29  30
ENDBRANCH  28  29
ENDBRANCH  27  28
ENDBRANCH  26  27
ENDBRANCH   9  26
TORSDOF 9
ENDMDL
MODEL 5
REMARK VINA RESULT:    -7.103      4.622      8.384
REMARK INTER + INTRA:         -12.375
REMARK INTER:                 -10.992
REMARK INTRA:                  -1.383
REMARK UNBOUND:                -1.534
REMARK  9 active torsions:
REMARK  status: ('A' for Active; 'I' for Inactive)
REMARK    1  A    between atoms: O02_2  and  CAX_24 
REMARK    2  A    between atoms: CAC_3  and  CAM_13 
REMARK    3  A    between atoms: CAC_3  and  NBH_34 
REMARK    4  A    between atoms: CAM_13  and  CAN_14 
REMARK    5  A    between atoms: CAN_14  and  OAW_23 
REMARK    6  A    between atoms: NAU_21  and  CBB_28 
REMARK    7  A    between atoms: NAU_21  and  CBE_31 
REMARK    8  A    between atoms: OAV_22  and  CBC_29 
REMARK    9  A    between atoms: OAW_23  and  CBD_30 
ROOT
HETATM    1  NAD   D T 445       9.823   5.787   3.368  1.00172.85    -0.191 NA
HETATM    2  CAG   D T 445       9.841   5.211   2.487  1.00172.72     0.104 C 
HETATM    3  CAH   D T 445       9.804   2.996   1.166  1.00173.65     0.111 A 
HETATM    4  CAK   D T 445       9.890   1.857  -2.391  1.00175.08     0.045 A 
HETATM    5  CAL   D T 445      10.018   4.650  -2.702  1.00173.14     0.029 A 
HETATM    6  NAT   D T 445       9.818   2.200   0.023  1.00174.21    -0.243 NA
HETATM    7  CBA   D T 445       9.862   4.385   1.158  1.00172.91     0.105 A 
HETATM    8  CBC   D T 445      10.028   3.828  -3.833  1.00173.92     0.116 A 
HETATM    9  CBD   D T 445       9.969   2.407  -3.698  1.00174.94     0.118 A 
HETATM   10  CBE   D T 445       9.919   5.000  -0.107  1.00172.61     0.094 A 
HETATM   11  CBF   D T 445       9.885   2.752  -1.235  1.00174.22     0.085 A 
HETATM   12  CBG   D T 445       9.946   4.154  -1.334  1.00173.34     0.038 A 
ENDROOT
BRANCH  10  13
HETATM   13  NAU   D T 445      10.017   6.506  -0.199  1.00171.92    -0.244 NA
BRANCH  13  14
HETATM   14  CBB   D T 445      11.145   7.454  -0.218  1.00169.02     0.094 A 
HETATM   15  CAJ   D T 445      12.413   7.237   0.268  1.00169.48     0.045 A 
HETATM   16  CAX   D T 445      13.511   8.226   0.170  1.00166.40     0.106 A 
HETATM   17  CAY   D T 445      13.267   9.432  -0.471  1.00162.90     0.081 A 
HETATM   18 CL1    D T 445      14.485  10.645  -0.666  1.00167.07    -0.080 Cl
HETATM   19  CAI   D T 445      11.985   9.657  -0.993  1.00162.68     0.026 A 
HETATM   20  CAZ   D T 445      10.944   8.712  -0.891  1.00165.75     0.076 A 
HETATM   21 CL2    D T 445       9.435   9.137  -1.575  1.00297.59    -0.081 Cl
BRANCH  16  22
HETATM   22  O02   D T 445      14.768   7.969   0.697  1.00167.55    -0.327 OA
HETATM   23  C01   D T 445      15.186   8.297   2.051  1.00  7.55     0.181 C 
ENDBRANCH  16  22
ENDBRANCH  13  14
ENDBRANCH  10  13
BRANCH   8  24
HETATM   24  OAV   D T 445      10.054   4.517  -5.074  1.00174.06    -0.326 OA
HETATM   25  CAA   D T 445       8.863   4.910  -5.651  1.00171.51     0.181 C 
ENDBRANCH   8  24
BRANCH   9  26
HETATM   26  OAW   D T 445       9.846   1.539  -4.905  1.00176.22    -0.329 OA
BRANCH  26  27
HETATM   27  CAN   D T 445       8.984   0.462  -4.848  1.00172.41     0.151 C 
BRANCH  27  28
HETATM   28  CAM   D T 445       7.670   0.908  -5.488  1.00172.95     0.068 C 
BRANCH  28  29
HETATM   29  CAC   D T 445       7.448   0.168  -6.809  1.00176.18     0.253 C 
BRANCH  29  30
HETATM   30  NBH   D T 445       7.011   1.163  -7.796  1.00176.27     0.141 N 
HETATM   31  CAP   D T 445       6.968   2.522  -7.246  1.00179.63     0.285 C 
HETATM   32  CAR   D T 445       6.461   3.545  -8.245  1.00181.97     0.285 C 
HETATM   33  NBI   D T 445       5.203   3.155  -8.830  1.00180.77     0.143 N 
HETATM   34  CAO   D T 445       4.763   4.126  -9.835  1.00184.53     0.285 C 
HETATM   35  CAS   D T 445       5.315   1.827  -9.361  1.00176.33     0.285 C 
HETATM   36  CAQ   D T 445       5.748   0.791  -8.349  1.00174.56     0.285 C 
ENDBRANCH  29  30
ENDBRANCH  28  29
ENDBRANCH  27  28
ENDBRANCH  26  27
ENDBRANCH   9  26
TORSDOF 9
ENDMDL
MODEL 6
REMARK VINA RESULT:    -7.081      8.569     12.156
REMARK INTER + INTRA:         -12.341
REMARK INTER:                 -11.056
REMARK INTRA:                  -1.284
REMARK UNBOUND:                -1.534
REMARK  9 active torsions:
REMARK  status: ('A' for Active; 'I' for Inactive)
REMARK    1  A    between atoms: O02_2  and  CAX_24 
REMARK    2  A    between atoms: CAC_3  and  CAM_13 
REMARK    3  A    between atoms: CAC_3  and  NBH_34 
REMARK    4  A    between atoms: CAM_13  and  CAN_14 
REMARK    5  A    between atoms: CAN_14  and  OAW_23 
REMARK    6  A    between atoms: NAU_21  and  CBB_28 
REMARK    7  A    between atoms: NAU_21  and  CBE_31 
REMARK    8  A    between atoms: OAV_22  and  CBC_29 
REMARK    9  A    between atoms: OAW_23  and  CBD_30 
ROOT
HETATM    1  NAD   D T 445       7.220  17.339   2.206  1.00172.85    -0.191 NA
HETATM    2  CAG   D T 445       7.534  16.428   1.781  1.00172.72     0.104 C 
HETATM    3  CAH   D T 445       8.919  14.252   1.729  1.00173.65     0.111 A 
HETATM    4  CAK   D T 445       9.356  11.266  -0.473  1.00175.08     0.045 A 
HETATM    5  CAL   D T 445       7.428  12.731  -1.905  1.00173.14     0.029 A 
HETATM    6  NAT   D T 445       9.354  13.038   1.203  1.00174.21    -0.243 NA
HETATM    7  CBA   D T 445       7.973  15.076   1.128  1.00172.91     0.105 A 
HETATM    8  CBC   D T 445       7.881  11.508  -2.409  1.00173.92     0.116 A 
HETATM    9  CBD   D T 445       8.863  10.750  -1.700  1.00174.94     0.118 A 
HETATM   10  CBE   D T 445       7.425  14.615  -0.084  1.00172.61     0.094 A 
HETATM   11  CBF   D T 445       8.858  12.550   0.017  1.00174.22     0.085 A 
HETATM   12  CBG   D T 445       7.895  13.322  -0.658  1.00173.34     0.038 A 
ENDROOT
BRANCH  10  13
HETATM   13  NAU   D T 445       6.415  15.469  -0.817  1.00171.92    -0.244 NA
BRANCH  13  14
HETATM   14  CBB   D T 445       6.527  16.563  -1.798  1.00169.02     0.094 A 
HETATM   15  CAJ   D T 445       7.431  16.656  -2.830  1.00169.48     0.045 A 
HETATM   16  CAX   D T 445       7.451  17.769  -3.807  1.00166.40     0.106 A 
HETATM   17  CAY   D T 445       6.490  18.764  -3.704  1.00162.90     0.081 A 
HETATM   18 CL1    D T 445       6.404  20.092  -4.809  1.00167.07    -0.080 Cl
HETATM   19  CAI   D T 445       5.546  18.668  -2.671  1.00162.68     0.026 A 
HETATM   20  CAZ   D T 445       5.538  17.609  -1.742  1.00165.75     0.076 A 
HETATM   21 CL2    D T 445       4.324  17.638  -0.537  1.00297.59    -0.081 Cl
BRANCH  16  22
HETATM   22  O02   D T 445       8.399  17.830  -4.817  1.00167.55    -0.327 OA
HETATM   23  C01   D T 445       9.677  18.517  -4.719  1.00  7.55     0.181 C 
ENDBRANCH  16  22
ENDBRANCH  13  14
ENDBRANCH  10  13
BRANCH   8  24
HETATM   24  OAV   D T 445       7.262  11.091  -3.617  1.00174.06    -0.326 OA
HETATM   25  CAA   D T 445       5.984  11.529  -3.903  1.00171.51     0.181 C 
ENDBRANCH   8  24
BRANCH   9  26
HETATM   26  OAW   D T 445       9.247   9.387  -2.170  1.00176.22    -0.329 OA
BRANCH  26  27
HETATM   27  CAN   D T 445       9.967   8.581  -1.310  1.00172.41     0.151 C 
BRANCH  27  28
HETATM   28  CAM   D T 445      10.138   7.230  -2.004  1.00172.95     0.068 C 
BRANCH  28  29
HETATM   29  CAC   D T 445       9.276   6.169  -1.315  1.00176.18     0.253 C 
BRANCH  29  30
HETATM   30  NBH   D T 445       9.239   4.999  -2.200  1.00176.27     0.141 N 
HETATM   31  CAP   D T 445       9.872   3.819  -1.603  1.00179.63     0.285 C 
HETATM   32  CAR   D T 445       9.888   2.624  -2.537  1.00181.97     0.285 C 
HETATM   33  NBI   D T 445      10.450   2.948  -3.824  1.00180.77     0.143 N 
HETATM   34  CAO   D T 445      10.399   1.797  -4.729  1.00184.53     0.285 C 
HETATM   35  CAS   D T 445       9.781   4.098  -4.360  1.00176.33     0.285 C 
HETATM   36  CAQ   D T 445       9.826   5.314  -3.464  1.00174.56     0.285 C 
ENDBRANCH  29  30
ENDBRANCH  28  29
ENDBRANCH  27  28
ENDBRANCH  26  27
ENDBRANCH   9  26
TORSDOF 9
ENDMDL
MODEL 7
REMARK VINA RESULT:    -7.076      3.887      8.683
REMARK INTER + INTRA:         -12.334
REMARK INTER:                 -10.824
REMARK INTRA:                  -1.510
REMARK UNBOUND:                -1.534
REMARK  9 active torsions:
REMARK  status: ('A' for Active; 'I' for Inactive)
REMARK    1  A    between atoms: O02_2  and  CAX_24 
REMARK    2  A    between atoms: CAC_3  and  CAM_13 
REMARK    3  A    between atoms: CAC_3  and  NBH_34 
REMARK    4  A    between atoms: CAM_13  and  CAN_14 
REMARK    5  A    between atoms: CAN_14  and  OAW_23 
REMARK    6  A    between atoms: NAU_21  and  CBB_28 
REMARK    7  A    between atoms: NAU_21  and  CBE_31 
REMARK    8  A    between atoms: OAV_22  and  CBC_29 
REMARK    9  A    between atoms: OAW_23  and  CBD_30 
ROOT
HETATM    1  NAD   D T 445      10.799   0.486  -4.812  1.00172.85    -0.191 NA
HETATM    2  CAG   D T 445      10.571   1.128  -4.009  1.00172.72     0.104 C 
HETATM    3  CAH   D T 445       9.347   3.113  -2.904  1.00173.65     0.111 A 
HETATM    4  CAK   D T 445       9.166   4.781   0.434  1.00175.08     0.045 A 
HETATM    5  CAL   D T 445      11.025   2.730   0.941  1.00173.14     0.029 A 
HETATM    6  NAT   D T 445       9.014   3.977  -1.864  1.00174.21    -0.243 NA
HETATM    7  CBA   D T 445      10.248   2.059  -2.793  1.00172.91     0.105 A 
HETATM    8  CBC   D T 445      10.671   3.610   1.967  1.00173.92     0.116 A 
HETATM    9  CBD   D T 445       9.733   4.662   1.731  1.00174.94     0.118 A 
HETATM   10  CBE   D T 445      10.833   1.869  -1.527  1.00172.61     0.094 A 
HETATM   11  CBF   D T 445       9.566   3.841  -0.612  1.00174.22     0.085 A 
HETATM   12  CBG   D T 445      10.489   2.797  -0.412  1.00173.34     0.038 A 
ENDROOT
BRANCH  10  13
HETATM   13  NAU   D T 445      11.848   0.764  -1.333  1.00171.92    -0.244 NA
BRANCH  13  14
HETATM   14  CBB   D T 445      11.811  -0.545  -0.659  1.00169.02     0.094 A 
HETATM   15  CAJ   D T 445      11.315  -0.814   0.596  1.00169.48     0.045 A 
HETATM   16  CAX   D T 445      11.270  -2.171   1.188  1.00166.40     0.106 A 
HETATM   17  CAY   D T 445      11.724  -3.243   0.434  1.00162.90     0.081 A 
HETATM   18 CL1    D T 445      11.690  -4.871   1.018  1.00167.07    -0.080 Cl
HETATM   19  CAI   D T 445      12.209  -2.987  -0.856  1.00162.68     0.026 A 
HETATM   20  CAZ   D T 445      12.253  -1.692  -1.410  1.00165.75     0.076 A 
HETATM   21 CL2    D T 445      12.879  -1.542  -2.996  1.00297.59    -0.081 Cl
BRANCH  16  22
HETATM   22  O02   D T 445      10.782  -2.387   2.468  1.00167.55    -0.327 OA
HETATM   23  C01   D T 445      10.733  -1.385   3.521  1.00  7.55     0.181 C 
ENDBRANCH  16  22
ENDBRANCH  13  14
ENDBRANCH  10  13
BRANCH   8  24
HETATM   24  OAV   D T 445      11.274   3.339   3.224  1.00174.06    -0.326 OA
HETATM   25  CAA   D T 445      11.863   2.109   3.436  1.00171.51     0.181 C 
ENDBRANCH   8  24
BRANCH   9  26
HETATM   26  OAW   D T 445       9.257   5.517   2.857  1.00176.22    -0.329 OA
BRANCH  26  27
HETATM   27  CAN   D T 445      10.087   6.526   3.305  1.00172.41     0.151 C 
BRANCH  27  28
HETATM   28  CAM   D T 445      10.215   7.535   2.165  1.00172.95     0.068 C 
BRANCH  28  29
HETATM   29  CAC   D T 445      11.563   8.255   2.247  1.00176.18     0.253 C 
BRANCH  29  30
HETATM   30  NBH   D T 445      12.375   7.786   1.117  1.00176.27     0.141 N 
HETATM   31  CAP   D T 445      13.805   8.049   1.301  1.00179.63     0.285 C 
HETATM   32  CAR   D T 445      14.641   7.619   0.111  1.00181.97     0.285 C 
HETATM   33  NBI   D T 445      14.143   8.165  -1.127  1.00180.77     0.143 N 
HETATM   34  CAO   D T 445      14.927   7.687  -2.269  1.00184.53     0.285 C 
HETATM   35  CAS   D T 445      12.747   7.862  -1.254  1.00176.33     0.285 C 
HETATM   36  CAQ   D T 445      11.899   8.355  -0.104  1.00174.56     0.285 C 
ENDBRANCH  29  30
ENDBRANCH  28  29
ENDBRANCH  27  28
ENDBRANCH  26  27
ENDBRANCH   9  26
TORSDOF 9
ENDMDL
MODEL 8
REMARK VINA RESULT:    -6.896      8.948     13.327
REMARK INTER + INTRA:         -12.059
REMARK INTER:                 -10.497
REMARK INTRA:                  -1.563
REMARK UNBOUND:                -1.534
REMARK  9 active torsions:
REMARK  status: ('A' for Active; 'I' for Inactive)
REMARK    1  A    between atoms: O02_2  and  CAX_24 
REMARK    2  A    between atoms: CAC_3  and  CAM_13 
REMARK    3  A    between atoms: CAC_3  and  NBH_34 
REMARK    4  A    between atoms: CAM_13  and  CAN_14 
REMARK    5  A    between atoms: CAN_14  and  OAW_23 
REMARK    6  A    between atoms: NAU_21  and  CBB_28 
REMARK    7  A    between atoms: NAU_21  and  CBE_31 
REMARK    8  A    between atoms: OAV_22  and  CBC_29 
REMARK    9  A    between atoms: OAW_23  and  CBD_30 
ROOT
HETATM    1  NAD   D T 445       7.580  17.089   2.160  1.00172.85    -0.191 NA
HETATM    2  CAG   D T 445       7.852  16.169   1.726  1.00172.72     0.104 C 
HETATM    3  CAH   D T 445       9.149  13.940   1.642  1.00173.65     0.111 A 
HETATM    4  CAK   D T 445       9.437  10.952  -0.582  1.00175.08     0.045 A 
HETATM    5  CAL   D T 445       7.548  12.501  -1.978  1.00173.14     0.029 A 
HETATM    6  NAT   D T 445       9.529  12.713   1.104  1.00174.21    -0.243 NA
HETATM    7  CBA   D T 445       8.228  14.804   1.059  1.00172.91     0.105 A 
HETATM    8  CBC   D T 445       7.945  11.264  -2.495  1.00173.92     0.116 A 
HETATM    9  CBD   D T 445       8.907  10.463  -1.805  1.00174.94     0.118 A 
HETATM   10  CBE   D T 445       7.645  14.373  -0.147  1.00172.61     0.094 A 
HETATM   11  CBF   D T 445       8.997  12.252  -0.077  1.00174.22     0.085 A 
HETATM   12  CBG   D T 445       8.055  13.066  -0.735  1.00173.34     0.038 A 
ENDROOT
BRANCH  10  13
HETATM   13  NAU   D T 445       6.659  15.270  -0.861  1.00171.92    -0.244 NA
BRANCH  13  14
HETATM   14  CBB   D T 445       6.776  16.568  -1.547  1.00169.02     0.094 A 
HETATM   15  CAJ   D T 445       7.891  17.072  -2.175  1.00169.48     0.045 A 
HETATM   16  CAX   D T 445       7.917  18.370  -2.887  1.00166.40     0.106 A 
HETATM   17  CAY   D T 445       6.749  19.116  -2.956  1.00162.90     0.081 A 
HETATM   18 CL1    D T 445       6.662  20.631  -3.787  1.00167.07    -0.080 Cl
HETATM   19  CAI   D T 445       5.598  18.603  -2.342  1.00162.68     0.026 A 
HETATM   20  CAZ   D T 445       5.584  17.369  -1.662  1.00165.75     0.076 A 
HETATM   21 CL2    D T 445       4.101  16.883  -0.959  1.00297.59    -0.081 Cl
BRANCH  16  22
HETATM   22  O02   D T 445       9.074  18.846  -3.486  1.00167.55    -0.327 OA
HETATM   23  C01   D T 445       9.492  18.545  -4.847  1.00  7.55     0.181 C 
ENDBRANCH  16  22
ENDBRANCH  13  14
ENDBRANCH  10  13
BRANCH   8  24
HETATM   24  OAV   D T 445       7.293  10.879  -3.696  1.00174.06    -0.326 OA
HETATM   25  CAA   D T 445       6.207  11.609  -4.135  1.00171.51     0.181 C 
ENDBRANCH   8  24
BRANCH   9  26
HETATM   26  OAW   D T 445       9.230   9.089  -2.287  1.00176.22    -0.329 OA
BRANCH  26  27
HETATM   27  CAN   D T 445       9.460   8.105  -1.345  1.00172.41     0.151 C 
BRANCH  27  28
HETATM   28  CAM   D T 445      10.781   7.434  -1.716  1.00172.95     0.068 C 
BRANCH  28  29
HETATM   29  CAC   D T 445      11.738   7.456  -0.522  1.00176.18     0.253 C 
BRANCH  29  30
HETATM   30  NBH   D T 445      12.187   8.844  -0.352  1.00176.27     0.141 N 
HETATM   31  CAP   D T 445      13.444   9.121  -1.052  1.00179.63     0.285 C 
HETATM   32  CAR   D T 445      13.941  10.537  -0.832  1.00181.97     0.285 C 
HETATM   33  NBI   D T 445      14.013  10.875   0.568  1.00180.77     0.143 N 
HETATM   34  CAO   D T 445      14.435  12.265   0.755  1.00184.53     0.285 C 
HETATM   35  CAS   D T 445      12.751  10.596   1.191  1.00176.33     0.285 C 
HETATM   36  CAQ   D T 445      12.288   9.165   1.036  1.00174.56     0.285 C 
ENDBRANCH  29  30
ENDBRANCH  28  29
ENDBRANCH  27  28
ENDBRANCH  26  27
ENDBRANCH   9  26
TORSDOF 9
ENDMDL
MODEL 9
REMARK VINA RESULT:    -6.623      4.265      8.645
REMARK INTER + INTRA:         -11.642
REMARK INTER:                 -10.457
REMARK INTRA:                  -1.185
REMARK UNBOUND:                -1.534
REMARK  9 active torsions:
REMARK  status: ('A' for Active; 'I' for Inactive)
REMARK    1  A    between atoms: O02_2  and  CAX_24 
REMARK    2  A    between atoms: CAC_3  and  CAM_13 
REMARK    3  A    between atoms: CAC_3  and  NBH_34 
REMARK    4  A    between atoms: CAM_13  and  CAN_14 
REMARK    5  A    between atoms: CAN_14  and  OAW_23 
REMARK    6  A    between atoms: NAU_21  and  CBB_28 
REMARK    7  A    between atoms: NAU_21  and  CBE_31 
REMARK    8  A    between atoms: OAV_22  and  CBC_29 
REMARK    9  A    between atoms: OAW_23  and  CBD_30 
ROOT
HETATM    1  NAD   D T 445      11.952   1.714   3.867  1.00172.85    -0.191 NA
HETATM    2  CAG   D T 445      11.755   1.650   2.834  1.00172.72     0.104 C 
HETATM    3  CAH   D T 445      11.753   0.457   0.546  1.00173.65     0.111 A 
HETATM    4  CAK   D T 445      10.662   1.137  -2.962  1.00175.08     0.045 A 
HETATM    5  CAL   D T 445       9.927   3.531  -1.681  1.00173.14     0.029 A 
HETATM    6  NAT   D T 445      11.501   0.331  -0.817  1.00174.21    -0.243 NA
HETATM    7  CBA   D T 445      11.441   1.582   1.303  1.00172.91     0.105 A 
HETATM    8  CBC   D T 445       9.683   3.377  -3.049  1.00173.92     0.116 A 
HETATM    9  CBD   D T 445      10.054   2.171  -3.721  1.00174.94     0.118 A 
HETATM   10  CBE   D T 445      10.814   2.640   0.618  1.00172.61     0.094 A 
HETATM   11  CBF   D T 445      10.901   1.340  -1.534  1.00174.22     0.085 A 
HETATM   12  CBG   D T 445      10.553   2.516  -0.844  1.00173.34     0.038 A 
ENDROOT
BRANCH  10  13
HETATM   13  NAU   D T 445      10.474   3.912   1.363  1.00171.92    -0.244 NA
BRANCH  13  14
HETATM   14  CBB   D T 445      11.065   5.260   1.398  1.00169.02     0.094 A 
HETATM   15  CAJ   D T 445      11.959   5.793   0.498  1.00169.48     0.045 A 
HETATM   16  CAX   D T 445      12.474   7.180   0.575  1.00166.40     0.106 A 
HETATM   17  CAY   D T 445      12.015   8.007   1.590  1.00162.90     0.081 A 
HETATM   18 CL1    D T 445      12.529   9.651   1.754  1.00167.07    -0.080 Cl
HETATM   19  CAI   D T 445      11.084   7.484   2.499  1.00162.68     0.026 A 
HETATM   20  CAZ   D T 445      10.603   6.162   2.422  1.00165.75     0.076 A 
HETATM   21 CL2    D T 445       9.474   5.672   3.611  1.00297.59    -0.081 Cl
BRANCH  16  22
HETATM   22  O02   D T 445      13.393   7.664  -0.344  1.00167.55    -0.327 OA
HETATM   23  C01   D T 445      14.305   6.839  -1.123  1.00  7.55     0.181 C 
ENDBRANCH  16  22
ENDBRANCH  13  14
ENDBRANCH  10  13
BRANCH   8  24
HETATM   24  OAV   D T 445       9.020   4.470  -3.666  1.00174.06    -0.326 OA
HETATM   25  CAA   D T 445       9.653   5.151  -4.686  1.00171.51     0.181 C 
ENDBRANCH   8  24
BRANCH   9  26
HETATM   26  OAW   D T 445       9.675   1.956  -5.147  1.00176.22    -0.329 OA
BRANCH  26  27
HETATM   27  CAN   D T 445       9.325   0.680  -5.543  1.00172.41     0.151 C 
BRANCH  27  28
HETATM   28  CAM   D T 445       7.806   0.665  -5.708  1.00172.95     0.068 C 
BRANCH  28  29
HETATM   29  CAC   D T 445       7.435   0.327  -7.154  1.00176.18     0.253 C 
BRANCH  29  30
HETATM   30  NBH   D T 445       6.448   1.321  -7.593  1.00176.27     0.141 N 
HETATM   31  CAP   D T 445       5.975   1.082  -8.959  1.00179.63     0.285 C 
HETATM   32  CAR   D T 445       4.999   2.140  -9.438  1.00181.97     0.285 C 
HETATM   33  NBI   D T 445       5.518   3.474  -9.269  1.00180.77     0.143 N 
HETATM   34  CAO   D T 445       4.536   4.481  -9.678  1.00184.53     0.285 C 
HETATM   35  CAS   D T 445       5.950   3.649  -7.911  1.00176.33     0.285 C 
HETATM   36  CAQ   D T 445       6.979   2.640  -7.454  1.00174.56     0.285 C 
ENDBRANCH  29  30
ENDBRANCH  28  29
ENDBRANCH  27  28
ENDBRANCH  26  27
ENDBRANCH   9  26
TORSDOF 9
ENDMDL
