MODEL 1
REMARK VINA RESULT:    -8.212      0.000      0.000
REMARK INTER + INTRA:         -13.155
REMARK INTER:                 -12.053
REMARK INTRA:                  -1.102
REMARK UNBOUND:                -1.102
REMARK  8 active torsions:
REMARK  status: ('A' for Active; 'I' for Inactive)
REMARK    1  A    between atoms: C20_8  and  C12_12 
REMARK    2  A    between atoms: C22_10  and  C19_16 
REMARK       I    between atoms: C22_10  and  N25_19 
REMARK    3  A    between atoms: C12_12  and  C18_15 
REMARK    4  A    between atoms: N25_19  and  C37_23 
REMARK    5  A    between atoms: C37_23  and  C38_24 
REMARK    6  A    between atoms: C38_24  and  N4_25 
REMARK    7  A    between atoms: N4_25  and  C39_26 
REMARK    8  A    between atoms: N4_25  and  C40_27 
ROOT
HETATM    1  C4    D T 299       3.255   1.808  13.228  1.00 31.87     0.052 C 
HETATM    2  C13   D T 299       0.651   3.817  11.390  1.00 35.43    -0.002 A 
HETATM    3  C3    D T 299       0.047   4.580  10.240  1.00 37.61     0.033 C 
HETATM    4  C14   D T 299       2.049   2.600  12.710  1.00 34.64     0.063 A 
HETATM    5  C18   D T 299       0.040   3.602  12.634  1.00 34.31     0.059 A 
HETATM    6  C19   D T 299       1.903   3.188  11.413  1.00 36.11     0.068 A 
HETATM    7  N23   D T 299       0.909   2.861  13.430  1.00 32.82    -0.254 NA
ENDROOT
BRANCH   5   8
HETATM    8  C12   D T 299      -1.336   4.150  12.982  1.00 31.34     0.075 C 
BRANCH   8   9
HETATM    9  C20   D T 299      -2.601   3.423  12.477  1.00 27.84     0.029 A 
HETATM   10  C17   D T 299      -3.070   2.231  13.152  1.00 29.49     0.020 A 
HETATM   11  C7    D T 299      -2.561   1.556  14.271  1.00 33.30     0.031 A 
HETATM   12  C16   D T 299      -4.196   1.800  12.512  1.00 26.85     0.084 A 
HETATM   13  C15   D T 299      -3.209   0.401  14.746  1.00 30.79     0.140 A 
HETATM   14  C5    D T 299      -4.363  -0.064  14.110  1.00 28.60     0.031 A 
HETATM   15  F29   D T 299      -2.692  -0.215  15.795  1.00 28.40    -0.204 F 
HETATM   16  C6    D T 299      -4.868   0.625  12.992  1.00 25.34     0.021 A 
HETATM   17  N24   D T 299      -4.443   2.709  11.436  1.00 26.35    -0.220 NA
HETATM   18  C21   D T 299      -3.481   3.682  11.411  1.00 26.17     0.209 A 
HETATM   19  O27   D T 299      -3.412   4.718  10.502  1.00 26.42    -0.170 OA
ENDBRANCH   8   9
ENDBRANCH   5   8
BRANCH   6  20
HETATM   20  C22   D T 299       2.929   3.183  10.254  1.00 37.52     0.276 C 
HETATM   21  N25   D T 299       3.684   4.394   9.933  1.00 36.66    -0.232 NA
HETATM   22  O28   D T 299       3.126   2.130   9.592  1.00 36.30    -0.266 OA
BRANCH  21  23
HETATM   23  C37   D T 299       4.637   4.376   8.868  1.00 41.76     0.164 C 
BRANCH  23  24
HETATM   24  C38   D T 299       4.369   5.151   7.600  1.00 43.50     0.276 C 
BRANCH  24  25
HETATM   25  N4    D T 299       5.345   5.102   6.507  1.00 42.38     0.139 N 
BRANCH  25  26
HETATM   26  C39   D T 299       6.548   5.809   6.849  1.00 41.85     0.250 C 
HETATM   27  C42   D T 299       6.626   7.283   6.625  1.00 47.83     0.037 C 
ENDBRANCH  25  26
BRANCH  25  28
HETATM   28  C40   D T 299       5.643   3.751   6.156  1.00 35.07     0.250 C 
HETATM   29  C41   D T 299       7.082   3.260   6.334  1.00 41.01     0.037 C 
ENDBRANCH  25  28
ENDBRANCH  24  25
ENDBRANCH  23  24
ENDBRANCH  21  23
ENDBRANCH   6  20
TORSDOF 8
ENDMDL
MODEL 2
REMARK VINA RESULT:    -7.692      2.886      4.239
REMARK INTER + INTRA:         -12.391
REMARK INTER:                 -10.911
REMARK INTRA:                  -1.480
REMARK UNBOUND:                -1.102
REMARK  8 active torsions:
REMARK  status: ('A' for Active; 'I' for Inactive)
REMARK    1  A    between atoms: C20_8  and  C12_12 
REMARK    2  A    between atoms: C22_10  and  C19_16 
REMARK       I    between atoms: C22_10  and  N25_19 
REMARK    3  A    between atoms: C12_12  and  C18_15 
REMARK    4  A    between atoms: N25_19  and  C37_23 
REMARK    5  A    between atoms: C37_23  and  C38_24 
REMARK    6  A    between atoms: C38_24  and  N4_25 
REMARK    7  A    between atoms: N4_25  and  C39_26 
REMARK    8  A    between atoms: N4_25  and  C40_27 
ROOT
HETATM    1  C4    D T 299       2.804   2.447   9.891  1.00 31.87     0.052 C 
HETATM    2  C13   D T 299       1.135   2.552  13.267  1.00 35.43    -0.002 A 
HETATM    3  C3    D T 299       0.967   2.276  14.738  1.00 37.61     0.033 C 
HETATM    4  C14   D T 299       1.931   2.634  11.137  1.00 34.64     0.063 A 
HETATM    5  C18   D T 299       0.234   3.268  12.465  1.00 34.31     0.059 A 
HETATM    6  C19   D T 299       2.208   2.157  12.458  1.00 36.11     0.068 A 
HETATM    7  N23   D T 299       0.733   3.305  11.166  1.00 32.82    -0.254 NA
ENDROOT
BRANCH   5   8
HETATM    8  C12   D T 299      -1.066   3.849  13.002  1.00 31.34     0.075 C 
BRANCH   8   9
HETATM    9  C20   D T 299      -2.418   3.281  12.521  1.00 27.84     0.029 A 
HETATM   10  C17   D T 299      -3.017   2.156  13.207  1.00 29.49     0.020 A 
HETATM   11  C7    D T 299      -2.575   1.425  14.319  1.00 33.30     0.031 A 
HETATM   12  C16   D T 299      -4.197   1.864  12.587  1.00 26.85     0.084 A 
HETATM   13  C15   D T 299      -3.349   0.357  14.808  1.00 30.79     0.140 A 
HETATM   14  C5    D T 299      -4.562   0.036  14.193  1.00 28.60     0.031 A 
HETATM   15  F29   D T 299      -2.893  -0.316  15.851  1.00 28.40    -0.204 F 
HETATM   16  C6    D T 299      -4.999   0.780  13.082  1.00 25.34     0.021 A 
HETATM   17  N24   D T 299      -4.351   2.795  11.514  1.00 26.35    -0.220 NA
HETATM   18  C21   D T 299      -3.278   3.644  11.470  1.00 26.17     0.209 A 
HETATM   19  O27   D T 299      -3.099   4.664  10.557  1.00 26.42    -0.170 OA
ENDBRANCH   8   9
ENDBRANCH   5   8
BRANCH   6  20
HETATM   20  C22   D T 299       3.429   1.327  12.924  1.00 37.52     0.276 C 
HETATM   21  N25   D T 299       3.341  -0.131  13.005  1.00 36.66    -0.232 NA
HETATM   22  O28   D T 299       4.507   1.906  13.223  1.00 36.30    -0.266 OA
BRANCH  21  23
HETATM   23  C37   D T 299       4.477  -0.888  13.426  1.00 41.76     0.164 C 
BRANCH  23  24
HETATM   24  C38   D T 299       5.222  -1.749  12.434  1.00 43.50     0.276 C 
BRANCH  24  25
HETATM   25  N4    D T 299       5.422  -1.261  11.065  1.00 42.38     0.139 N 
BRANCH  25  26
HETATM   26  C39   D T 299       6.521  -0.339  10.996  1.00 41.85     0.250 C 
HETATM   27  C42   D T 299       6.302   1.031  10.445  1.00 47.83     0.037 C 
ENDBRANCH  25  26
BRANCH  25  28
HETATM   28  C40   D T 299       5.624  -2.349  10.165  1.00 35.07     0.250 C 
HETATM   29  C41   D T 299       6.290  -3.618  10.705  1.00 41.01     0.037 C 
ENDBRANCH  25  28
ENDBRANCH  24  25
ENDBRANCH  23  24
ENDBRANCH  21  23
ENDBRANCH   6  20
TORSDOF 8
ENDMDL
MODEL 3
REMARK VINA RESULT:    -7.651      1.530      1.947
REMARK INTER + INTRA:         -12.332
REMARK INTER:                 -11.210
REMARK INTRA:                  -1.121
REMARK UNBOUND:                -1.102
REMARK  8 active torsions:
REMARK  status: ('A' for Active; 'I' for Inactive)
REMARK    1  A    between atoms: C20_8  and  C12_12 
REMARK    2  A    between atoms: C22_10  and  C19_16 
REMARK       I    between atoms: C22_10  and  N25_19 
REMARK    3  A    between atoms: C12_12  and  C18_15 
REMARK    4  A    between atoms: N25_19  and  C37_23 
REMARK    5  A    between atoms: C37_23  and  C38_24 
REMARK    6  A    between atoms: C38_24  and  N4_25 
REMARK    7  A    between atoms: N4_25  and  C39_26 
REMARK    8  A    between atoms: N4_25  and  C40_27 
ROOT
HETATM    1  C4    D T 299       2.851   0.368  12.674  1.00 31.87     0.052 C 
HETATM    2  C13   D T 299       0.898   3.427  11.666  1.00 35.43    -0.002 A 
HETATM    3  C3    D T 299       0.587   4.678  10.885  1.00 37.61     0.033 C 
HETATM    4  C14   D T 299       1.880   1.535  12.458  1.00 34.64     0.063 A 
HETATM    5  C18   D T 299       0.109   2.895  12.697  1.00 34.31     0.059 A 
HETATM    6  C19   D T 299       2.004   2.585  11.494  1.00 36.11     0.068 A 
HETATM    7  N23   D T 299       0.726   1.742  13.173  1.00 32.82    -0.254 NA
ENDROOT
BRANCH   5   8
HETATM    8  C12   D T 299      -1.179   3.551  13.171  1.00 31.34     0.075 C 
BRANCH   8   9
HETATM    9  C20   D T 299      -2.540   3.018  12.674  1.00 27.84     0.029 A 
HETATM   10  C17   D T 299      -3.139   1.860  13.303  1.00 29.49     0.020 A 
HETATM   11  C7    D T 299      -2.691   1.067  14.369  1.00 33.30     0.031 A 
HETATM   12  C16   D T 299      -4.328   1.611  12.680  1.00 26.85     0.084 A 
HETATM   13  C15   D T 299      -3.468  -0.022  14.807  1.00 30.79     0.140 A 
HETATM   14  C5    D T 299      -4.689  -0.301  14.187  1.00 28.60     0.031 A 
HETATM   15  F29   D T 299      -3.006  -0.754  15.806  1.00 28.40    -0.204 F 
HETATM   16  C6    D T 299      -5.132   0.506  13.124  1.00 25.34     0.021 A 
HETATM   17  N24   D T 299      -4.486   2.600  11.661  1.00 26.35    -0.220 NA
HETATM   18  C21   D T 299      -3.408   3.444  11.653  1.00 26.17     0.209 A 
HETATM   19  O27   D T 299      -3.231   4.511  10.795  1.00 26.42    -0.170 OA
ENDBRANCH   8   9
ENDBRANCH   5   8
BRANCH   6  20
HETATM   20  C22   D T 299       3.147   2.799  10.473  1.00 37.52     0.276 C 
HETATM   21  N25   D T 299       4.242   3.722  10.775  1.00 36.66    -0.232 NA
HETATM   22  O28   D T 299       3.145   2.167   9.383  1.00 36.30    -0.266 OA
BRANCH  21  23
HETATM   23  C37   D T 299       5.298   3.904   9.830  1.00 41.76     0.164 C 
BRANCH  23  24
HETATM   24  C38   D T 299       6.594   3.145   9.989  1.00 43.50     0.276 C 
BRANCH  24  25
HETATM   25  N4    D T 299       7.071   2.298   8.891  1.00 42.38     0.139 N 
BRANCH  25  26
HETATM   26  C39   D T 299       7.462   3.086   7.756  1.00 41.85     0.250 C 
HETATM   27  C42   D T 299       6.827   2.835   6.428  1.00 47.83     0.037 C 
ENDBRANCH  25  26
BRANCH  25  28
HETATM   28  C40   D T 299       8.152   1.472   9.323  1.00 35.07     0.250 C 
HETATM   29  C41   D T 299       9.580   1.977   9.097  1.00 41.01     0.037 C 
ENDBRANCH  25  28
ENDBRANCH  24  25
ENDBRANCH  23  24
ENDBRANCH  21  23
ENDBRANCH   6  20
TORSDOF 8
ENDMDL
MODEL 4
REMARK VINA RESULT:    -7.612      1.928      2.727
REMARK INTER + INTRA:         -12.274
REMARK INTER:                 -10.924
REMARK INTRA:                  -1.350
REMARK UNBOUND:                -1.102
REMARK  8 active torsions:
REMARK  status: ('A' for Active; 'I' for Inactive)
REMARK    1  A    between atoms: C20_8  and  C12_12 
REMARK    2  A    between atoms: C22_10  and  C19_16 
REMARK       I    between atoms: C22_10  and  N25_19 
REMARK    3  A    between atoms: C12_12  and  C18_15 
REMARK    4  A    between atoms: N25_19  and  C37_23 
REMARK    5  A    between atoms: C37_23  and  C38_24 
REMARK    6  A    between atoms: C38_24  and  N4_25 
REMARK    7  A    between atoms: N4_25  and  C39_26 
REMARK    8  A    between atoms: N4_25  and  C40_27 
ROOT
HETATM    1  C4    D T 299       2.478   4.446   9.900  1.00 31.87     0.052 C 
HETATM    2  C13   D T 299       0.976   2.263  12.578  1.00 35.43    -0.002 A 
HETATM    3  C3    D T 299       0.868   1.075  13.499  1.00 37.61     0.033 C 
HETATM    4  C14   D T 299       1.672   3.749  11.003  1.00 34.64     0.063 A 
HETATM    5  C18   D T 299       0.064   3.327  12.513  1.00 34.31     0.059 A 
HETATM    6  C19   D T 299       1.994   2.514  11.650  1.00 36.11     0.068 A 
HETATM    7  N23   D T 299       0.502   4.223  11.542  1.00 32.82    -0.254 NA
ENDROOT
BRANCH   5   8
HETATM    8  C12   D T 299      -1.187   3.395  13.377  1.00 31.34     0.075 C 
BRANCH   8   9
HETATM    9  C20   D T 299      -2.525   2.849  12.835  1.00 27.84     0.029 A 
HETATM   10  C17   D T 299      -3.138   1.691  13.450  1.00 29.49     0.020 A 
HETATM   11  C7    D T 299      -2.723   0.907  14.536  1.00 33.30     0.031 A 
HETATM   12  C16   D T 299      -4.302   1.429  12.786  1.00 26.85     0.084 A 
HETATM   13  C15   D T 299      -3.508  -0.184  14.953  1.00 30.79     0.140 A 
HETATM   14  C5    D T 299      -4.704  -0.476  14.292  1.00 28.60     0.031 A 
HETATM   15  F29   D T 299      -3.077  -0.906  15.972  1.00 28.40    -0.204 F 
HETATM   16  C6    D T 299      -5.114   0.321  13.208  1.00 25.34     0.021 A 
HETATM   17  N24   D T 299      -4.431   2.411  11.756  1.00 26.35    -0.220 NA
HETATM   18  C21   D T 299      -3.359   3.262  11.780  1.00 26.17     0.209 A 
HETATM   19  O27   D T 299      -3.159   4.325  10.923  1.00 26.42    -0.170 OA
ENDBRANCH   8   9
ENDBRANCH   5   8
BRANCH   6  20
HETATM   20  C22   D T 299       3.206   1.591  11.372  1.00 37.52     0.276 C 
HETATM   21  N25   D T 299       4.493   1.850  12.016  1.00 36.66    -0.232 NA
HETATM   22  O28   D T 299       3.081   0.604  10.599  1.00 36.30    -0.266 OA
BRANCH  21  23
HETATM   23  C37   D T 299       5.601   0.985  11.761  1.00 41.76     0.164 C 
BRANCH  23  24
HETATM   24  C38   D T 299       6.799   1.496  10.995  1.00 43.50     0.276 C 
BRANCH  24  25
HETATM   25  N4    D T 299       6.715   1.637   9.538  1.00 42.38     0.139 N 
BRANCH  25  26
HETATM   26  C39   D T 299       6.481   3.003   9.159  1.00 41.85     0.250 C 
HETATM   27  C42   D T 299       5.382   3.325   8.200  1.00 47.83     0.037 C 
ENDBRANCH  25  26
BRANCH  25  28
HETATM   28  C40   D T 299       7.898   1.141   8.913  1.00 35.07     0.250 C 
HETATM   29  C41   D T 299       8.868   2.153   8.298  1.00 41.01     0.037 C 
ENDBRANCH  25  28
ENDBRANCH  24  25
ENDBRANCH  23  24
ENDBRANCH  21  23
ENDBRANCH   6  20
TORSDOF 8
ENDMDL
MODEL 5
REMARK VINA RESULT:    -7.572      5.104     10.451
REMARK INTER + INTRA:         -12.215
REMARK INTER:                 -11.116
REMARK INTRA:                  -1.100
REMARK UNBOUND:                -1.102
REMARK  8 active torsions:
REMARK  status: ('A' for Active; 'I' for Inactive)
REMARK    1  A    between atoms: C20_8  and  C12_12 
REMARK    2  A    between atoms: C22_10  and  C19_16 
REMARK       I    between atoms: C22_10  and  N25_19 
REMARK    3  A    between atoms: C12_12  and  C18_15 
REMARK    4  A    between atoms: N25_19  and  C37_23 
REMARK    5  A    between atoms: C37_23  and  C38_24 
REMARK    6  A    between atoms: C38_24  and  N4_25 
REMARK    7  A    between atoms: N4_25  and  C39_26 
REMARK    8  A    between atoms: N4_25  and  C40_27 
ROOT
HETATM    1  C4    D T 299      -4.155  -0.785  15.098  1.00 31.87     0.052 C 
HETATM    2  C13   D T 299      -0.432  -0.373  14.697  1.00 35.43    -0.002 A 
HETATM    3  C3    D T 299       1.013  -0.799  14.652  1.00 37.61     0.033 C 
HETATM    4  C14   D T 299      -2.698  -0.354  14.889  1.00 34.64     0.063 A 
HETATM    5  C18   D T 299      -0.901   0.933  14.493  1.00 34.31     0.059 A 
HETATM    6  C19   D T 299      -1.541  -1.194  14.935  1.00 36.11     0.068 A 
HETATM    7  N23   D T 299      -2.288   0.928  14.618  1.00 32.82    -0.254 NA
ENDROOT
BRANCH   5   8
HETATM    8  C12   D T 299       0.025   2.108  14.214  1.00 31.34     0.075 C 
BRANCH   8   9
HETATM    9  C20   D T 299       0.323   2.521  12.757  1.00 27.84     0.029 A 
HETATM   10  C17   D T 299      -0.536   3.472  12.083  1.00 29.49     0.020 A 
HETATM   11  C7    D T 299      -1.676   4.152  12.535  1.00 33.30     0.031 A 
HETATM   12  C16   D T 299      -0.047   3.661  10.823  1.00 26.85     0.084 A 
HETATM   13  C15   D T 299      -2.347   5.042  11.677  1.00 30.79     0.140 A 
HETATM   14  C5    D T 299      -1.869   5.256  10.381  1.00 28.60     0.031 A 
HETATM   15  F29   D T 299      -3.425   5.655  12.135  1.00 28.40    -0.204 F 
HETATM   16  C6    D T 299      -0.721   4.573   9.940  1.00 25.34     0.021 A 
HETATM   17  N24   D T 299       1.114   2.838  10.693  1.00 26.35    -0.220 NA
HETATM   18  C21   D T 299       1.333   2.147  11.854  1.00 26.17     0.209 A 
HETATM   19  O27   D T 299       2.366   1.258  12.075  1.00 26.42    -0.170 OA
ENDBRANCH   8   9
ENDBRANCH   5   8
BRANCH   6  20
HETATM   20  C22   D T 299      -1.489  -2.714  15.229  1.00 37.52     0.276 C 
HETATM   21  N25   D T 299      -1.457  -3.197  16.609  1.00 36.66    -0.232 NA
HETATM   22  O28   D T 299      -1.488  -3.539  14.277  1.00 36.30    -0.266 OA
BRANCH  21  23
HETATM   23  C37   D T 299      -1.420  -4.601  16.869  1.00 41.76     0.164 C 
BRANCH  23  24
HETATM   24  C38   D T 299      -2.658  -5.312  17.363  1.00 43.50     0.276 C 
BRANCH  24  25
HETATM   25  N4    D T 299      -2.520  -6.420  18.313  1.00 42.38     0.139 N 
BRANCH  25  26
HETATM   26  C39   D T 299      -3.779  -7.077  18.534  1.00 41.85     0.250 C 
HETATM   27  C42   D T 299      -5.043  -6.419  18.090  1.00 47.83     0.037 C 
ENDBRANCH  25  26
BRANCH  25  28
HETATM   28  C40   D T 299      -1.541  -7.355  17.860  1.00 35.07     0.250 C 
HETATM   29  C41   D T 299      -2.006  -8.771  17.507  1.00 41.01     0.037 C 
ENDBRANCH  25  28
ENDBRANCH  24  25
ENDBRANCH  23  24
ENDBRANCH  21  23
ENDBRANCH   6  20
TORSDOF 8
ENDMDL
MODEL 6
REMARK VINA RESULT:    -7.326      2.797      3.555
REMARK INTER + INTRA:         -11.854
REMARK INTER:                 -10.741
REMARK INTRA:                  -1.113
REMARK UNBOUND:                -1.102
REMARK  8 active torsions:
REMARK  status: ('A' for Active; 'I' for Inactive)
REMARK    1  A    between atoms: C20_8  and  C12_12 
REMARK    2  A    between atoms: C22_10  and  C19_16 
REMARK       I    between atoms: C22_10  and  N25_19 
REMARK    3  A    between atoms: C12_12  and  C18_15 
REMARK    4  A    between atoms: N25_19  and  C37_23 
REMARK    5  A    between atoms: C37_23  and  C38_24 
REMARK    6  A    between atoms: C38_24  and  N4_25 
REMARK    7  A    between atoms: N4_25  and  C39_26 
REMARK    8  A    between atoms: N4_25  and  C40_27 
ROOT
HETATM    1  C4    D T 299       3.872  -0.880  12.841  1.00 31.87     0.052 C 
HETATM    2  C13   D T 299       1.446   1.833  13.814  1.00 35.43    -0.002 A 
HETATM    3  C3    D T 299       0.833   3.209  13.813  1.00 37.61     0.033 C 
HETATM    4  C14   D T 299       2.771   0.032  13.396  1.00 34.64     0.063 A 
HETATM    5  C18   D T 299       0.994   0.742  14.571  1.00 34.31     0.059 A 
HETATM    6  C19   D T 299       2.550   1.406  13.064  1.00 36.11     0.068 A 
HETATM    7  N23   D T 299       1.817  -0.349  14.306  1.00 32.82    -0.254 NA
ENDROOT
BRANCH   5   8
HETATM    8  C12   D T 299      -0.192   0.832  15.520  1.00 31.34     0.075 C 
BRANCH   8   9
HETATM    9  C20   D T 299      -1.513   0.117  15.167  1.00 27.84     0.029 A 
HETATM   10  C17   D T 299      -2.475   0.759  14.295  1.00 29.49     0.020 A 
HETATM   11  C7    D T 299      -2.433   2.004  13.651  1.00 33.30     0.031 A 
HETATM   12  C16   D T 299      -3.537  -0.085  14.146  1.00 26.85     0.084 A 
HETATM   13  C15   D T 299      -3.509   2.409  12.840  1.00 30.79     0.140 A 
HETATM   14  C5    D T 299      -4.610   1.565  12.669  1.00 28.60     0.031 A 
HETATM   15  F29   D T 299      -3.438   3.594  12.259  1.00 28.40    -0.204 F 
HETATM   16  C6    D T 299      -4.638   0.316  13.315  1.00 25.34     0.021 A 
HETATM   17  N24   D T 299      -3.257  -1.256  14.916  1.00 26.35    -0.220 NA
HETATM   18  C21   D T 299      -2.043  -1.132  15.536  1.00 26.17     0.209 A 
HETATM   19  O27   D T 299      -1.463  -2.076  16.360  1.00 26.42    -0.170 OA
ENDBRANCH   8   9
ENDBRANCH   5   8
BRANCH   6  20
HETATM   20  C22   D T 299       3.377   2.290  12.099  1.00 37.52     0.276 C 
HETATM   21  N25   D T 299       2.887   2.566  10.749  1.00 36.66    -0.232 NA
HETATM   22  O28   D T 299       4.471   2.786  12.480  1.00 36.30    -0.266 OA
BRANCH  21  23
HETATM   23  C37   D T 299       3.653   3.391   9.870  1.00 41.76     0.164 C 
BRANCH  23  24
HETATM   24  C38   D T 299       4.762   2.788   9.041  1.00 43.50     0.276 C 
BRANCH  24  25
HETATM   25  N4    D T 299       5.570   3.657   8.179  1.00 42.38     0.139 N 
BRANCH  25  26
HETATM   26  C39   D T 299       6.143   4.744   8.924  1.00 41.85     0.250 C 
HETATM   27  C42   D T 299       6.141   6.119   8.342  1.00 47.83     0.037 C 
ENDBRANCH  25  26
BRANCH  25  28
HETATM   28  C40   D T 299       6.591   2.908   7.522  1.00 35.07     0.250 C 
HETATM   29  C41   D T 299       6.940   3.277   6.077  1.00 41.01     0.037 C 
ENDBRANCH  25  28
ENDBRANCH  24  25
ENDBRANCH  23  24
ENDBRANCH  21  23
ENDBRANCH   6  20
TORSDOF 8
ENDMDL
MODEL 7
REMARK VINA RESULT:    -7.183      4.308      9.252
REMARK INTER + INTRA:         -11.644
REMARK INTER:                 -10.529
REMARK INTRA:                  -1.115
REMARK UNBOUND:                -1.102
REMARK  8 active torsions:
REMARK  status: ('A' for Active; 'I' for Inactive)
REMARK    1  A    between atoms: C20_8  and  C12_12 
REMARK    2  A    between atoms: C22_10  and  C19_16 
REMARK       I    between atoms: C22_10  and  N25_19 
REMARK    3  A    between atoms: C12_12  and  C18_15 
REMARK    4  A    between atoms: N25_19  and  C37_23 
REMARK    5  A    between atoms: C37_23  and  C38_24 
REMARK    6  A    between atoms: C38_24  and  N4_25 
REMARK    7  A    between atoms: N4_25  and  C39_26 
REMARK    8  A    between atoms: N4_25  and  C40_27 
ROOT
HETATM    1  C4    D T 299      -5.362  -0.072  13.401  1.00 31.87     0.052 C 
HETATM    2  C13   D T 299      -1.990   1.281  14.398  1.00 35.43    -0.002 A 
HETATM    3  C3    D T 299      -0.610   1.255  15.002  1.00 37.61     0.033 C 
HETATM    4  C14   D T 299      -4.075   0.711  13.690  1.00 34.64     0.063 A 
HETATM    5  C18   D T 299      -2.583   2.387  13.771  1.00 34.31     0.059 A 
HETATM    6  C19   D T 299      -2.903   0.220  14.347  1.00 36.11     0.068 A 
HETATM    7  N23   D T 299      -3.859   2.023  13.349  1.00 32.82    -0.254 NA
ENDROOT
BRANCH   5   8
HETATM    8  C12   D T 299      -1.887   3.734  13.643  1.00 31.34     0.075 C 
BRANCH   8   9
HETATM    9  C20   D T 299      -1.394   4.215  12.262  1.00 27.84     0.029 A 
HETATM   10  C17   D T 299      -0.082   3.830  11.786  1.00 29.49     0.020 A 
HETATM   11  C7    D T 299       0.908   3.035  12.381  1.00 33.30     0.031 A 
HETATM   12  C16   D T 299       0.095   4.380  10.550  1.00 26.85     0.084 A 
HETATM   13  C15   D T 299       2.119   2.802  11.705  1.00 30.79     0.140 A 
HETATM   14  C5    D T 299       2.328   3.352  10.437  1.00 28.60     0.031 A 
HETATM   15  F29   D T 299       3.032   2.057  12.304  1.00 28.40    -0.204 F 
HETATM   16  C6    D T 299       1.326   4.143   9.848  1.00 25.34     0.021 A 
HETATM   17  N24   D T 299      -1.093   5.111  10.238  1.00 26.35    -0.220 NA
HETATM   18  C21   D T 299      -1.987   5.017  11.271  1.00 26.17     0.209 A 
HETATM   19  O27   D T 299      -3.236   5.604  11.307  1.00 26.42    -0.170 OA
ENDBRANCH   8   9
ENDBRANCH   5   8
BRANCH   6  20
HETATM   20  C22   D T 299      -2.672  -1.194  14.936  1.00 37.52     0.276 C 
HETATM   21  N25   D T 299      -1.681  -2.088  14.339  1.00 36.66    -0.232 NA
HETATM   22  O28   D T 299      -3.330  -1.572  15.941  1.00 36.30    -0.266 OA
BRANCH  21  23
HETATM   23  C37   D T 299      -1.468  -3.386  14.897  1.00 41.76     0.164 C 
BRANCH  23  24
HETATM   24  C38   D T 299      -0.406  -3.592  15.950  1.00 43.50     0.276 C 
BRANCH  24  25
HETATM   25  N4    D T 299      -0.256  -4.911  16.573  1.00 42.38     0.139 N 
BRANCH  25  26
HETATM   26  C39   D T 299       1.104  -5.149  16.970  1.00 41.85     0.250 C 
HETATM   27  C42   D T 299       1.742  -6.465  16.667  1.00 47.83     0.037 C 
ENDBRANCH  25  26
BRANCH  25  28
HETATM   28  C40   D T 299      -1.133  -5.045  17.690  1.00 35.07     0.250 C 
HETATM   29  C41   D T 299      -2.010  -6.298  17.773  1.00 41.01     0.037 C 
ENDBRANCH  25  28
ENDBRANCH  24  25
ENDBRANCH  23  24
ENDBRANCH  21  23
ENDBRANCH   6  20
TORSDOF 8
ENDMDL
MODEL 8
REMARK VINA RESULT:    -7.137      2.600      3.890
REMARK INTER + INTRA:         -11.576
REMARK INTER:                 -10.497
REMARK INTRA:                  -1.079
REMARK UNBOUND:                -1.102
REMARK  8 active torsions:
REMARK  status: ('A' for Active; 'I' for Inactive)
REMARK    1  A    between atoms: C20_8  and  C12_12 
REMARK    2  A    between atoms: C22_10  and  C19_16 
REMARK       I    between atoms: C22_10  and  N25_19 
REMARK    3  A    between atoms: C12_12  and  C18_15 
REMARK    4  A    between atoms: N25_19  and  C37_23 
REMARK    5  A    between atoms: C37_23  and  C38_24 
REMARK    6  A    between atoms: C38_24  and  N4_25 
REMARK    7  A    between atoms: N4_25  and  C39_26 
REMARK    8  A    between atoms: N4_25  and  C40_27 
ROOT
HETATM    1  C4    D T 299       0.063   5.121  10.785  1.00 31.87     0.052 C 
HETATM    2  C13   D T 299       2.367   2.870  12.738  1.00 35.43    -0.002 A 
HETATM    3  C3    D T 299       3.636   2.120  13.048  1.00 37.61     0.033 C 
HETATM    4  C14   D T 299       0.792   4.185  11.756  1.00 34.64     0.063 A 
HETATM    5  C18   D T 299       1.207   2.867  13.526  1.00 34.31     0.059 A 
HETATM    6  C19   D T 299       2.131   3.697  11.632  1.00 36.11     0.068 A 
HETATM    7  N23   D T 299       0.253   3.672  12.910  1.00 32.82    -0.254 NA
ENDROOT
BRANCH   5   8
HETATM    8  C12   D T 299       1.087   2.066  14.815  1.00 31.34     0.075 C 
BRANCH   8   9
HETATM    9  C20   D T 299       0.561   0.616  14.770  1.00 27.84     0.029 A 
HETATM   10  C17   D T 299      -0.864   0.363  14.729  1.00 29.49     0.020 A 
HETATM   11  C7    D T 299      -1.948   1.251  14.713  1.00 33.30     0.031 A 
HETATM   12  C16   D T 299      -1.050  -0.989  14.689  1.00 26.85     0.084 A 
HETATM   13  C15   D T 299      -3.263   0.751  14.668  1.00 30.79     0.140 A 
HETATM   14  C5    D T 299      -3.484  -0.628  14.627  1.00 28.60     0.031 A 
HETATM   15  F29   D T 299      -4.259   1.621  14.668  1.00 28.40    -0.204 F 
HETATM   16  C6    D T 299      -2.388  -1.510  14.637  1.00 25.34     0.021 A 
HETATM   17  N24   D T 299       0.244  -1.594  14.705  1.00 26.35    -0.220 NA
HETATM   18  C21   D T 299       1.214  -0.629  14.761  1.00 26.17     0.209 A 
HETATM   19  O27   D T 299       2.575  -0.861  14.793  1.00 26.42    -0.170 OA
ENDBRANCH   8   9
ENDBRANCH   5   8
BRANCH   6  20
HETATM   20  C22   D T 299       3.136   3.978  10.489  1.00 37.52     0.276 C 
HETATM   21  N25   D T 299       3.573   2.894   9.608  1.00 36.66    -0.232 NA
HETATM   22  O28   D T 299       3.571   5.146  10.305  1.00 36.30    -0.266 OA
BRANCH  21  23
HETATM   23  C37   D T 299       4.492   3.167   8.549  1.00 41.76     0.164 C 
BRANCH  23  24
HETATM   24  C38   D T 299       5.975   2.983   8.769  1.00 43.50     0.276 C 
BRANCH  24  25
HETATM   25  N4    D T 299       6.760   2.228   7.788  1.00 42.38     0.139 N 
BRANCH  25  26
HETATM   26  C39   D T 299       7.324   3.095   6.790  1.00 41.85     0.250 C 
HETATM   27  C42   D T 299       6.861   2.991   5.374  1.00 47.83     0.037 C 
ENDBRANCH  25  26
BRANCH  25  28
HETATM   28  C40   D T 299       7.786   1.475   8.433  1.00 35.07     0.250 C 
HETATM   29  C41   D T 299       9.163   2.126   8.597  1.00 41.01     0.037 C 
ENDBRANCH  25  28
ENDBRANCH  24  25
ENDBRANCH  23  24
ENDBRANCH  21  23
ENDBRANCH   6  20
TORSDOF 8
ENDMDL
MODEL 9
REMARK VINA RESULT:    -7.127      3.050      3.989
REMARK INTER + INTRA:         -11.561
REMARK INTER:                 -10.501
REMARK INTRA:                  -1.060
REMARK UNBOUND:                -1.102
REMARK  8 active torsions:
REMARK  status: ('A' for Active; 'I' for Inactive)
REMARK    1  A    between atoms: C20_8  and  C12_12 
REMARK    2  A    between atoms: C22_10  and  C19_16 
REMARK       I    between atoms: C22_10  and  N25_19 
REMARK    3  A    between atoms: C12_12  and  C18_15 
REMARK    4  A    between atoms: N25_19  and  C37_23 
REMARK    5  A    between atoms: C37_23  and  C38_24 
REMARK    6  A    between atoms: C38_24  and  N4_25 
REMARK    7  A    between atoms: N4_25  and  C39_26 
REMARK    8  A    between atoms: N4_25  and  C40_27 
ROOT
HETATM    1  C4    D T 299       4.007   3.451  11.827  1.00 31.87     0.052 C 
HETATM    2  C13   D T 299       1.817   0.716  13.212  1.00 35.43    -0.002 A 
HETATM    3  C3    D T 299       1.332  -0.693  13.431  1.00 37.61     0.033 C 
HETATM    4  C14   D T 299       2.983   2.541  12.516  1.00 34.64     0.063 A 
HETATM    5  C18   D T 299       1.246   1.869  13.771  1.00 34.31     0.059 A 
HETATM    6  C19   D T 299       2.911   1.115  12.433  1.00 36.11     0.068 A 
HETATM    7  N23   D T 299       1.968   2.975  13.332  1.00 32.82    -0.254 NA
ENDROOT
BRANCH   5   8
HETATM    8  C12   D T 299       0.023   1.828  14.675  1.00 31.34     0.075 C 
BRANCH   8   9
HETATM    9  C20   D T 299      -1.391   1.869  14.057  1.00 27.84     0.029 A 
HETATM   10  C17   D T 299      -2.365   0.857  14.407  1.00 29.49     0.020 A 
HETATM   11  C7    D T 299      -2.270  -0.240  15.275  1.00 33.30     0.031 A 
HETATM   12  C16   D T 299      -3.518   1.132  13.731  1.00 26.85     0.084 A 
HETATM   13  C15   D T 299      -3.376  -1.092  15.451  1.00 30.79     0.140 A 
HETATM   14  C5    D T 299      -4.570  -0.835  14.772  1.00 28.60     0.031 A 
HETATM   15  F29   D T 299      -3.243  -2.122  16.268  1.00 28.40    -0.204 F 
HETATM   16  C6    D T 299      -4.656   0.272  13.908  1.00 25.34     0.021 A 
HETATM   17  N24   D T 299      -3.283   2.309  12.955  1.00 26.35    -0.220 NA
HETATM   18  C21   D T 299      -2.001   2.749  13.146  1.00 26.17     0.209 A 
HETATM   19  O27   D T 299      -1.437   3.859  12.548  1.00 26.42    -0.170 OA
ENDBRANCH   8   9
ENDBRANCH   5   8
BRANCH   6  20
HETATM   20  C22   D T 299       3.825   0.169  11.616  1.00 37.52     0.276 C 
HETATM   21  N25   D T 299       5.232   0.007  11.982  1.00 36.66    -0.232 NA
HETATM   22  O28   D T 299       3.355  -0.474  10.640  1.00 36.30    -0.266 OA
BRANCH  21  23
HETATM   23  C37   D T 299       6.064  -0.877  11.228  1.00 41.76     0.164 C 
BRANCH  23  24
HETATM   24  C38   D T 299       6.654  -0.422   9.914  1.00 43.50     0.276 C 
BRANCH  24  25
HETATM   25  N4    D T 299       8.005   0.147   9.890  1.00 42.38     0.139 N 
BRANCH  25  26
HETATM   26  C39   D T 299       8.938  -0.750   9.268  1.00 41.85     0.250 C 
HETATM   27  C42   D T 299       8.668  -1.258   7.890  1.00 47.83     0.037 C 
ENDBRANCH  25  26
BRANCH  25  28
HETATM   28  C40   D T 299       8.009   1.411   9.227  1.00 35.07     0.250 C 
HETATM   29  C41   D T 299       9.332   2.177   9.143  1.00 41.01     0.037 C 
ENDBRANCH  25  28
ENDBRANCH  24  25
ENDBRANCH  23  24
ENDBRANCH  21  23
ENDBRANCH   6  20
TORSDOF 8
ENDMDL
