MODEL 1
REMARK VINA RESULT:    -8.551      0.000      0.000
REMARK INTER + INTRA:         -13.491
REMARK INTER:                 -12.551
REMARK INTRA:                  -0.940
REMARK UNBOUND:                -0.940
REMARK  8 active torsions:
REMARK  status: ('A' for Active; 'I' for Inactive)
REMARK    1  A    between atoms: C20_8  and  C12_12 
REMARK    2  A    between atoms: C22_10  and  C19_16 
REMARK       I    between atoms: C22_10  and  N25_19 
REMARK    3  A    between atoms: C12_12  and  C18_15 
REMARK    4  A    between atoms: N25_19  and  C37_23 
REMARK    5  A    between atoms: C37_23  and  C38_24 
REMARK    6  A    between atoms: C38_24  and  N4_25 
REMARK    7  A    between atoms: N4_25  and  C39_26 
REMARK    8  A    between atoms: N4_25  and  C40_27 
ROOT
HETATM    1  C4    D T 299      -1.014   1.770 -13.862  1.00 31.87     0.052 C 
HETATM    2  C13   D T 299      -1.300   0.844 -10.221  1.00 35.43    -0.002 A 
HETATM    3  C3    D T 299      -1.220   1.045  -8.730  1.00 37.61     0.033 C 
HETATM    4  C14   D T 299      -1.215   1.150 -12.473  1.00 34.64     0.063 A 
HETATM    5  C18   D T 299      -1.702  -0.336 -10.863  1.00 34.31     0.059 A 
HETATM    6  C19   D T 299      -1.001   1.789 -11.211  1.00 36.11     0.068 A 
HETATM    7  N23   D T 299      -1.640  -0.134 -12.238  1.00 32.82    -0.254 NA
ENDROOT
BRANCH   5   8
HETATM    8  C12   D T 299      -2.098  -1.594 -10.102  1.00 31.34     0.075 C 
BRANCH   8   9
HETATM    9  C20   D T 299      -1.984  -2.973 -10.785  1.00 27.84     0.029 A 
HETATM   10  C17   D T 299      -0.760  -3.736 -10.680  1.00 29.49     0.020 A 
HETATM   11  C7    D T 299       0.442  -3.445 -10.018  1.00 33.30     0.031 A 
HETATM   12  C16   D T 299      -0.932  -4.906 -11.362  1.00 26.85     0.084 A 
HETATM   13  C15   D T 299       1.506  -4.365 -10.061  1.00 30.79     0.140 A 
HETATM   14  C5    D T 299       1.359  -5.570 -10.754  1.00 28.60     0.031 A 
HETATM   15  F29   D T 299       2.628  -4.049  -9.437  1.00 28.40    -0.204 F 
HETATM   16  C6    D T 299       0.146  -5.854 -11.408  1.00 25.34     0.021 A 
HETATM   17  N24   D T 299      -2.256  -4.889 -11.900  1.00 26.35    -0.220 NA
HETATM   18  C21   D T 299      -2.888  -3.724 -11.558  1.00 26.17     0.209 A 
HETATM   19  O27   D T 299      -4.177  -3.376 -11.912  1.00 26.42    -0.170 OA
ENDBRANCH   8   9
ENDBRANCH   5   8
BRANCH   6  20
HETATM   20  C22   D T 299      -0.500   3.231 -10.956  1.00 37.52     0.276 C 
HETATM   21  N25   D T 299       0.934   3.521 -10.936  1.00 36.66    -0.232 NA
HETATM   22  O28   D T 299      -1.329   4.165 -10.780  1.00 36.30    -0.266 OA
BRANCH  21  23
HETATM   23  C37   D T 299       1.386   4.857 -10.711  1.00 41.76     0.164 C 
BRANCH  23  24
HETATM   24  C38   D T 299       2.865   5.159 -10.670  1.00 43.50     0.276 C 
BRANCH  24  25
HETATM   25  N4    D T 299       3.319   6.463 -10.175  1.00 42.38     0.139 N 
BRANCH  25  26
HETATM   26  C39   D T 299       3.954   6.340  -8.892  1.00 41.85     0.250 C 
HETATM   27  C42   D T 299       3.208   6.727  -7.658  1.00 47.83     0.037 C 
ENDBRANCH  25  26
BRANCH  25  28
HETATM   28  C40   D T 299       4.199   7.080 -11.111  1.00 35.07     0.250 C 
HETATM   29  C41   D T 299       3.703   8.322 -11.859  1.00 41.01     0.037 C 
ENDBRANCH  25  28
ENDBRANCH  24  25
ENDBRANCH  23  24
ENDBRANCH  21  23
ENDBRANCH   6  20
TORSDOF 8
ENDMDL
MODEL 2
REMARK VINA RESULT:    -8.037      2.183      2.722
REMARK INTER + INTRA:         -12.737
REMARK INTER:                 -11.680
REMARK INTRA:                  -1.057
REMARK UNBOUND:                -0.940
REMARK  8 active torsions:
REMARK  status: ('A' for Active; 'I' for Inactive)
REMARK    1  A    between atoms: C20_8  and  C12_12 
REMARK    2  A    between atoms: C22_10  and  C19_16 
REMARK       I    between atoms: C22_10  and  N25_19 
REMARK    3  A    between atoms: C12_12  and  C18_15 
REMARK    4  A    between atoms: N25_19  and  C37_23 
REMARK    5  A    between atoms: C37_23  and  C38_24 
REMARK    6  A    between atoms: C38_24  and  N4_25 
REMARK    7  A    between atoms: N4_25  and  C39_26 
REMARK    8  A    between atoms: N4_25  and  C40_27 
ROOT
HETATM    1  C4    D T 299      -0.649   2.334 -13.827  1.00 31.87     0.052 C 
HETATM    2  C13   D T 299      -0.887   1.034 -10.298  1.00 35.43    -0.002 A 
HETATM    3  C3    D T 299      -0.866   1.099  -8.793  1.00 37.61     0.033 C 
HETATM    4  C14   D T 299      -0.796   1.563 -12.509  1.00 34.64     0.063 A 
HETATM    5  C18   D T 299      -1.117  -0.121 -11.060  1.00 34.31     0.059 A 
HETATM    6  C19   D T 299      -0.695   2.100 -11.187  1.00 36.11     0.068 A 
HETATM    7  N23   D T 299      -1.054   0.219 -12.407  1.00 32.82    -0.254 NA
ENDROOT
BRANCH   5   8
HETATM    8  C12   D T 299      -1.360  -1.487 -10.432  1.00 31.34     0.075 C 
BRANCH   8   9
HETATM    9  C20   D T 299      -0.185  -2.470 -10.251  1.00 27.84     0.029 A 
HETATM   10  C17   D T 299      -0.277  -3.816 -10.774  1.00 29.49     0.020 A 
HETATM   11  C7    D T 299      -1.311  -4.452 -11.477  1.00 33.30     0.031 A 
HETATM   12  C16   D T 299       0.890  -4.461 -10.485  1.00 26.85     0.084 A 
HETATM   13  C15   D T 299      -1.158  -5.789 -11.888  1.00 30.79     0.140 A 
HETATM   14  C5    D T 299       0.026  -6.476 -11.604  1.00 28.60     0.031 A 
HETATM   15  F29   D T 299      -2.160  -6.360 -12.535  1.00 28.40    -0.204 F 
HETATM   16  C6    D T 299       1.058  -5.825 -10.904  1.00 25.34     0.021 A 
HETATM   17  N24   D T 299       1.721  -3.535  -9.782  1.00 26.35    -0.220 NA
HETATM   18  C21   D T 299       1.073  -2.338  -9.635  1.00 26.17     0.209 A 
HETATM   19  O27   D T 299       1.583  -1.222  -9.004  1.00 26.42    -0.170 OA
ENDBRANCH   8   9
ENDBRANCH   5   8
BRANCH   6  20
HETATM   20  C22   D T 299      -0.393   3.564 -10.783  1.00 37.52     0.276 C 
HETATM   21  N25   D T 299       0.985   4.055 -10.767  1.00 36.66    -0.232 NA
HETATM   22  O28   D T 299      -1.337   4.342 -10.481  1.00 36.30    -0.266 OA
BRANCH  21  23
HETATM   23  C37   D T 299       1.252   5.410 -10.404  1.00 41.76     0.164 C 
BRANCH  23  24
HETATM   24  C38   D T 299       2.657   5.956 -10.497  1.00 43.50     0.276 C 
BRANCH  24  25
HETATM   25  N4    D T 299       3.388   5.849 -11.764  1.00 42.38     0.139 N 
BRANCH  25  26
HETATM   26  C39   D T 299       3.513   7.129 -12.403  1.00 41.85     0.250 C 
HETATM   27  C42   D T 299       3.507   8.372 -11.577  1.00 47.83     0.037 C 
ENDBRANCH  25  26
BRANCH  25  28
HETATM   28  C40   D T 299       4.673   5.265 -11.558  1.00 35.07     0.250 C 
HETATM   29  C41   D T 299       5.372   5.512 -10.217  1.00 41.01     0.037 C 
ENDBRANCH  25  28
ENDBRANCH  24  25
ENDBRANCH  23  24
ENDBRANCH  21  23
ENDBRANCH   6  20
TORSDOF 8
ENDMDL
MODEL 3
REMARK VINA RESULT:    -7.693      1.954      2.931
REMARK INTER + INTRA:         -12.232
REMARK INTER:                 -11.407
REMARK INTRA:                  -0.825
REMARK UNBOUND:                -0.940
REMARK  8 active torsions:
REMARK  status: ('A' for Active; 'I' for Inactive)
REMARK    1  A    between atoms: C20_8  and  C12_12 
REMARK    2  A    between atoms: C22_10  and  C19_16 
REMARK       I    between atoms: C22_10  and  N25_19 
REMARK    3  A    between atoms: C12_12  and  C18_15 
REMARK    4  A    between atoms: N25_19  and  C37_23 
REMARK    5  A    between atoms: C37_23  and  C38_24 
REMARK    6  A    between atoms: C38_24  and  N4_25 
REMARK    7  A    between atoms: N4_25  and  C39_26 
REMARK    8  A    between atoms: N4_25  and  C40_27 
ROOT
HETATM    1  C4    D T 299      -1.210  -0.587  -7.653  1.00 31.87     0.052 C 
HETATM    2  C13   D T 299      -2.418  -0.232 -11.204  1.00 35.43    -0.002 A 
HETATM    3  C3    D T 299      -2.692   0.464 -12.511  1.00 37.61     0.033 C 
HETATM    4  C14   D T 299      -1.771  -0.706  -9.075  1.00 34.64     0.063 A 
HETATM    5  C18   D T 299      -2.719  -1.571 -10.917  1.00 34.31     0.059 A 
HETATM    6  C19   D T 299      -1.815   0.323 -10.068  1.00 36.11     0.068 A 
HETATM    7  N23   D T 299      -2.321  -1.843  -9.612  1.00 32.82    -0.254 NA
ENDROOT
BRANCH   5   8
HETATM    8  C12   D T 299      -3.395  -2.497 -11.919  1.00 31.34     0.075 C 
BRANCH   8   9
HETATM    9  C20   D T 299      -3.679  -3.965 -11.538  1.00 27.84     0.029 A 
HETATM   10  C17   D T 299      -2.600  -4.929 -11.505  1.00 29.49     0.020 A 
HETATM   11  C7    D T 299      -1.231  -4.774 -11.768  1.00 33.30     0.031 A 
HETATM   12  C16   D T 299      -3.122  -6.135 -11.135  1.00 26.85     0.084 A 
HETATM   13  C15   D T 299      -0.368  -5.881 -11.664  1.00 30.79     0.140 A 
HETATM   14  C5    D T 299      -0.875  -7.128 -11.289  1.00 28.60     0.031 A 
HETATM   15  F29   D T 299       0.914  -5.698 -11.934  1.00 28.40    -0.204 F 
HETATM   16  C6    D T 299      -2.249  -7.269 -11.021  1.00 25.34     0.021 A 
HETATM   17  N24   D T 299      -4.524  -5.943 -10.935  1.00 26.35    -0.220 NA
HETATM   18  C21   D T 299      -4.861  -4.640 -11.183  1.00 26.17     0.209 A 
HETATM   19  O27   D T 299      -6.132  -4.107 -11.087  1.00 26.42    -0.170 OA
ENDBRANCH   8   9
ENDBRANCH   5   8
BRANCH   6  20
HETATM   20  C22   D T 299      -1.333   1.788  -9.931  1.00 37.52     0.276 C 
HETATM   21  N25   D T 299      -0.291   2.307 -10.819  1.00 36.66    -0.232 NA
HETATM   22  O28   D T 299      -1.848   2.543  -9.064  1.00 36.30    -0.266 OA
BRANCH  21  23
HETATM   23  C37   D T 299       0.139   3.663 -10.692  1.00 41.76     0.164 C 
BRANCH  23  24
HETATM   24  C38   D T 299       1.384   4.132 -11.407  1.00 43.50     0.276 C 
BRANCH  24  25
HETATM   25  N4    D T 299       2.321   5.019 -10.710  1.00 42.38     0.139 N 
BRANCH  25  26
HETATM   26  C39   D T 299       3.096   5.793 -11.640  1.00 41.85     0.250 C 
HETATM   27  C42   D T 299       4.557   5.523 -11.790  1.00 47.83     0.037 C 
ENDBRANCH  25  26
BRANCH  25  28
HETATM   28  C40   D T 299       1.628   5.874  -9.803  1.00 35.07     0.250 C 
HETATM   29  C41   D T 299       2.111   7.322  -9.664  1.00 41.01     0.037 C 
ENDBRANCH  25  28
ENDBRANCH  24  25
ENDBRANCH  23  24
ENDBRANCH  21  23
ENDBRANCH   6  20
TORSDOF 8
ENDMDL
MODEL 4
REMARK VINA RESULT:    -7.519      2.987      9.711
REMARK INTER + INTRA:         -11.975
REMARK INTER:                 -10.994
REMARK INTRA:                  -0.981
REMARK UNBOUND:                -0.940
REMARK  8 active torsions:
REMARK  status: ('A' for Active; 'I' for Inactive)
REMARK    1  A    between atoms: C20_8  and  C12_12 
REMARK    2  A    between atoms: C22_10  and  C19_16 
REMARK       I    between atoms: C22_10  and  N25_19 
REMARK    3  A    between atoms: C12_12  and  C18_15 
REMARK    4  A    between atoms: N25_19  and  C37_23 
REMARK    5  A    between atoms: C37_23  and  C38_24 
REMARK    6  A    between atoms: C38_24  and  N4_25 
REMARK    7  A    between atoms: N4_25  and  C39_26 
REMARK    8  A    between atoms: N4_25  and  C40_27 
ROOT
HETATM    1  C4    D T 299      -2.199   1.026 -14.525  1.00 31.87     0.052 C 
HETATM    2  C13   D T 299      -0.734   1.836 -11.150  1.00 35.43    -0.002 A 
HETATM    3  C3    D T 299      -0.247   1.567  -9.750  1.00 37.61     0.033 C 
HETATM    4  C14   D T 299      -1.588   1.612 -13.246  1.00 34.64     0.063 A 
HETATM    5  C18   D T 299      -0.736   3.087 -11.784  1.00 34.31     0.059 A 
HETATM    6  C19   D T 299      -1.253   0.899 -12.052  1.00 36.11     0.068 A 
HETATM    7  N23   D T 299      -1.264   2.933 -13.062  1.00 32.82    -0.254 NA
ENDROOT
BRANCH   5   8
HETATM    8  C12   D T 299      -0.247   4.357 -11.102  1.00 31.34     0.075 C 
BRANCH   8   9
HETATM    9  C20   D T 299       1.255   4.711 -11.122  1.00 27.84     0.029 A 
HETATM   10  C17   D T 299       1.836   5.472 -10.038  1.00 29.49     0.020 A 
HETATM   11  C7    D T 299       1.253   5.990  -8.872  1.00 33.30     0.031 A 
HETATM   12  C16   D T 299       3.165   5.635 -10.301  1.00 26.85     0.084 A 
HETATM   13  C15   D T 299       2.042   6.706  -7.953  1.00 30.79     0.140 A 
HETATM   14  C5    D T 299       3.406   6.890  -8.198  1.00 28.60     0.031 A 
HETATM   15  F29   D T 299       1.453   7.191  -6.872  1.00 28.40    -0.204 F 
HETATM   16  C6    D T 299       3.980   6.360  -9.368  1.00 25.34     0.021 A 
HETATM   17  N24   D T 299       3.431   4.984 -11.546  1.00 26.35    -0.220 NA
HETATM   18  C21   D T 299       2.281   4.432 -12.043  1.00 26.17     0.209 A 
HETATM   19  O27   D T 299       2.175   3.731 -13.228  1.00 26.42    -0.170 OA
ENDBRANCH   8   9
ENDBRANCH   5   8
BRANCH   6  20
HETATM   20  C22   D T 299      -1.451  -0.610 -11.767  1.00 37.52     0.276 C 
HETATM   21  N25   D T 299      -2.785  -1.137 -11.480  1.00 36.66    -0.232 NA
HETATM   22  O28   D T 299      -0.463  -1.392 -11.796  1.00 36.30    -0.266 OA
BRANCH  21  23
HETATM   23  C37   D T 299      -2.959  -2.532 -11.229  1.00 41.76     0.164 C 
BRANCH  23  24
HETATM   24  C38   D T 299      -3.686  -3.397 -12.232  1.00 43.50     0.276 C 
BRANCH  24  25
HETATM   25  N4    D T 299      -3.551  -4.855 -12.155  1.00 42.38     0.139 N 
BRANCH  25  26
HETATM   26  C39   D T 299      -2.439  -5.233 -11.327  1.00 41.85     0.250 C 
HETATM   27  C42   D T 299      -1.257  -5.908 -11.940  1.00 47.83     0.037 C 
ENDBRANCH  25  26
BRANCH  25  28
HETATM   28  C40   D T 299      -4.755  -5.450 -11.677  1.00 35.07     0.250 C 
HETATM   29  C41   D T 299      -4.643  -6.698 -10.795  1.00 41.01     0.037 C 
ENDBRANCH  25  28
ENDBRANCH  24  25
ENDBRANCH  23  24
ENDBRANCH  21  23
ENDBRANCH   6  20
TORSDOF 8
ENDMDL
MODEL 5
REMARK VINA RESULT:    -7.453      2.773      9.007
REMARK INTER + INTRA:         -11.879
REMARK INTER:                 -10.926
REMARK INTRA:                  -0.953
REMARK UNBOUND:                -0.940
REMARK  8 active torsions:
REMARK  status: ('A' for Active; 'I' for Inactive)
REMARK    1  A    between atoms: C20_8  and  C12_12 
REMARK    2  A    between atoms: C22_10  and  C19_16 
REMARK       I    between atoms: C22_10  and  N25_19 
REMARK    3  A    between atoms: C12_12  and  C18_15 
REMARK    4  A    between atoms: N25_19  and  C37_23 
REMARK    5  A    between atoms: C37_23  and  C38_24 
REMARK    6  A    between atoms: C38_24  and  N4_25 
REMARK    7  A    between atoms: N4_25  and  C39_26 
REMARK    8  A    between atoms: N4_25  and  C40_27 
ROOT
HETATM    1  C4    D T 299      -5.088   1.643 -11.775  1.00 31.87     0.052 C 
HETATM    2  C13   D T 299      -1.596   1.594 -10.361  1.00 35.43    -0.002 A 
HETATM    3  C3    D T 299      -0.368   1.000  -9.722  1.00 37.61     0.033 C 
HETATM    4  C14   D T 299      -3.663   1.889 -11.264  1.00 34.64     0.063 A 
HETATM    5  C18   D T 299      -1.746   2.935 -10.744  1.00 34.31     0.059 A 
HETATM    6  C19   D T 299      -2.781   0.922 -10.687  1.00 36.11     0.068 A 
HETATM    7  N23   D T 299      -3.015   3.098 -11.291  1.00 32.82    -0.254 NA
ENDROOT
BRANCH   5   8
HETATM    8  C12   D T 299      -0.657   3.978 -10.536  1.00 31.34     0.075 C 
BRANCH   8   9
HETATM    9  C20   D T 299       0.539   4.045 -11.508  1.00 27.84     0.029 A 
HETATM   10  C17   D T 299       1.774   4.678 -11.098  1.00 29.49     0.020 A 
HETATM   11  C7    D T 299       2.126   5.288  -9.885  1.00 33.30     0.031 A 
HETATM   12  C16   D T 299       2.658   4.591 -12.134  1.00 26.85     0.084 A 
HETATM   13  C15   D T 299       3.412   5.839  -9.726  1.00 30.79     0.140 A 
HETATM   14  C5    D T 299       4.337   5.766 -10.771  1.00 28.60     0.031 A 
HETATM   15  F29   D T 299       3.702   6.418  -8.573  1.00 28.40    -0.204 F 
HETATM   16  C6    D T 299       3.973   5.145 -11.980  1.00 25.34     0.021 A 
HETATM   17  N24   D T 299       1.992   3.909 -13.200  1.00 26.35    -0.220 NA
HETATM   18  C21   D T 299       0.715   3.585 -12.826  1.00 26.17     0.209 A 
HETATM   19  O27   D T 299      -0.207   2.923 -13.612  1.00 26.42    -0.170 OA
ENDBRANCH   8   9
ENDBRANCH   5   8
BRANCH   6  20
HETATM   20  C22   D T 299      -3.065  -0.577 -10.425  1.00 37.52     0.276 C 
HETATM   21  N25   D T 299      -2.613  -1.591 -11.379  1.00 36.66    -0.232 NA
HETATM   22  O28   D T 299      -3.675  -0.930  -9.380  1.00 36.30    -0.266 OA
BRANCH  21  23
HETATM   23  C37   D T 299      -2.870  -2.972 -11.123  1.00 41.76     0.164 C 
BRANCH  23  24
HETATM   24  C38   D T 299      -2.121  -4.037 -11.889  1.00 43.50     0.276 C 
BRANCH  24  25
HETATM   25  N4    D T 299      -1.502  -5.148 -11.157  1.00 42.38     0.139 N 
BRANCH  25  26
HETATM   26  C39   D T 299      -2.045  -6.411 -11.573  1.00 41.85     0.250 C 
HETATM   27  C42   D T 299      -1.297  -7.670 -11.278  1.00 47.83     0.037 C 
ENDBRANCH  25  26
BRANCH  25  28
HETATM   28  C40   D T 299      -0.086  -5.134 -11.321  1.00 35.07     0.250 C 
HETATM   29  C41   D T 299       0.500  -4.308 -12.472  1.00 41.01     0.037 C 
ENDBRANCH  25  28
ENDBRANCH  24  25
ENDBRANCH  23  24
ENDBRANCH  21  23
ENDBRANCH   6  20
TORSDOF 8
ENDMDL
MODEL 6
REMARK VINA RESULT:    -7.335      2.895      3.719
REMARK INTER + INTRA:         -11.706
REMARK INTER:                 -10.564
REMARK INTRA:                  -1.142
REMARK UNBOUND:                -0.940
REMARK  8 active torsions:
REMARK  status: ('A' for Active; 'I' for Inactive)
REMARK    1  A    between atoms: C20_8  and  C12_12 
REMARK    2  A    between atoms: C22_10  and  C19_16 
REMARK       I    between atoms: C22_10  and  N25_19 
REMARK    3  A    between atoms: C12_12  and  C18_15 
REMARK    4  A    between atoms: N25_19  and  C37_23 
REMARK    5  A    between atoms: C37_23  and  C38_24 
REMARK    6  A    between atoms: C38_24  and  N4_25 
REMARK    7  A    between atoms: N4_25  and  C39_26 
REMARK    8  A    between atoms: N4_25  and  C40_27 
ROOT
HETATM    1  C4    D T 299      -1.346   1.587 -13.650  1.00 31.87     0.052 C 
HETATM    2  C13   D T 299      -1.975   0.126 -10.234  1.00 35.43    -0.002 A 
HETATM    3  C3    D T 299      -2.023   0.092  -8.729  1.00 37.61     0.033 C 
HETATM    4  C14   D T 299      -1.682   0.769 -12.397  1.00 34.64     0.063 A 
HETATM    5  C18   D T 299      -2.342  -0.928 -11.084  1.00 34.31     0.059 A 
HETATM    6  C19   D T 299      -1.569   1.199 -11.037  1.00 36.11     0.068 A 
HETATM    7  N23   D T 299      -2.154  -0.520 -12.400  1.00 32.82    -0.254 NA
ENDROOT
BRANCH   5   8
HETATM    8  C12   D T 299      -2.832  -2.273 -10.564  1.00 31.34     0.075 C 
BRANCH   8   9
HETATM    9  C20   D T 299      -2.236  -3.578 -11.132  1.00 27.84     0.029 A 
HETATM   10  C17   D T 299      -0.882  -3.964 -10.797  1.00 29.49     0.020 A 
HETATM   11  C7    D T 299       0.071  -3.334  -9.984  1.00 33.30     0.031 A 
HETATM   12  C16   D T 299      -0.616  -5.150 -11.419  1.00 26.85     0.084 A 
HETATM   13  C15   D T 299       1.339  -3.919  -9.809  1.00 30.79     0.140 A 
HETATM   14  C5    D T 299       1.641  -5.132 -10.436  1.00 28.60     0.031 A 
HETATM   15  F29   D T 299       2.216  -3.288  -9.048  1.00 28.40    -0.204 F 
HETATM   16  C6    D T 299       0.673  -5.758 -11.244  1.00 25.34     0.021 A 
HETATM   17  N24   D T 299      -1.790  -5.517 -12.148  1.00 26.35    -0.220 NA
HETATM   18  C21   D T 299      -2.763  -4.569 -11.980  1.00 26.17     0.209 A 
HETATM   19  O27   D T 299      -4.023  -4.605 -12.543  1.00 26.42    -0.170 OA
ENDBRANCH   8   9
ENDBRANCH   5   8
BRANCH   6  20
HETATM   20  C22   D T 299      -1.062   2.568 -10.519  1.00 37.52     0.276 C 
HETATM   21  N25   D T 299      -1.994   3.516  -9.909  1.00 36.66    -0.232 NA
HETATM   22  O28   D T 299       0.160   2.863 -10.609  1.00 36.30    -0.266 OA
BRANCH  21  23
HETATM   23  C37   D T 299      -1.515   4.771  -9.424  1.00 41.76     0.164 C 
BRANCH  23  24
HETATM   24  C38   D T 299      -2.492   5.835  -8.983  1.00 43.50     0.276 C 
BRANCH  24  25
HETATM   25  N4    D T 299      -3.130   5.725  -7.668  1.00 42.38     0.139 N 
BRANCH  25  26
HETATM   26  C39   D T 299      -2.930   6.916  -6.889  1.00 41.85     0.250 C 
HETATM   27  C42   D T 299      -2.071   8.013  -7.424  1.00 47.83     0.037 C 
ENDBRANCH  25  26
BRANCH  25  28
HETATM   28  C40   D T 299      -4.522   5.444  -7.804  1.00 35.07     0.250 C 
HETATM   29  C41   D T 299      -4.992   4.001  -7.589  1.00 41.01     0.037 C 
ENDBRANCH  25  28
ENDBRANCH  24  25
ENDBRANCH  23  24
ENDBRANCH  21  23
ENDBRANCH   6  20
TORSDOF 8
ENDMDL
MODEL 7
REMARK VINA RESULT:    -7.335      3.903      5.596
REMARK INTER + INTRA:         -11.705
REMARK INTER:                 -10.987
REMARK INTRA:                  -0.718
REMARK UNBOUND:                -0.940
REMARK  8 active torsions:
REMARK  status: ('A' for Active; 'I' for Inactive)
REMARK    1  A    between atoms: C20_8  and  C12_12 
REMARK    2  A    between atoms: C22_10  and  C19_16 
REMARK       I    between atoms: C22_10  and  N25_19 
REMARK    3  A    between atoms: C12_12  and  C18_15 
REMARK    4  A    between atoms: N25_19  and  C37_23 
REMARK    5  A    between atoms: C37_23  and  C38_24 
REMARK    6  A    between atoms: C38_24  and  N4_25 
REMARK    7  A    between atoms: N4_25  and  C39_26 
REMARK    8  A    between atoms: N4_25  and  C40_27 
ROOT
HETATM    1  C4    D T 299       2.615  -2.044  -9.087  1.00 31.87     0.052 C 
HETATM    2  C13   D T 299      -0.576  -2.410 -11.057  1.00 35.43    -0.002 A 
HETATM    3  C3    D T 299      -1.935  -2.021 -11.577  1.00 37.61     0.033 C 
HETATM    4  C14   D T 299       1.423  -2.431  -9.971  1.00 34.64     0.063 A 
HETATM    5  C18   D T 299       0.108  -3.593 -11.370  1.00 34.31     0.059 A 
HETATM    6  C19   D T 299       0.235  -1.665 -10.192  1.00 36.11     0.068 A 
HETATM    7  N23   D T 299       1.324  -3.592 -10.696  1.00 32.82    -0.254 NA
ENDROOT
BRANCH   5   8
HETATM    8  C12   D T 299      -0.472  -4.662 -12.286  1.00 31.34     0.075 C 
BRANCH   8   9
HETATM    9  C20   D T 299      -1.362  -5.777 -11.698  1.00 27.84     0.029 A 
HETATM   10  C17   D T 299      -2.800  -5.618 -11.665  1.00 29.49     0.020 A 
HETATM   11  C7    D T 299      -3.610  -4.561 -12.105  1.00 33.30     0.031 A 
HETATM   12  C16   D T 299      -3.336  -6.742 -11.107  1.00 26.85     0.084 A 
HETATM   13  C15   D T 299      -5.008  -4.644 -11.962  1.00 30.79     0.140 A 
HETATM   14  C5    D T 299      -5.585  -5.783 -11.393  1.00 28.60     0.031 A 
HETATM   15  F29   D T 299      -5.737  -3.622 -12.376  1.00 28.40    -0.204 F 
HETATM   16  C6    D T 299      -4.761  -6.839 -10.962  1.00 25.34     0.021 A 
HETATM   17  N24   D T 299      -2.249  -7.613 -10.786  1.00 26.35    -0.220 NA
HETATM   18  C21   D T 299      -1.060  -7.031 -11.135  1.00 26.17     0.209 A 
HETATM   19  O27   D T 299       0.189  -7.593 -10.965  1.00 26.42    -0.170 OA
ENDBRANCH   8   9
ENDBRANCH   5   8
BRANCH   6  20
HETATM   20  C22   D T 299      -0.130  -0.291  -9.576  1.00 37.52     0.276 C 
HETATM   21  N25   D T 299      -0.440   0.846 -10.443  1.00 36.66    -0.232 NA
HETATM   22  O28   D T 299      -0.175  -0.154  -8.324  1.00 36.30    -0.266 OA
BRANCH  21  23
HETATM   23  C37   D T 299      -0.787   2.105  -9.866  1.00 41.76     0.164 C 
BRANCH  23  24
HETATM   24  C38   D T 299      -1.047   3.299 -10.754  1.00 43.50     0.276 C 
BRANCH  24  25
HETATM   25  N4    D T 299      -2.232   3.306 -11.619  1.00 42.38     0.139 N 
BRANCH  25  26
HETATM   26  C39   D T 299      -1.864   3.279 -13.007  1.00 41.85     0.250 C 
HETATM   27  C42   D T 299      -0.442   3.033 -13.390  1.00 47.83     0.037 C 
ENDBRANCH  25  26
BRANCH  25  28
HETATM   28  C40   D T 299      -3.091   2.210 -11.308  1.00 35.07     0.250 C 
HETATM   29  C41   D T 299      -3.808   1.504 -12.464  1.00 41.01     0.037 C 
ENDBRANCH  25  28
ENDBRANCH  24  25
ENDBRANCH  23  24
ENDBRANCH  21  23
ENDBRANCH   6  20
TORSDOF 8
ENDMDL
MODEL 8
REMARK VINA RESULT:    -7.263      2.695      3.268
REMARK INTER + INTRA:         -11.600
REMARK INTER:                 -10.699
REMARK INTRA:                  -0.902
REMARK UNBOUND:                -0.940
REMARK  8 active torsions:
REMARK  status: ('A' for Active; 'I' for Inactive)
REMARK    1  A    between atoms: C20_8  and  C12_12 
REMARK    2  A    between atoms: C22_10  and  C19_16 
REMARK       I    between atoms: C22_10  and  N25_19 
REMARK    3  A    between atoms: C12_12  and  C18_15 
REMARK    4  A    between atoms: N25_19  and  C37_23 
REMARK    5  A    between atoms: C37_23  and  C38_24 
REMARK    6  A    between atoms: C38_24  and  N4_25 
REMARK    7  A    between atoms: N4_25  and  C39_26 
REMARK    8  A    between atoms: N4_25  and  C40_27 
ROOT
HETATM    1  C4    D T 299      -1.707   2.618 -13.907  1.00 31.87     0.052 C 
HETATM    2  C13   D T 299      -1.506   0.566 -10.754  1.00 35.43    -0.002 A 
HETATM    3  C3    D T 299      -1.613   0.277  -9.279  1.00 37.61     0.033 C 
HETATM    4  C14   D T 299      -1.544   1.581 -12.789  1.00 34.64     0.063 A 
HETATM    5  C18   D T 299      -1.098  -0.350 -11.734  1.00 34.31     0.059 A 
HETATM    6  C19   D T 299      -1.799   1.776 -11.395  1.00 36.11     0.068 A 
HETATM    7  N23   D T 299      -1.123   0.287 -12.971  1.00 32.82    -0.254 NA
ENDROOT
BRANCH   5   8
HETATM    8  C12   D T 299      -0.687  -1.779 -11.407  1.00 31.34     0.075 C 
BRANCH   8   9
HETATM    9  C20   D T 299      -1.731  -2.913 -11.477  1.00 27.84     0.029 A 
HETATM   10  C17   D T 299      -1.305  -4.295 -11.426  1.00 29.49     0.020 A 
HETATM   11  C7    D T 299      -0.023  -4.851 -11.310  1.00 33.30     0.031 A 
HETATM   12  C16   D T 299      -2.418  -5.083 -11.498  1.00 26.85     0.084 A 
HETATM   13  C15   D T 299       0.135  -6.249 -11.279  1.00 30.79     0.140 A 
HETATM   14  C5    D T 299      -0.988  -7.080 -11.353  1.00 28.60     0.031 A 
HETATM   15  F29   D T 299       1.360  -6.735 -11.184  1.00 28.40    -0.204 F 
HETATM   16  C6    D T 299      -2.269  -6.510 -11.462  1.00 25.34     0.021 A 
HETATM   17  N24   D T 299      -3.546  -4.210 -11.596  1.00 26.35    -0.220 NA
HETATM   18  C21   D T 299      -3.133  -2.904 -11.589  1.00 26.17     0.209 A 
HETATM   19  O27   D T 299      -3.960  -1.801 -11.670  1.00 26.42    -0.170 OA
ENDBRANCH   8   9
ENDBRANCH   5   8
BRANCH   6  20
HETATM   20  C22   D T 299      -2.272   3.073 -10.695  1.00 37.52     0.276 C 
HETATM   21  N25   D T 299      -1.313   3.915  -9.978  1.00 36.66    -0.232 NA
HETATM   22  O28   D T 299      -3.483   3.416 -10.753  1.00 36.30    -0.266 OA
BRANCH  21  23
HETATM   23  C37   D T 299      -1.757   5.116  -9.345  1.00 41.76     0.164 C 
BRANCH  23  24
HETATM   24  C38   D T 299      -2.114   5.112  -7.878  1.00 43.50     0.276 C 
BRANCH  24  25
HETATM   25  N4    D T 299      -1.487   6.090  -6.983  1.00 42.38     0.139 N 
BRANCH  25  26
HETATM   26  C39   D T 299      -0.438   6.810  -7.650  1.00 41.85     0.250 C 
HETATM   27  C42   D T 299       0.516   7.635  -6.851  1.00 47.83     0.037 C 
ENDBRANCH  25  26
BRANCH  25  28
HETATM   28  C40   D T 299      -2.460   6.993  -6.462  1.00 35.07     0.250 C 
HETATM   29  C41   D T 299      -3.045   8.049  -7.406  1.00 41.01     0.037 C 
ENDBRANCH  25  28
ENDBRANCH  24  25
ENDBRANCH  23  24
ENDBRANCH  21  23
ENDBRANCH   6  20
TORSDOF 8
ENDMDL
MODEL 9
REMARK VINA RESULT:    -7.167      2.952      3.603
REMARK INTER + INTRA:         -11.460
REMARK INTER:                 -10.587
REMARK INTRA:                  -0.872
REMARK UNBOUND:                -0.940
REMARK  8 active torsions:
REMARK  status: ('A' for Active; 'I' for Inactive)
REMARK    1  A    between atoms: C20_8  and  C12_12 
REMARK    2  A    between atoms: C22_10  and  C19_16 
REMARK       I    between atoms: C22_10  and  N25_19 
REMARK    3  A    between atoms: C12_12  and  C18_15 
REMARK    4  A    between atoms: N25_19  and  C37_23 
REMARK    5  A    between atoms: C37_23  and  C38_24 
REMARK    6  A    between atoms: C38_24  and  N4_25 
REMARK    7  A    between atoms: N4_25  and  C39_26 
REMARK    8  A    between atoms: N4_25  and  C40_27 
ROOT
HETATM    1  C4    D T 299      -1.367   3.446 -12.899  1.00 31.87     0.052 C 
HETATM    2  C13   D T 299      -2.382   1.245 -10.014  1.00 35.43    -0.002 A 
HETATM    3  C3    D T 299      -2.909   0.915  -8.641  1.00 37.61     0.033 C 
HETATM    4  C14   D T 299      -1.703   2.344 -11.887  1.00 34.64     0.063 A 
HETATM    5  C18   D T 299      -1.940   0.312 -10.962  1.00 34.31     0.059 A 
HETATM    6  C19   D T 299      -2.251   2.521 -10.577  1.00 36.11     0.068 A 
HETATM    7  N23   D T 299      -1.526   0.999 -12.098  1.00 32.82    -0.254 NA
ENDROOT
BRANCH   5   8
HETATM    8  C12   D T 299      -1.926  -1.187 -10.698  1.00 31.34     0.075 C 
BRANCH   8   9
HETATM    9  C20   D T 299      -0.617  -1.879 -10.263  1.00 27.84     0.029 A 
HETATM   10  C17   D T 299      -0.330  -3.229 -10.698  1.00 29.49     0.020 A 
HETATM   11  C7    D T 299      -1.068  -4.101 -11.511  1.00 33.30     0.031 A 
HETATM   12  C16   D T 299       0.881  -3.590 -10.181  1.00 26.85     0.084 A 
HETATM   13  C15   D T 299      -0.566  -5.384 -11.798  1.00 30.79     0.140 A 
HETATM   14  C5    D T 299       0.671  -5.782 -11.280  1.00 28.60     0.031 A 
HETATM   15  F29   D T 299      -1.297  -6.183 -12.556  1.00 28.40    -0.204 F 
HETATM   16  C6    D T 299       1.404  -4.895 -10.471  1.00 25.34     0.021 A 
HETATM   17  N24   D T 299       1.362  -2.480  -9.420  1.00 26.35    -0.220 NA
HETATM   18  C21   D T 299       0.459  -1.452  -9.464  1.00 26.17     0.209 A 
HETATM   19  O27   D T 299       0.603  -0.229  -8.838  1.00 26.42    -0.170 OA
ENDBRANCH   8   9
ENDBRANCH   5   8
BRANCH   6  20
HETATM   20  C22   D T 299      -2.606   3.855  -9.875  1.00 37.52     0.276 C 
HETATM   21  N25   D T 299      -1.593   4.571  -9.099  1.00 36.66    -0.232 NA
HETATM   22  O28   D T 299      -3.766   4.335  -9.983  1.00 36.30    -0.266 OA
BRANCH  21  23
HETATM   23  C37   D T 299      -1.926   5.807  -8.465  1.00 41.76     0.164 C 
BRANCH  23  24
HETATM   24  C38   D T 299      -1.662   5.996  -6.990  1.00 43.50     0.276 C 
BRANCH  24  25
HETATM   25  N4    D T 299      -0.539   6.838  -6.563  1.00 42.38     0.139 N 
BRANCH  25  26
HETATM   26  C39   D T 299       0.429   6.988  -7.614  1.00 41.85     0.250 C 
HETATM   27  C42   D T 299       1.885   6.907  -7.295  1.00 47.83     0.037 C 
ENDBRANCH  25  26
BRANCH  25  28
HETATM   28  C40   D T 299      -1.003   8.114  -6.125  1.00 35.07     0.250 C 
HETATM   29  C41   D T 299      -0.522   9.356  -6.883  1.00 41.01     0.037 C 
ENDBRANCH  25  28
ENDBRANCH  24  25
ENDBRANCH  23  24
ENDBRANCH  21  23
ENDBRANCH   6  20
TORSDOF 8
ENDMDL
