MODEL 1
REMARK VINA RESULT:      -8.4      0.000      0.000
REMARK  8 active torsions:
REMARK  status: ('A' for Active; 'I' for Inactive)
REMARK    1  A    between atoms: C20_8  and  C12_12 
REMARK    2  A    between atoms: C22_10  and  C19_16 
REMARK       I    between atoms: C22_10  and  N25_19 
REMARK    3  A    between atoms: C12_12  and  C18_15 
REMARK    4  A    between atoms: N25_19  and  C37_23 
REMARK    5  A    between atoms: C37_23  and  C38_24 
REMARK    6  A    between atoms: C38_24  and  N4_25 
REMARK    7  A    between atoms: N4_25  and  C39_26 
REMARK    8  A    between atoms: N4_25  and  C40_27 
ROOT
HETATM    1  C4    D T 299     -98.481  -5.703 -80.189  1.00 31.87     0.052 C 
HETATM    2  C13   D T 299     -95.439  -3.972 -81.585  1.00 35.43    -0.002 A 
HETATM    3  C3    D T 299     -94.437  -2.861 -81.765  1.00 37.61     0.033 C 
HETATM    4  C14   D T 299     -97.208  -5.228 -80.901  1.00 34.64     0.063 A 
HETATM    5  C18   D T 299     -95.411  -5.208 -82.247  1.00 34.31     0.059 A 
HETATM    6  C19   D T 299     -96.549  -3.970 -80.731  1.00 36.11     0.068 A 
HETATM    7  N23   D T 299     -96.501  -5.962 -81.821  1.00 32.82    -0.254 NA
ENDROOT
BRANCH   5   8
HETATM    8  C12   D T 299     -94.344  -5.572 -83.270  1.00 31.34     0.075 C 
BRANCH   8   9
HETATM    9  C20   D T 299     -93.230  -6.571 -82.895  1.00 27.84     0.029 A 
HETATM   10  C17   D T 299     -92.935  -7.689 -83.766  1.00 29.49     0.020 A 
HETATM   11  C7    D T 299     -93.505  -8.068 -84.989  1.00 33.30     0.031 A 
HETATM   12  C16   D T 299     -91.915  -8.403 -83.205  1.00 26.85     0.084 A 
HETATM   13  C15   D T 299     -93.034  -9.213 -85.658  1.00 30.79     0.140 A 
HETATM   14  C5    D T 299     -91.992  -9.964 -85.106  1.00 28.60     0.031 A 
HETATM   15  F29   D T 299     -93.607  -9.545 -86.802  1.00 28.40    -0.204 F 
HETATM   16  C6    D T 299     -91.423  -9.570 -83.881  1.00 25.34     0.021 A 
HETATM   17  N24   D T 299     -91.563  -7.748 -81.984  1.00 26.35    -0.220 NA
HETATM   18  C21   D T 299     -92.358  -6.649 -81.793  1.00 26.17     0.209 A 
HETATM   19  O27   D T 299     -92.292  -5.788 -80.717  1.00 26.42    -0.170 OA
ENDBRANCH   8   9
ENDBRANCH   5   8
BRANCH   6  20
HETATM   20  C22   D T 299     -96.977  -2.797 -79.816  1.00 37.52     0.276 C 
HETATM   21  N25   D T 299     -96.203  -2.476 -78.616  1.00 36.66    -0.232 NA
HETATM   22  O28   D T 299     -97.988  -2.104 -80.110  1.00 36.30    -0.266 OA
BRANCH  21  23
HETATM   23  C37   D T 299     -96.599  -1.385 -77.785  1.00 41.76     0.164 C 
BRANCH  23  24
HETATM   24  C38   D T 299     -95.614  -0.775 -76.816  1.00 43.50     0.276 C 
BRANCH  24  25
HETATM   25  N4    D T 299     -94.236  -1.278 -76.779  1.00 42.38     0.139 N 
BRANCH  25  26
HETATM   26  C39   D T 299     -93.319  -0.254 -76.359  1.00 41.85     0.250 C 
HETATM   27  C42   D T 299     -92.427   0.397 -77.363  1.00 47.83     0.037 C 
ENDBRANCH  25  26
BRANCH  25  28
HETATM   28  C40   D T 299     -94.137  -2.418 -75.928  1.00 35.07     0.250 C 
HETATM   29  C41   D T 299     -94.759  -2.332 -74.531  1.00 41.01     0.037 C 
ENDBRANCH  25  28
ENDBRANCH  24  25
ENDBRANCH  23  24
ENDBRANCH  21  23
ENDBRANCH   6  20
TORSDOF 8
ENDMDL
MODEL 2
REMARK VINA RESULT:      -8.1      2.430      4.213
REMARK  8 active torsions:
REMARK  status: ('A' for Active; 'I' for Inactive)
REMARK    1  A    between atoms: C20_8  and  C12_12 
REMARK    2  A    between atoms: C22_10  and  C19_16 
REMARK       I    between atoms: C22_10  and  N25_19 
REMARK    3  A    between atoms: C12_12  and  C18_15 
REMARK    4  A    between atoms: N25_19  and  C37_23 
REMARK    5  A    between atoms: C37_23  and  C38_24 
REMARK    6  A    between atoms: C38_24  and  N4_25 
REMARK    7  A    between atoms: N4_25  and  C39_26 
REMARK    8  A    between atoms: N4_25  and  C40_27 
ROOT
HETATM    1  C4    D T 299     -91.452  -5.138 -79.321  1.00 31.87     0.052 C 
HETATM    2  C13   D T 299     -93.733  -6.361 -82.058  1.00 35.43    -0.002 A 
HETATM    3  C3    D T 299     -94.892  -6.315 -83.021  1.00 37.61     0.033 C 
HETATM    4  C14   D T 299     -92.218  -5.856 -80.439  1.00 34.64     0.063 A 
HETATM    5  C18   D T 299     -92.813  -7.413 -81.942  1.00 34.31     0.059 A 
HETATM    6  C19   D T 299     -93.371  -5.373 -81.134  1.00 36.11     0.068 A 
HETATM    7  N23   D T 299     -91.897  -7.090 -80.946  1.00 32.82    -0.254 NA
ENDROOT
BRANCH   5   8
HETATM    8  C12   D T 299     -92.894  -8.676 -82.788  1.00 31.34     0.075 C 
BRANCH   8   9
HETATM    9  C20   D T 299     -91.635  -9.197 -83.512  1.00 27.84     0.029 A 
HETATM   10  C17   D T 299     -91.709  -9.590 -84.903  1.00 29.49     0.020 A 
HETATM   11  C7    D T 299     -92.789  -9.581 -85.798  1.00 33.30     0.031 A 
HETATM   12  C16   D T 299     -90.467 -10.001 -85.293  1.00 26.85     0.084 A 
HETATM   13  C15   D T 299     -92.604 -10.015 -87.124  1.00 30.79     0.140 A 
HETATM   14  C5    D T 299     -91.343 -10.443 -87.549  1.00 28.60     0.031 A 
HETATM   15  F29   D T 299     -93.650 -10.005 -87.933  1.00 28.40    -0.204 F 
HETATM   16  C6    D T 299     -90.266 -10.441 -86.644  1.00 25.34     0.021 A 
HETATM   17  N24   D T 299     -89.607  -9.875 -84.158  1.00 26.35    -0.220 NA
HETATM   18  C21   D T 299     -90.310  -9.397 -83.084  1.00 26.17     0.209 A 
HETATM   19  O27   D T 299     -89.792  -9.156 -81.828  1.00 26.42    -0.170 OA
ENDBRANCH   8   9
ENDBRANCH   5   8
BRANCH   6  20
HETATM   20  C22   D T 299     -94.121  -4.038 -80.905  1.00 37.52     0.276 C 
HETATM   21  N25   D T 299     -94.576  -3.669 -79.564  1.00 36.66    -0.232 NA
HETATM   22  O28   D T 299     -94.328  -3.257 -81.872  1.00 36.30    -0.266 OA
BRANCH  21  23
HETATM   23  C37   D T 299     -95.256  -2.430 -79.360  1.00 41.76     0.164 C 
BRANCH  23  24
HETATM   24  C38   D T 299     -96.709  -2.423 -78.950  1.00 43.50     0.276 C 
BRANCH  24  25
HETATM   25  N4    D T 299     -97.749  -2.483 -79.983  1.00 42.38     0.139 N 
BRANCH  25  26
HETATM   26  C39   D T 299     -98.381  -3.773 -80.012  1.00 41.85     0.250 C 
HETATM   27  C42   D T 299     -97.822  -4.849 -80.884  1.00 47.83     0.037 C 
ENDBRANCH  25  26
BRANCH  25  28
HETATM   28  C40   D T 299     -98.719  -1.456 -79.783  1.00 35.07     0.250 C 
HETATM   29  C41   D T 299     -98.687  -0.680 -78.463  1.00 41.01     0.037 C 
ENDBRANCH  25  28
ENDBRANCH  24  25
ENDBRANCH  23  24
ENDBRANCH  21  23
ENDBRANCH   6  20
TORSDOF 8
ENDMDL
MODEL 3
REMARK VINA RESULT:      -7.8      2.026      2.406
REMARK  8 active torsions:
REMARK  status: ('A' for Active; 'I' for Inactive)
REMARK    1  A    between atoms: C20_8  and  C12_12 
REMARK    2  A    between atoms: C22_10  and  C19_16 
REMARK       I    between atoms: C22_10  and  N25_19 
REMARK    3  A    between atoms: C12_12  and  C18_15 
REMARK    4  A    between atoms: N25_19  and  C37_23 
REMARK    5  A    between atoms: C37_23  and  C38_24 
REMARK    6  A    between atoms: C38_24  and  N4_25 
REMARK    7  A    between atoms: N4_25  and  C39_26 
REMARK    8  A    between atoms: N4_25  and  C40_27 
ROOT
HETATM    1  C4    D T 299     -97.739  -6.933 -80.557  1.00 31.87     0.052 C 
HETATM    2  C13   D T 299     -94.987  -4.791 -81.983  1.00 35.43    -0.002 A 
HETATM    3  C3    D T 299     -94.186  -3.536 -82.214  1.00 37.61     0.033 C 
HETATM    4  C14   D T 299     -96.538  -6.290 -81.263  1.00 34.64     0.063 A 
HETATM    5  C18   D T 299     -94.717  -6.045 -82.552  1.00 34.31     0.059 A 
HETATM    6  C19   D T 299     -96.116  -4.927 -81.165  1.00 36.11     0.068 A 
HETATM    7  N23   D T 299     -95.677  -6.948 -82.105  1.00 32.82    -0.254 NA
ENDROOT
BRANCH   5   8
HETATM    8  C12   D T 299     -93.561  -6.282 -83.513  1.00 31.34     0.075 C 
BRANCH   8   9
HETATM    9  C20   D T 299     -93.580  -7.508 -84.450  1.00 27.84     0.029 A 
HETATM   10  C17   D T 299     -92.474  -8.441 -84.446  1.00 29.49     0.020 A 
HETATM   11  C7    D T 299     -91.294  -8.455 -83.688  1.00 33.30     0.031 A 
HETATM   12  C16   D T 299     -92.748  -9.424 -85.354  1.00 26.85     0.084 A 
HETATM   13  C15   D T 299     -90.359  -9.491 -83.867  1.00 30.79     0.140 A 
HETATM   14  C5    D T 299     -90.613 -10.509 -84.790  1.00 28.60     0.031 A 
HETATM   15  F29   D T 299     -89.252  -9.462 -83.144  1.00 28.40    -0.204 F 
HETATM   16  C6    D T 299     -91.803 -10.489 -85.540  1.00 25.34     0.021 A 
HETATM   17  N24   D T 299     -94.018  -9.118 -85.935  1.00 26.35    -0.220 NA
HETATM   18  C21   D T 299     -94.516  -7.962 -85.396  1.00 26.17     0.209 A 
HETATM   19  O27   D T 299     -95.720  -7.375 -85.730  1.00 26.42    -0.170 OA
ENDBRANCH   8   9
ENDBRANCH   5   8
BRANCH   6  20
HETATM   20  C22   D T 299     -96.779  -3.790 -80.351  1.00 37.52     0.276 C 
HETATM   21  N25   D T 299     -96.004  -3.045 -79.358  1.00 36.66    -0.232 NA
HETATM   22  O28   D T 299     -97.986  -3.491 -80.553  1.00 36.30    -0.266 OA
BRANCH  21  23
HETATM   23  C37   D T 299     -96.622  -1.989 -78.621  1.00 41.76     0.164 C 
BRANCH  23  24
HETATM   24  C38   D T 299     -96.019  -1.524 -77.317  1.00 43.50     0.276 C 
BRANCH  24  25
HETATM   25  N4    D T 299     -94.561  -1.519 -77.159  1.00 42.38     0.139 N 
BRANCH  25  26
HETATM   26  C39   D T 299     -94.079  -0.215 -76.796  1.00 41.85     0.250 C 
HETATM   27  C42   D T 299     -92.689   0.188 -77.163  1.00 47.83     0.037 C 
ENDBRANCH  25  26
BRANCH  25  28
HETATM   28  C40   D T 299     -94.154  -2.488 -76.195  1.00 35.07     0.250 C 
HETATM   29  C41   D T 299     -94.968  -2.606 -74.902  1.00 41.01     0.037 C 
ENDBRANCH  25  28
ENDBRANCH  24  25
ENDBRANCH  23  24
ENDBRANCH  21  23
ENDBRANCH   6  20
TORSDOF 8
ENDMDL
MODEL 4
REMARK VINA RESULT:      -7.7      1.241      2.040
REMARK  8 active torsions:
REMARK  status: ('A' for Active; 'I' for Inactive)
REMARK    1  A    between atoms: C20_8  and  C12_12 
REMARK    2  A    between atoms: C22_10  and  C19_16 
REMARK       I    between atoms: C22_10  and  N25_19 
REMARK    3  A    between atoms: C12_12  and  C18_15 
REMARK    4  A    between atoms: N25_19  and  C37_23 
REMARK    5  A    between atoms: C37_23  and  C38_24 
REMARK    6  A    between atoms: C38_24  and  N4_25 
REMARK    7  A    between atoms: N4_25  and  C39_26 
REMARK    8  A    between atoms: N4_25  and  C40_27 
ROOT
HETATM    1  C4    D T 299     -94.407  -2.069 -81.978  1.00 31.87     0.052 C 
HETATM    2  C13   D T 299     -95.914  -5.487 -81.484  1.00 35.43    -0.002 A 
HETATM    3  C3    D T 299     -96.774  -6.542 -80.839  1.00 37.61     0.033 C 
HETATM    4  C14   D T 299     -94.870  -3.532 -81.994  1.00 34.64     0.063 A 
HETATM    5  C18   D T 299     -95.081  -5.684 -82.596  1.00 34.31     0.059 A 
HETATM    6  C19   D T 299     -95.803  -4.145 -81.100  1.00 36.11     0.068 A 
HETATM    7  N23   D T 299     -94.448  -4.480 -82.892  1.00 32.82    -0.254 NA
ENDROOT
BRANCH   5   8
HETATM    8  C12   D T 299     -94.933  -7.032 -83.286  1.00 31.34     0.075 C 
BRANCH   8   9
HETATM    9  C20   D T 299     -93.640  -7.853 -83.100  1.00 27.84     0.029 A 
HETATM   10  C17   D T 299     -93.112  -8.633 -84.199  1.00 29.49     0.020 A 
HETATM   11  C7    D T 299     -93.580  -8.796 -85.511  1.00 33.30     0.031 A 
HETATM   12  C16   D T 299     -91.971  -9.248 -83.769  1.00 26.85     0.084 A 
HETATM   13  C15   D T 299     -92.876  -9.619 -86.409  1.00 30.79     0.140 A 
HETATM   14  C5    D T 299     -91.705 -10.262 -85.996  1.00 28.60     0.031 A 
HETATM   15  F29   D T 299     -93.356  -9.758 -87.633  1.00 28.40    -0.204 F 
HETATM   16  C6    D T 299     -91.241 -10.086 -84.679  1.00 25.34     0.021 A 
HETATM   17  N24   D T 299     -91.774  -8.866 -82.406  1.00 26.35    -0.220 NA
HETATM   18  C21   D T 299     -92.781  -8.031 -82.001  1.00 26.17     0.209 A 
HETATM   19  O27   D T 299     -92.905  -7.474 -80.744  1.00 26.42    -0.170 OA
ENDBRANCH   8   9
ENDBRANCH   5   8
BRANCH   6  20
HETATM   20  C22   D T 299     -96.537  -3.488 -79.905  1.00 37.52     0.276 C 
HETATM   21  N25   D T 299     -95.823  -2.568 -79.018  1.00 36.66    -0.232 NA
HETATM   22  O28   D T 299     -97.756  -3.732 -79.703  1.00 36.30    -0.266 OA
BRANCH  21  23
HETATM   23  C37   D T 299     -96.512  -1.958 -77.925  1.00 41.76     0.164 C 
BRANCH  23  24
HETATM   24  C38   D T 299     -95.748  -1.136 -76.914  1.00 43.50     0.276 C 
BRANCH  24  25
HETATM   25  N4    D T 299     -94.326  -1.415 -76.687  1.00 42.38     0.139 N 
BRANCH  25  26
HETATM   26  C39   D T 299     -93.779  -0.547 -75.681  1.00 41.85     0.250 C 
HETATM   27  C42   D T 299     -93.701  -1.014 -74.265  1.00 47.83     0.037 C 
ENDBRANCH  25  26
BRANCH  25  28
HETATM   28  C40   D T 299     -94.131  -2.781 -76.328  1.00 35.07     0.250 C 
HETATM   29  C41   D T 299     -92.991  -3.549 -77.005  1.00 41.01     0.037 C 
ENDBRANCH  25  28
ENDBRANCH  24  25
ENDBRANCH  23  24
ENDBRANCH  21  23
ENDBRANCH   6  20
TORSDOF 8
ENDMDL
MODEL 5
REMARK VINA RESULT:      -7.3      4.242      6.087
REMARK  8 active torsions:
REMARK  status: ('A' for Active; 'I' for Inactive)
REMARK    1  A    between atoms: C20_8  and  C12_12 
REMARK    2  A    between atoms: C22_10  and  C19_16 
REMARK       I    between atoms: C22_10  and  N25_19 
REMARK    3  A    between atoms: C12_12  and  C18_15 
REMARK    4  A    between atoms: N25_19  and  C37_23 
REMARK    5  A    between atoms: C37_23  and  C38_24 
REMARK    6  A    between atoms: C38_24  and  N4_25 
REMARK    7  A    between atoms: N4_25  and  C39_26 
REMARK    8  A    between atoms: N4_25  and  C40_27 
ROOT
HETATM    1  C4    D T 299     -93.498  -4.647 -80.021  1.00 31.87     0.052 C 
HETATM    2  C13   D T 299     -91.438  -7.619 -81.077  1.00 35.43    -0.002 A 
HETATM    3  C3    D T 299     -90.233  -8.522 -81.128  1.00 37.61     0.033 C 
HETATM    4  C14   D T 299     -92.879  -5.926 -80.599  1.00 34.64     0.063 A 
HETATM    5  C18   D T 299     -92.636  -7.821 -81.778  1.00 34.31     0.059 A 
HETATM    6  C19   D T 299     -91.574  -6.445 -80.326  1.00 36.11     0.068 A 
HETATM    7  N23   D T 299     -93.504  -6.775 -81.478  1.00 32.82    -0.254 NA
ENDROOT
BRANCH   5   8
HETATM    8  C12   D T 299     -92.856  -9.001 -82.713  1.00 31.34     0.075 C 
BRANCH   8   9
HETATM    9  C20   D T 299     -93.305  -8.755 -84.169  1.00 27.84     0.029 A 
HETATM   10  C17   D T 299     -92.613  -9.405 -85.261  1.00 29.49     0.020 A 
HETATM   11  C7    D T 299     -91.529 -10.295 -85.254  1.00 33.30     0.031 A 
HETATM   12  C16   D T 299     -93.211  -9.022 -86.427  1.00 26.85     0.084 A 
HETATM   13  C15   D T 299     -91.031 -10.802 -86.469  1.00 30.79     0.140 A 
HETATM   14  C5    D T 299     -91.623 -10.425 -87.678  1.00 28.60     0.031 A 
HETATM   15  F29   D T 299     -90.000 -11.628 -86.422  1.00 28.40    -0.204 F 
HETATM   16  C6    D T 299     -92.714  -9.537 -87.672  1.00 25.34     0.021 A 
HETATM   17  N24   D T 299     -94.275  -8.132 -86.082  1.00 26.35    -0.220 NA
HETATM   18  C21   D T 299     -94.328  -7.966 -84.724  1.00 26.17     0.209 A 
HETATM   19  O27   D T 299     -95.233  -7.172 -84.047  1.00 26.42    -0.170 OA
ENDBRANCH   8   9
ENDBRANCH   5   8
BRANCH   6  20
HETATM   20  C22   D T 299     -90.486  -5.830 -79.412  1.00 37.52     0.276 C 
HETATM   21  N25   D T 299     -90.176  -6.444 -78.121  1.00 36.66    -0.232 NA
HETATM   22  O28   D T 299     -89.854  -4.807 -79.786  1.00 36.30    -0.266 OA
BRANCH  21  23
HETATM   23  C37   D T 299     -89.162  -5.877 -77.289  1.00 41.76     0.164 C 
BRANCH  23  24
HETATM   24  C38   D T 299     -88.980  -6.371 -75.874  1.00 43.50     0.276 C 
BRANCH  24  25
HETATM   25  N4    D T 299     -88.871  -7.811 -75.623  1.00 42.38     0.139 N 
BRANCH  25  26
HETATM   26  C39   D T 299     -87.669  -8.125 -74.902  1.00 41.85     0.250 C 
HETATM   27  C42   D T 299     -86.411  -8.414 -75.652  1.00 47.83     0.037 C 
ENDBRANCH  25  26
BRANCH  25  28
HETATM   28  C40   D T 299     -90.015  -8.290 -74.919  1.00 35.07     0.250 C 
HETATM   29  C41   D T 299     -90.605  -9.641 -75.335  1.00 41.01     0.037 C 
ENDBRANCH  25  28
ENDBRANCH  24  25
ENDBRANCH  23  24
ENDBRANCH  21  23
ENDBRANCH   6  20
TORSDOF 8
ENDMDL
MODEL 6
REMARK VINA RESULT:      -7.1      2.225      3.076
REMARK  8 active torsions:
REMARK  status: ('A' for Active; 'I' for Inactive)
REMARK    1  A    between atoms: C20_8  and  C12_12 
REMARK    2  A    between atoms: C22_10  and  C19_16 
REMARK       I    between atoms: C22_10  and  N25_19 
REMARK    3  A    between atoms: C12_12  and  C18_15 
REMARK    4  A    between atoms: N25_19  and  C37_23 
REMARK    5  A    between atoms: C37_23  and  C38_24 
REMARK    6  A    between atoms: C38_24  and  N4_25 
REMARK    7  A    between atoms: N4_25  and  C39_26 
REMARK    8  A    between atoms: N4_25  and  C40_27 
ROOT
HETATM    1  C4    D T 299     -94.345  -2.209 -81.885  1.00 31.87     0.052 C 
HETATM    2  C13   D T 299     -96.369  -5.328 -81.278  1.00 35.43    -0.002 A 
HETATM    3  C3    D T 299     -97.420  -6.194 -80.635  1.00 37.61     0.033 C 
HETATM    4  C14   D T 299     -95.014  -3.588 -81.835  1.00 34.64     0.063 A 
HETATM    5  C18   D T 299     -95.493  -5.732 -82.297  1.00 34.31     0.059 A 
HETATM    6  C19   D T 299     -96.092  -3.987 -80.983  1.00 36.11     0.068 A 
HETATM    7  N23   D T 299     -94.670  -4.658 -82.622  1.00 32.82    -0.254 NA
ENDROOT
BRANCH   5   8
HETATM    8  C12   D T 299     -95.493  -7.141 -82.873  1.00 31.34     0.075 C 
BRANCH   8   9
HETATM    9  C20   D T 299     -94.185  -7.744 -83.426  1.00 27.84     0.029 A 
HETATM   10  C17   D T 299     -93.020  -7.853 -82.574  1.00 29.49     0.020 A 
HETATM   11  C7    D T 299     -92.834  -7.495 -81.231  1.00 33.30     0.031 A 
HETATM   12  C16   D T 299     -92.015  -8.421 -83.304  1.00 26.85     0.084 A 
HETATM   13  C15   D T 299     -91.587  -7.708 -80.615  1.00 30.79     0.140 A 
HETATM   14  C5    D T 299     -90.541  -8.287 -81.339  1.00 28.60     0.031 A 
HETATM   15  F29   D T 299     -91.448  -7.345 -79.351  1.00 28.40    -0.204 F 
HETATM   16  C6    D T 299     -90.740  -8.648 -82.684  1.00 25.34     0.021 A 
HETATM   17  N24   D T 299     -92.535  -8.670 -84.613  1.00 26.35    -0.220 NA
HETATM   18  C21   D T 299     -93.838  -8.258 -84.689  1.00 26.17     0.209 A 
HETATM   19  O27   D T 299     -94.644  -8.347 -85.805  1.00 26.42    -0.170 OA
ENDBRANCH   8   9
ENDBRANCH   5   8
BRANCH   6  20
HETATM   20  C22   D T 299     -96.809  -3.136 -79.907  1.00 37.52     0.276 C 
HETATM   21  N25   D T 299     -96.031  -2.420 -78.895  1.00 36.66    -0.232 NA
HETATM   22  O28   D T 299     -98.066  -3.047 -79.908  1.00 36.30    -0.266 OA
BRANCH  21  23
HETATM   23  C37   D T 299     -96.701  -1.628 -77.913  1.00 41.76     0.164 C 
BRANCH  23  24
HETATM   24  C38   D T 299     -95.928  -1.051 -76.751  1.00 43.50     0.276 C 
BRANCH  24  25
HETATM   25  N4    D T 299     -94.614  -1.608 -76.414  1.00 42.38     0.139 N 
BRANCH  25  26
HETATM   26  C39   D T 299     -93.672  -0.568 -76.102  1.00 41.85     0.250 C 
HETATM   27  C42   D T 299     -92.841   0.027 -77.190  1.00 47.83     0.037 C 
ENDBRANCH  25  26
BRANCH  25  28
HETATM   28  C40   D T 299     -94.719  -2.529 -75.330  1.00 35.07     0.250 C 
HETATM   29  C41   D T 299     -93.979  -2.200 -74.029  1.00 41.01     0.037 C 
ENDBRANCH  25  28
ENDBRANCH  24  25
ENDBRANCH  23  24
ENDBRANCH  21  23
ENDBRANCH   6  20
TORSDOF 8
ENDMDL
MODEL 7
REMARK VINA RESULT:      -7.1      2.625      4.452
REMARK  8 active torsions:
REMARK  status: ('A' for Active; 'I' for Inactive)
REMARK    1  A    between atoms: C20_8  and  C12_12 
REMARK    2  A    between atoms: C22_10  and  C19_16 
REMARK       I    between atoms: C22_10  and  N25_19 
REMARK    3  A    between atoms: C12_12  and  C18_15 
REMARK    4  A    between atoms: N25_19  and  C37_23 
REMARK    5  A    between atoms: C37_23  and  C38_24 
REMARK    6  A    between atoms: C38_24  and  N4_25 
REMARK    7  A    between atoms: N4_25  and  C39_26 
REMARK    8  A    between atoms: N4_25  and  C40_27 
ROOT
HETATM    1  C4    D T 299     -95.364  -6.621 -83.768  1.00 31.87     0.052 C 
HETATM    2  C13   D T 299     -92.209  -6.768 -81.715  1.00 35.43    -0.002 A 
HETATM    3  C3    D T 299     -91.189  -6.306 -80.706  1.00 37.61     0.033 C 
HETATM    4  C14   D T 299     -94.035  -6.918 -83.062  1.00 34.64     0.063 A 
HETATM    5  C18   D T 299     -92.132  -7.949 -82.467  1.00 34.31     0.059 A 
HETATM    6  C19   D T 299     -93.397  -6.115 -82.064  1.00 36.11     0.068 A 
HETATM    7  N23   D T 299     -93.253  -8.023 -83.288  1.00 32.82    -0.254 NA
ENDROOT
BRANCH   5   8
HETATM    8  C12   D T 299     -90.964  -8.920 -82.361  1.00 31.34     0.075 C 
BRANCH   8   9
HETATM    9  C20   D T 299     -90.211  -9.356 -83.635  1.00 27.84     0.029 A 
HETATM   10  C17   D T 299     -90.947  -9.690 -84.835  1.00 29.49     0.020 A 
HETATM   11  C7    D T 299     -92.326  -9.686 -85.090  1.00 33.30     0.031 A 
HETATM   12  C16   D T 299     -90.046 -10.033 -85.802  1.00 26.85     0.084 A 
HETATM   13  C15   D T 299     -92.804 -10.053 -86.362  1.00 30.79     0.140 A 
HETATM   14  C5    D T 299     -91.904 -10.410 -87.370  1.00 28.60     0.031 A 
HETATM   15  F29   D T 299     -94.112 -10.050 -86.559  1.00 28.40    -0.204 F 
HETATM   16  C6    D T 299     -90.523 -10.404 -87.104  1.00 25.34     0.021 A 
HETATM   17  N24   D T 299     -88.744  -9.921 -85.222  1.00 26.35    -0.220 NA
HETATM   18  C21   D T 299     -88.842  -9.520 -83.916  1.00 26.17     0.209 A 
HETATM   19  O27   D T 299     -87.781  -9.314 -83.058  1.00 26.42    -0.170 OA
ENDBRANCH   8   9
ENDBRANCH   5   8
BRANCH   6  20
HETATM   20  C22   D T 299     -93.882  -4.761 -81.491  1.00 37.52     0.276 C 
HETATM   21  N25   D T 299     -94.202  -4.636 -80.068  1.00 36.66    -0.232 NA
HETATM   22  O28   D T 299     -93.988  -3.758 -82.245  1.00 36.30    -0.266 OA
BRANCH  21  23
HETATM   23  C37   D T 299     -94.638  -3.380 -79.545  1.00 41.76     0.164 C 
BRANCH  23  24
HETATM   24  C38   D T 299     -95.827  -2.678 -80.156  1.00 43.50     0.276 C 
BRANCH  24  25
HETATM   25  N4    D T 299     -97.180  -3.142 -79.834  1.00 42.38     0.139 N 
BRANCH  25  26
HETATM   26  C39   D T 299     -98.117  -2.053 -79.825  1.00 41.85     0.250 C 
HETATM   27  C42   D T 299     -98.412  -1.342 -78.546  1.00 47.83     0.037 C 
ENDBRANCH  25  26
BRANCH  25  28
HETATM   28  C40   D T 299     -97.598  -4.154 -80.748  1.00 35.07     0.250 C 
HETATM   29  C41   D T 299     -98.296  -5.395 -80.183  1.00 41.01     0.037 C 
ENDBRANCH  25  28
ENDBRANCH  24  25
ENDBRANCH  23  24
ENDBRANCH  21  23
ENDBRANCH   6  20
TORSDOF 8
ENDMDL
MODEL 8
REMARK VINA RESULT:      -6.8      3.120      8.637
REMARK  8 active torsions:
REMARK  status: ('A' for Active; 'I' for Inactive)
REMARK    1  A    between atoms: C20_8  and  C12_12 
REMARK    2  A    between atoms: C22_10  and  C19_16 
REMARK       I    between atoms: C22_10  and  N25_19 
REMARK    3  A    between atoms: C12_12  and  C18_15 
REMARK    4  A    between atoms: N25_19  and  C37_23 
REMARK    5  A    between atoms: C37_23  and  C38_24 
REMARK    6  A    between atoms: C38_24  and  N4_25 
REMARK    7  A    between atoms: N4_25  and  C39_26 
REMARK    8  A    between atoms: N4_25  and  C40_27 
ROOT
HETATM    1  C4    D T 299     -98.449  -3.185 -80.480  1.00 31.87     0.052 C 
HETATM    2  C13   D T 299     -94.795  -3.801 -79.796  1.00 35.43    -0.002 A 
HETATM    3  C3    D T 299     -93.452  -4.469 -79.936  1.00 37.61     0.033 C 
HETATM    4  C14   D T 299     -96.984  -3.228 -80.026  1.00 34.64     0.063 A 
HETATM    5  C18   D T 299     -95.084  -2.728 -78.939  1.00 34.31     0.059 A 
HETATM    6  C19   D T 299     -95.968  -4.120 -80.491  1.00 36.11     0.068 A 
HETATM    7  N23   D T 299     -96.427  -2.394 -79.089  1.00 32.82    -0.254 NA
ENDROOT
BRANCH   5   8
HETATM    8  C12   D T 299     -94.047  -2.112 -78.011  1.00 31.34     0.075 C 
BRANCH   8   9
HETATM    9  C20   D T 299     -94.406  -1.830 -76.537  1.00 27.84     0.029 A 
HETATM   10  C17   D T 299     -94.008  -2.761 -75.503  1.00 29.49     0.020 A 
HETATM   11  C7    D T 299     -93.292  -3.964 -75.584  1.00 33.30     0.031 A 
HETATM   12  C16   D T 299     -94.442  -2.271 -74.304  1.00 26.85     0.084 A 
HETATM   13  C15   D T 299     -93.022  -4.699 -74.415  1.00 30.79     0.140 A 
HETATM   14  C5    D T 299     -93.456  -4.223 -73.175  1.00 28.60     0.031 A 
HETATM   15  F29   D T 299     -92.357  -5.836 -74.535  1.00 28.40    -0.204 F 
HETATM   16  C6    D T 299     -94.167  -3.011 -73.104  1.00 25.34     0.021 A 
HETATM   17  N24   D T 299     -95.116  -1.039 -74.572  1.00 26.35    -0.220 NA
HETATM   18  C21   D T 299     -95.100  -0.776 -75.916  1.00 26.17     0.209 A 
HETATM   19  O27   D T 299     -95.661   0.329 -76.524  1.00 26.42    -0.170 OA
ENDBRANCH   8   9
ENDBRANCH   5   8
BRANCH   6  20
HETATM   20  C22   D T 299     -96.114  -5.255 -81.534  1.00 37.52     0.276 C 
HETATM   21  N25   D T 299     -95.336  -5.223 -82.773  1.00 36.66    -0.232 NA
HETATM   22  O28   D T 299     -96.894  -6.220 -81.311  1.00 36.30    -0.266 OA
BRANCH  21  23
HETATM   23  C37   D T 299     -95.469  -6.281 -83.723  1.00 41.76     0.164 C 
BRANCH  23  24
HETATM   24  C38   D T 299     -94.670  -7.551 -83.558  1.00 43.50     0.276 C 
BRANCH  24  25
HETATM   25  N4    D T 299     -93.245  -7.555 -83.904  1.00 42.38     0.139 N 
BRANCH  25  26
HETATM   26  C39   D T 299     -92.427  -7.321 -82.746  1.00 41.85     0.250 C 
HETATM   27  C42   D T 299     -92.883  -7.804 -81.409  1.00 47.83     0.037 C 
ENDBRANCH  25  26
BRANCH  25  28
HETATM   28  C40   D T 299     -92.881  -8.783 -84.533  1.00 35.07     0.250 C 
HETATM   29  C41   D T 299     -93.662  -9.214 -85.778  1.00 41.01     0.037 C 
ENDBRANCH  25  28
ENDBRANCH  24  25
ENDBRANCH  23  24
ENDBRANCH  21  23
ENDBRANCH   6  20
TORSDOF 8
ENDMDL
MODEL 9
REMARK VINA RESULT:      -6.6      3.588      9.607
REMARK  8 active torsions:
REMARK  status: ('A' for Active; 'I' for Inactive)
REMARK    1  A    between atoms: C20_8  and  C12_12 
REMARK    2  A    between atoms: C22_10  and  C19_16 
REMARK       I    between atoms: C22_10  and  N25_19 
REMARK    3  A    between atoms: C12_12  and  C18_15 
REMARK    4  A    between atoms: N25_19  and  C37_23 
REMARK    5  A    between atoms: C37_23  and  C38_24 
REMARK    6  A    between atoms: C38_24  and  N4_25 
REMARK    7  A    between atoms: N4_25  and  C39_26 
REMARK    8  A    between atoms: N4_25  and  C40_27 
ROOT
HETATM    1  C4    D T 299     -94.597  -5.841 -81.762  1.00 31.87     0.052 C 
HETATM    2  C13   D T 299     -91.513  -5.480 -79.628  1.00 35.43    -0.002 A 
HETATM    3  C3    D T 299     -90.080  -5.696 -79.216  1.00 37.61     0.033 C 
HETATM    4  C14   D T 299     -93.499  -5.535 -80.736  1.00 34.64     0.063 A 
HETATM    5  C18   D T 299     -92.452  -4.703 -78.933  1.00 34.31     0.059 A 
HETATM    6  C19   D T 299     -92.146  -6.000 -80.764  1.00 36.11     0.068 A 
HETATM    7  N23   D T 299     -93.660  -4.751 -79.621  1.00 32.82    -0.254 NA
ENDROOT
BRANCH   5   8
HETATM    8  C12   D T 299     -92.124  -3.982 -77.633  1.00 31.34     0.075 C 
BRANCH   8   9
HETATM    9  C20   D T 299     -93.259  -3.355 -76.796  1.00 27.84     0.029 A 
HETATM   10  C17   D T 299     -93.452  -3.757 -75.419  1.00 29.49     0.020 A 
HETATM   11  C7    D T 299     -92.745  -4.675 -74.629  1.00 33.30     0.031 A 
HETATM   12  C16   D T 299     -94.507  -3.050 -74.917  1.00 26.85     0.084 A 
HETATM   13  C15   D T 299     -93.131  -4.893 -73.293  1.00 30.79     0.140 A 
HETATM   14  C5    D T 299     -94.208  -4.184 -72.754  1.00 28.60     0.031 A 
HETATM   15  F29   D T 299     -92.449  -5.776 -72.585  1.00 28.40    -0.204 F 
HETATM   16  C6    D T 299     -94.905  -3.260 -73.554  1.00 25.34     0.021 A 
HETATM   17  N24   D T 299     -94.985  -2.206 -75.967  1.00 26.35    -0.220 NA
HETATM   18  C21   D T 299     -94.239  -2.393 -77.099  1.00 26.17     0.209 A 
HETATM   19  O27   D T 299     -94.428  -1.741 -78.301  1.00 26.42    -0.170 OA
ENDBRANCH   8   9
ENDBRANCH   5   8
BRANCH   6  20
HETATM   20  C22   D T 299     -91.490  -6.930 -81.813  1.00 37.52     0.276 C 
HETATM   21  N25   D T 299     -91.559  -8.384 -81.655  1.00 36.66    -0.232 NA
HETATM   22  O28   D T 299     -90.906  -6.438 -82.815  1.00 36.30    -0.266 OA
BRANCH  21  23
HETATM   23  C37   D T 299     -90.960  -9.234 -82.634  1.00 41.76     0.164 C 
BRANCH  23  24
HETATM   24  C38   D T 299     -91.816  -9.889 -83.692  1.00 43.50     0.276 C 
BRANCH  24  25
HETATM   25  N4    D T 299     -92.234  -9.112 -84.863  1.00 42.38     0.139 N 
BRANCH  25  26
HETATM   26  C39   D T 299     -92.370  -9.948 -86.023  1.00 41.85     0.250 C 
HETATM   27  C42   D T 299     -91.159 -10.319 -86.813  1.00 47.83     0.037 C 
ENDBRANCH  25  26
BRANCH  25  28
HETATM   28  C40   D T 299     -93.453  -8.419 -84.600  1.00 35.07     0.250 C 
HETATM   29  C41   D T 299     -94.752  -9.006 -85.162  1.00 41.01     0.037 C 
ENDBRANCH  25  28
ENDBRANCH  24  25
ENDBRANCH  23  24
ENDBRANCH  21  23
ENDBRANCH   6  20
TORSDOF 8
ENDMDL
