MODEL 1
REMARK VINA RESULT:    -8.367      0.000      0.000
REMARK INTER + INTRA:         -13.224
REMARK INTER:                 -12.280
REMARK INTRA:                  -0.944
REMARK UNBOUND:                -0.944
REMARK  8 active torsions:
REMARK  status: ('A' for Active; 'I' for Inactive)
REMARK    1  A    between atoms: C20_8  and  C12_12 
REMARK    2  A    between atoms: C22_10  and  C19_16 
REMARK       I    between atoms: C22_10  and  N25_19 
REMARK    3  A    between atoms: C12_12  and  C18_15 
REMARK    4  A    between atoms: N25_19  and  C37_23 
REMARK    5  A    between atoms: C37_23  and  C38_24 
REMARK    6  A    between atoms: C38_24  and  N4_25 
REMARK    7  A    between atoms: N4_25  and  C39_26 
REMARK    8  A    between atoms: N4_25  and  C40_27 
ROOT
HETATM    1  C4    D T 299       0.011   3.333 -13.238  1.00 31.87     0.052 C 
HETATM    2  C13   D T 299      -0.445   1.773  -9.838  1.00 35.43    -0.002 A 
HETATM    3  C3    D T 299      -0.280   1.624  -8.348  1.00 37.61     0.033 C 
HETATM    4  C14   D T 299      -0.325   2.512 -11.986  1.00 34.64     0.063 A 
HETATM    5  C18   D T 299      -1.177   0.909 -10.666  1.00 34.31     0.059 A 
HETATM    6  C19   D T 299       0.087   2.788 -10.645  1.00 36.11     0.068 A 
HETATM    7  N23   D T 299      -1.090   1.373 -11.976  1.00 32.82    -0.254 NA
ENDROOT
BRANCH   5   8
HETATM    8  C12   D T 299      -1.895  -0.326 -10.139  1.00 31.34     0.075 C 
BRANCH   8   9
HETATM    9  C20   D T 299      -2.103  -1.546 -11.061  1.00 27.84     0.029 A 
HETATM   10  C17   D T 299      -1.157  -2.641 -11.039  1.00 29.49     0.020 A 
HETATM   11  C7    D T 299       0.002  -2.830 -10.275  1.00 33.30     0.031 A 
HETATM   12  C16   D T 299      -1.579  -3.581 -11.936  1.00 26.85     0.084 A 
HETATM   13  C15   D T 299       0.766  -4.001 -10.436  1.00 30.79     0.140 A 
HETATM   14  C5    D T 299       0.358  -4.979 -11.348  1.00 28.60     0.031 A 
HETATM   15  F29   D T 299       1.860  -4.136  -9.707  1.00 28.40    -0.204 F 
HETATM   16  C6    D T 299      -0.811  -4.782 -12.105  1.00 25.34     0.021 A 
HETATM   17  N24   D T 299      -2.783  -3.086 -12.528  1.00 26.35    -0.220 NA
HETATM   18  C21   D T 299      -3.097  -1.860 -12.007  1.00 26.17     0.209 A 
HETATM   19  O27   D T 299      -4.192  -1.097 -12.354  1.00 26.42    -0.170 OA
ENDBRANCH   8   9
ENDBRANCH   5   8
BRANCH   6  20
HETATM   20  C22   D T 299       0.979   3.953 -10.151  1.00 37.52     0.276 C 
HETATM   21  N25   D T 299       2.305   3.681  -9.595  1.00 36.66    -0.232 NA
HETATM   22  O28   D T 299       0.571   5.141 -10.243  1.00 36.30    -0.266 OA
BRANCH  21  23
HETATM   23  C37   D T 299       3.127   4.763  -9.153  1.00 41.76     0.164 C 
BRANCH  23  24
HETATM   24  C38   D T 299       4.542   4.502  -8.698  1.00 43.50     0.276 C 
BRANCH  24  25
HETATM   25  N4    D T 299       5.629   5.345  -9.206  1.00 42.38     0.139 N 
BRANCH  25  26
HETATM   26  C39   D T 299       6.104   4.873 -10.478  1.00 41.85     0.250 C 
HETATM   27  C42   D T 299       7.523   4.434 -10.620  1.00 47.83     0.037 C 
ENDBRANCH  25  26
BRANCH  25  28
HETATM   28  C40   D T 299       5.210   6.705  -9.303  1.00 35.07     0.250 C 
HETATM   29  C41   D T 299       6.217   7.798  -8.934  1.00 41.01     0.037 C 
ENDBRANCH  25  28
ENDBRANCH  24  25
ENDBRANCH  23  24
ENDBRANCH  21  23
ENDBRANCH   6  20
TORSDOF 8
ENDMDL
MODEL 2
REMARK VINA RESULT:    -7.972      2.308      3.075
REMARK INTER + INTRA:         -12.644
REMARK INTER:                 -11.632
REMARK INTRA:                  -1.013
REMARK UNBOUND:                -0.944
REMARK  8 active torsions:
REMARK  status: ('A' for Active; 'I' for Inactive)
REMARK    1  A    between atoms: C20_8  and  C12_12 
REMARK    2  A    between atoms: C22_10  and  C19_16 
REMARK       I    between atoms: C22_10  and  N25_19 
REMARK    3  A    between atoms: C12_12  and  C18_15 
REMARK    4  A    between atoms: N25_19  and  C37_23 
REMARK    5  A    between atoms: C37_23  and  C38_24 
REMARK    6  A    between atoms: C38_24  and  N4_25 
REMARK    7  A    between atoms: N4_25  and  C39_26 
REMARK    8  A    between atoms: N4_25  and  C40_27 
ROOT
HETATM    1  C4    D T 299      -0.465   2.524 -13.048  1.00 31.87     0.052 C 
HETATM    2  C13   D T 299      -0.418   0.963  -9.619  1.00 35.43    -0.002 A 
HETATM    3  C3    D T 299      -0.260   0.912  -8.121  1.00 37.61     0.033 C 
HETATM    4  C14   D T 299      -0.511   1.657 -11.783  1.00 34.64     0.063 A 
HETATM    5  C18   D T 299      -0.745  -0.126 -10.440  1.00 34.31     0.059 A 
HETATM    6  C19   D T 299      -0.278   2.090 -10.440  1.00 36.11     0.068 A 
HETATM    7  N23   D T 299      -0.794   0.315 -11.760  1.00 32.82    -0.254 NA
ENDROOT
BRANCH   5   8
HETATM    8  C12   D T 299      -0.965  -1.531  -9.897  1.00 31.34     0.075 C 
BRANCH   8   9
HETATM    9  C20   D T 299      -0.980  -2.734 -10.862  1.00 27.84     0.029 A 
HETATM   10  C17   D T 299      -2.165  -3.027 -11.638  1.00 29.49     0.020 A 
HETATM   11  C7    D T 299      -3.403  -2.372 -11.695  1.00 33.30     0.031 A 
HETATM   12  C16   D T 299      -1.906  -4.127 -12.406  1.00 26.85     0.084 A 
HETATM   13  C15   D T 299      -4.415  -2.857 -12.546  1.00 30.79     0.140 A 
HETATM   14  C5    D T 299      -4.177  -3.981 -13.341  1.00 28.60     0.031 A 
HETATM   15  F29   D T 299      -5.573  -2.220 -12.561  1.00 28.40    -0.204 F 
HETATM   16  C6    D T 299      -2.929  -4.627 -13.281  1.00 25.34     0.021 A 
HETATM   17  N24   D T 299      -0.567  -4.535 -12.118  1.00 26.35    -0.220 NA
HETATM   18  C21   D T 299      -0.009  -3.701 -11.186  1.00 26.17     0.209 A 
HETATM   19  O27   D T 299       1.270  -3.805 -10.679  1.00 26.42    -0.170 OA
ENDBRANCH   8   9
ENDBRANCH   5   8
BRANCH   6  20
HETATM   20  C22   D T 299       0.096   3.513  -9.957  1.00 37.52     0.276 C 
HETATM   21  N25   D T 299       1.455   3.803  -9.501  1.00 36.66    -0.232 NA
HETATM   22  O28   D T 299      -0.768   4.430  -9.971  1.00 36.30    -0.266 OA
BRANCH  21  23
HETATM   23  C37   D T 299       1.794   5.122  -9.068  1.00 41.76     0.164 C 
BRANCH  23  24
HETATM   24  C38   D T 299       3.140   5.389  -8.439  1.00 43.50     0.276 C 
BRANCH  24  25
HETATM   25  N4    D T 299       4.255   5.829  -9.283  1.00 42.38     0.139 N 
BRANCH  25  26
HETATM   26  C39   D T 299       5.086   6.779  -8.596  1.00 41.85     0.250 C 
HETATM   27  C42   D T 299       6.218   7.430  -9.318  1.00 47.83     0.037 C 
ENDBRANCH  25  26
BRANCH  25  28
HETATM   28  C40   D T 299       5.029   4.714  -9.721  1.00 35.07     0.250 C 
HETATM   29  C41   D T 299       4.885   4.263 -11.178  1.00 41.01     0.037 C 
ENDBRANCH  25  28
ENDBRANCH  24  25
ENDBRANCH  23  24
ENDBRANCH  21  23
ENDBRANCH   6  20
TORSDOF 8
ENDMDL
MODEL 3
REMARK VINA RESULT:    -7.931      2.817      8.937
REMARK INTER + INTRA:         -12.584
REMARK INTER:                 -11.538
REMARK INTRA:                  -1.046
REMARK UNBOUND:                -0.944
REMARK  8 active torsions:
REMARK  status: ('A' for Active; 'I' for Inactive)
REMARK    1  A    between atoms: C20_8  and  C12_12 
REMARK    2  A    between atoms: C22_10  and  C19_16 
REMARK       I    between atoms: C22_10  and  N25_19 
REMARK    3  A    between atoms: C12_12  and  C18_15 
REMARK    4  A    between atoms: N25_19  and  C37_23 
REMARK    5  A    between atoms: C37_23  and  C38_24 
REMARK    6  A    between atoms: C38_24  and  N4_25 
REMARK    7  A    between atoms: N4_25  and  C39_26 
REMARK    8  A    between atoms: N4_25  and  C40_27 
ROOT
HETATM    1  C4    D T 299      -0.376   3.100 -14.004  1.00 31.87     0.052 C 
HETATM    2  C13   D T 299       0.473   3.085 -10.333  1.00 35.43    -0.002 A 
HETATM    3  C3    D T 299       0.453   2.597  -8.908  1.00 37.61     0.033 C 
HETATM    4  C14   D T 299       0.118   3.316 -12.568  1.00 34.64     0.063 A 
HETATM    5  C18   D T 299       1.175   4.206 -10.799  1.00 34.31     0.059 A 
HETATM    6  C19   D T 299      -0.186   2.508 -11.427  1.00 36.11     0.068 A 
HETATM    7  N23   D T 299       0.944   4.335 -12.166  1.00 32.82    -0.254 NA
ENDROOT
BRANCH   5   8
HETATM    8  C12   D T 299       2.006   5.097  -9.886  1.00 31.34     0.075 C 
BRANCH   8   9
HETATM    9  C20   D T 299       3.518   4.834  -9.725  1.00 27.84     0.029 A 
HETATM   10  C17   D T 299       4.168   5.095  -8.459  1.00 29.49     0.020 A 
HETATM   11  C7    D T 299       3.649   5.572  -7.247  1.00 33.30     0.031 A 
HETATM   12  C16   D T 299       5.490   4.773  -8.589  1.00 26.85     0.084 A 
HETATM   13  C15   D T 299       4.500   5.741  -6.138  1.00 30.79     0.140 A 
HETATM   14  C5    D T 299       5.856   5.421  -6.244  1.00 28.60     0.031 A 
HETATM   15  F29   D T 299       3.975   6.206  -5.018  1.00 28.40    -0.204 F 
HETATM   16  C6    D T 299       6.365   4.936  -7.463  1.00 25.34     0.021 A 
HETATM   17  N24   D T 299       5.680   4.313  -9.929  1.00 26.35    -0.220 NA
HETATM   18  C21   D T 299       4.496   4.354 -10.615  1.00 26.17     0.209 A 
HETATM   19  O27   D T 299       4.319   3.983 -11.932  1.00 26.42    -0.170 OA
ENDBRANCH   8   9
ENDBRANCH   5   8
BRANCH   6  20
HETATM   20  C22   D T 299      -1.094   1.256 -11.371  1.00 37.52     0.276 C 
HETATM   21  N25   D T 299      -0.503  -0.079 -11.264  1.00 36.66    -0.232 NA
HETATM   22  O28   D T 299      -2.346   1.384 -11.401  1.00 36.30    -0.266 OA
BRANCH  21  23
HETATM   23  C37   D T 299      -1.349  -1.228 -11.202  1.00 41.76     0.164 C 
BRANCH  23  24
HETATM   24  C38   D T 299      -1.117  -2.390 -12.137  1.00 43.50     0.276 C 
BRANCH  24  25
HETATM   25  N4    D T 299       0.064  -3.239 -11.950  1.00 42.38     0.139 N 
BRANCH  25  26
HETATM   26  C39   D T 299       0.329  -3.464 -10.556  1.00 41.85     0.250 C 
HETATM   27  C42   D T 299       1.670  -3.128  -9.995  1.00 47.83     0.037 C 
ENDBRANCH  25  26
BRANCH  25  28
HETATM   28  C40   D T 299      -0.093  -4.481 -12.635  1.00 35.07     0.250 C 
HETATM   29  C41   D T 299      -0.422  -5.725 -11.805  1.00 41.01     0.037 C 
ENDBRANCH  25  28
ENDBRANCH  24  25
ENDBRANCH  23  24
ENDBRANCH  21  23
ENDBRANCH   6  20
TORSDOF 8
ENDMDL
MODEL 4
REMARK VINA RESULT:    -7.634      2.773      9.322
REMARK INTER + INTRA:         -12.148
REMARK INTER:                 -11.083
REMARK INTRA:                  -1.066
REMARK UNBOUND:                -0.944
REMARK  8 active torsions:
REMARK  status: ('A' for Active; 'I' for Inactive)
REMARK    1  A    between atoms: C20_8  and  C12_12 
REMARK    2  A    between atoms: C22_10  and  C19_16 
REMARK       I    between atoms: C22_10  and  N25_19 
REMARK    3  A    between atoms: C12_12  and  C18_15 
REMARK    4  A    between atoms: N25_19  and  C37_23 
REMARK    5  A    between atoms: C37_23  and  C38_24 
REMARK    6  A    between atoms: C38_24  and  N4_25 
REMARK    7  A    between atoms: N4_25  and  C39_26 
REMARK    8  A    between atoms: N4_25  and  C40_27 
ROOT
HETATM    1  C4    D T 299       0.181   4.775 -13.228  1.00 31.87     0.052 C 
HETATM    2  C13   D T 299       0.937   3.042  -9.968  1.00 35.43    -0.002 A 
HETATM    3  C3    D T 299       0.710   2.102  -8.813  1.00 37.61     0.033 C 
HETATM    4  C14   D T 299       0.718   4.220 -11.902  1.00 34.64     0.063 A 
HETATM    5  C18   D T 299       2.047   3.886 -10.125  1.00 34.31     0.059 A 
HETATM    6  C19   D T 299       0.099   3.230 -11.075  1.00 36.11     0.068 A 
HETATM    7  N23   D T 299       1.895   4.601 -11.309  1.00 32.82    -0.254 NA
ENDROOT
BRANCH   5   8
HETATM    8  C12   D T 299       3.175   3.963  -9.104  1.00 31.34     0.075 C 
BRANCH   8   9
HETATM    9  C20   D T 299       3.698   5.338  -8.640  1.00 27.84     0.029 A 
HETATM   10  C17   D T 299       4.913   5.881  -9.209  1.00 29.49     0.020 A 
HETATM   11  C7    D T 299       5.775   5.363 -10.185  1.00 33.30     0.031 A 
HETATM   12  C16   D T 299       5.141   7.098  -8.632  1.00 26.85     0.084 A 
HETATM   13  C15   D T 299       6.910   6.095 -10.578  1.00 30.79     0.140 A 
HETATM   14  C5    D T 299       7.169   7.343 -10.004  1.00 28.60     0.031 A 
HETATM   15  F29   D T 299       7.706   5.566 -11.492  1.00 28.40    -0.204 F 
HETATM   16  C6    D T 299       6.294   7.857  -9.030  1.00 25.34     0.021 A 
HETATM   17  N24   D T 299       4.081   7.328  -7.700  1.00 26.35    -0.220 NA
HETATM   18  C21   D T 299       3.215   6.267  -7.700  1.00 26.17     0.209 A 
HETATM   19  O27   D T 299       2.082   6.157  -6.920  1.00 26.42    -0.170 OA
ENDBRANCH   8   9
ENDBRANCH   5   8
BRANCH   6  20
HETATM   20  C22   D T 299      -1.252   2.513 -11.311  1.00 37.52     0.276 C 
HETATM   21  N25   D T 299      -1.291   1.065 -11.524  1.00 36.66    -0.232 NA
HETATM   22  O28   D T 299      -2.325   3.173 -11.304  1.00 36.30    -0.266 OA
BRANCH  21  23
HETATM   23  C37   D T 299      -2.544   0.410 -11.729  1.00 41.76     0.164 C 
BRANCH  23  24
HETATM   24  C38   D T 299      -2.605  -1.096 -11.820  1.00 43.50     0.276 C 
BRANCH  24  25
HETATM   25  N4    D T 299      -1.372  -1.875 -11.672  1.00 42.38     0.139 N 
BRANCH  25  26
HETATM   26  C39   D T 299      -1.166  -2.270 -10.306  1.00 41.85     0.250 C 
HETATM   27  C42   D T 299      -0.039  -1.676  -9.527  1.00 47.83     0.037 C 
ENDBRANCH  25  26
BRANCH  25  28
HETATM   28  C40   D T 299      -1.392  -3.019 -12.524  1.00 35.07     0.250 C 
HETATM   29  C41   D T 299      -0.073  -3.757 -12.773  1.00 41.01     0.037 C 
ENDBRANCH  25  28
ENDBRANCH  24  25
ENDBRANCH  23  24
ENDBRANCH  21  23
ENDBRANCH   6  20
TORSDOF 8
ENDMDL
MODEL 5
REMARK VINA RESULT:    -7.602      2.549      9.309
REMARK INTER + INTRA:         -12.102
REMARK INTER:                 -11.002
REMARK INTRA:                  -1.100
REMARK UNBOUND:                -0.944
REMARK  8 active torsions:
REMARK  status: ('A' for Active; 'I' for Inactive)
REMARK    1  A    between atoms: C20_8  and  C12_12 
REMARK    2  A    between atoms: C22_10  and  C19_16 
REMARK       I    between atoms: C22_10  and  N25_19 
REMARK    3  A    between atoms: C12_12  and  C18_15 
REMARK    4  A    between atoms: N25_19  and  C37_23 
REMARK    5  A    between atoms: C37_23  and  C38_24 
REMARK    6  A    between atoms: C38_24  and  N4_25 
REMARK    7  A    between atoms: N4_25  and  C39_26 
REMARK    8  A    between atoms: N4_25  and  C40_27 
ROOT
HETATM    1  C4    D T 299      -0.550  -0.428  -8.024  1.00 31.87     0.052 C 
HETATM    2  C13   D T 299      -0.659   2.180 -10.742  1.00 35.43    -0.002 A 
HETATM    3  C3    D T 299      -0.809   2.718 -12.141  1.00 37.61     0.033 C 
HETATM    4  C14   D T 299      -0.543   0.811  -8.928  1.00 34.64     0.063 A 
HETATM    5  C18   D T 299      -0.392   2.948  -9.599  1.00 34.31     0.059 A 
HETATM    6  C19   D T 299      -0.768   0.842 -10.341  1.00 36.11     0.068 A 
HETATM    7  N23   D T 299      -0.320   2.096  -8.501  1.00 32.82    -0.254 NA
ENDROOT
BRANCH   5   8
HETATM    8  C12   D T 299      -0.198   4.457  -9.647  1.00 31.34     0.075 C 
BRANCH   8   9
HETATM    9  C20   D T 299       0.984   5.104  -8.897  1.00 27.84     0.029 A 
HETATM   10  C17   D T 299       2.331   4.964  -9.407  1.00 29.49     0.020 A 
HETATM   11  C7    D T 299       2.810   4.307 -10.548  1.00 33.30     0.031 A 
HETATM   12  C16   D T 299       3.174   5.631  -8.564  1.00 26.85     0.084 A 
HETATM   13  C15   D T 299       4.188   4.316 -10.836  1.00 30.79     0.140 A 
HETATM   14  C5    D T 299       5.073   4.990  -9.990  1.00 28.60     0.031 A 
HETATM   15  F29   D T 299       4.602   3.673 -11.915  1.00 28.40    -0.204 F 
HETATM   16  C6    D T 299       4.581   5.651  -8.850  1.00 25.34     0.021 A 
HETATM   17  N24   D T 299       2.370   6.190  -7.522  1.00 26.35    -0.220 NA
HETATM   18  C21   D T 299       1.054   5.870  -7.717  1.00 26.17     0.209 A 
HETATM   19  O27   D T 299       0.007   6.245  -6.901  1.00 26.42    -0.170 OA
ENDBRANCH   8   9
ENDBRANCH   5   8
BRANCH   6  20
HETATM   20  C22   D T 299      -1.042  -0.358 -11.280  1.00 37.52     0.276 C 
HETATM   21  N25   D T 299      -2.416  -0.725 -11.624  1.00 36.66    -0.232 NA
HETATM   22  O28   D T 299      -0.081  -1.013 -11.763  1.00 36.30    -0.266 OA
BRANCH  21  23
HETATM   23  C37   D T 299      -2.660  -1.827 -12.500  1.00 41.76     0.164 C 
BRANCH  23  24
HETATM   24  C38   D T 299      -3.374  -3.056 -11.991  1.00 43.50     0.276 C 
BRANCH  24  25
HETATM   25  N4    D T 299      -2.700  -4.356 -12.051  1.00 42.38     0.139 N 
BRANCH  25  26
HETATM   26  C39   D T 299      -3.184  -5.143 -13.153  1.00 41.85     0.250 C 
HETATM   27  C42   D T 299      -4.263  -4.601 -14.030  1.00 47.83     0.037 C 
ENDBRANCH  25  26
BRANCH  25  28
HETATM   28  C40   D T 299      -1.287  -4.190 -12.140  1.00 35.07     0.250 C 
HETATM   29  C41   D T 299      -0.401  -5.422 -11.932  1.00 41.01     0.037 C 
ENDBRANCH  25  28
ENDBRANCH  24  25
ENDBRANCH  23  24
ENDBRANCH  21  23
ENDBRANCH   6  20
TORSDOF 8
ENDMDL
MODEL 6
REMARK VINA RESULT:    -7.474      2.457      9.495
REMARK INTER + INTRA:         -11.913
REMARK INTER:                 -11.027
REMARK INTRA:                  -0.886
REMARK UNBOUND:                -0.944
REMARK  8 active torsions:
REMARK  status: ('A' for Active; 'I' for Inactive)
REMARK    1  A    between atoms: C20_8  and  C12_12 
REMARK    2  A    between atoms: C22_10  and  C19_16 
REMARK       I    between atoms: C22_10  and  N25_19 
REMARK    3  A    between atoms: C12_12  and  C18_15 
REMARK    4  A    between atoms: N25_19  and  C37_23 
REMARK    5  A    between atoms: C37_23  and  C38_24 
REMARK    6  A    between atoms: C38_24  and  N4_25 
REMARK    7  A    between atoms: N4_25  and  C39_26 
REMARK    8  A    between atoms: N4_25  and  C40_27 
ROOT
HETATM    1  C4    D T 299      -0.546   0.570  -8.091  1.00 31.87     0.052 C 
HETATM    2  C13   D T 299       0.057   2.811 -11.060  1.00 35.43    -0.002 A 
HETATM    3  C3    D T 299      -0.124   3.333 -12.461  1.00 37.61     0.033 C 
HETATM    4  C14   D T 299      -0.119   1.607  -9.137  1.00 34.64     0.063 A 
HETATM    5  C18   D T 299       0.945   3.330 -10.106  1.00 34.31     0.059 A 
HETATM    6  C19   D T 299      -0.625   1.739 -10.469  1.00 36.11     0.068 A 
HETATM    7  N23   D T 299       0.827   2.581  -8.938  1.00 32.82    -0.254 NA
ENDROOT
BRANCH   5   8
HETATM    8  C12   D T 299       1.869   4.505 -10.394  1.00 31.34     0.075 C 
BRANCH   8   9
HETATM    9  C20   D T 299       2.681   5.143  -9.247  1.00 27.84     0.029 A 
HETATM   10  C17   D T 299       4.127   5.126  -9.285  1.00 29.49     0.020 A 
HETATM   11  C7    D T 299       5.008   4.608 -10.244  1.00 33.30     0.031 A 
HETATM   12  C16   D T 299       4.587   5.756  -8.164  1.00 26.85     0.084 A 
HETATM   13  C15   D T 299       6.398   4.720 -10.052  1.00 30.79     0.140 A 
HETATM   14  C5    D T 299       6.896   5.359  -8.914  1.00 28.60     0.031 A 
HETATM   15  F29   D T 299       7.196   4.206 -10.973  1.00 28.40    -0.204 F 
HETATM   16  C6    D T 299       6.003   5.881  -7.961  1.00 25.34     0.021 A 
HETATM   17  N24   D T 299       3.441   6.169  -7.414  1.00 26.35    -0.220 NA
HETATM   18  C21   D T 299       2.294   5.796  -8.062  1.00 26.17     0.209 A 
HETATM   19  O27   D T 299       1.009   6.033  -7.618  1.00 26.42    -0.170 OA
ENDBRANCH   8   9
ENDBRANCH   5   8
BRANCH   6  20
HETATM   20  C22   D T 299      -1.692   0.859 -11.165  1.00 37.52     0.276 C 
HETATM   21  N25   D T 299      -1.408  -0.544 -11.468  1.00 36.66    -0.232 NA
HETATM   22  O28   D T 299      -2.816   1.347 -11.459  1.00 36.30    -0.266 OA
BRANCH  21  23
HETATM   23  C37   D T 299      -2.403  -1.351 -12.099  1.00 41.76     0.164 C 
BRANCH  23  24
HETATM   24  C38   D T 299      -2.652  -2.760 -11.619  1.00 43.50     0.276 C 
BRANCH  24  25
HETATM   25  N4    D T 299      -2.479  -3.879 -12.550  1.00 42.38     0.139 N 
BRANCH  25  26
HETATM   26  C39   D T 299      -1.210  -4.526 -12.357  1.00 41.85     0.250 C 
HETATM   27  C42   D T 299       0.023  -3.923 -12.944  1.00 47.83     0.037 C 
ENDBRANCH  25  26
BRANCH  25  28
HETATM   28  C40   D T 299      -3.543  -4.818 -12.415  1.00 35.07     0.250 C 
HETATM   29  C41   D T 299      -4.930  -4.288 -12.039  1.00 41.01     0.037 C 
ENDBRANCH  25  28
ENDBRANCH  24  25
ENDBRANCH  23  24
ENDBRANCH  21  23
ENDBRANCH   6  20
TORSDOF 8
ENDMDL
MODEL 7
REMARK VINA RESULT:    -7.285      2.427      2.917
REMARK INTER + INTRA:         -11.637
REMARK INTER:                 -10.717
REMARK INTRA:                  -0.920
REMARK UNBOUND:                -0.944
REMARK  8 active torsions:
REMARK  status: ('A' for Active; 'I' for Inactive)
REMARK    1  A    between atoms: C20_8  and  C12_12 
REMARK    2  A    between atoms: C22_10  and  C19_16 
REMARK       I    between atoms: C22_10  and  N25_19 
REMARK    3  A    between atoms: C12_12  and  C18_15 
REMARK    4  A    between atoms: N25_19  and  C37_23 
REMARK    5  A    between atoms: C37_23  and  C38_24 
REMARK    6  A    between atoms: C38_24  and  N4_25 
REMARK    7  A    between atoms: N4_25  and  C39_26 
REMARK    8  A    between atoms: N4_25  and  C40_27 
ROOT
HETATM    1  C4    D T 299      -0.389   3.468 -13.039  1.00 31.87     0.052 C 
HETATM    2  C13   D T 299      -0.740   1.664  -9.750  1.00 35.43    -0.002 A 
HETATM    3  C3    D T 299      -0.672   1.479  -8.256  1.00 37.61     0.033 C 
HETATM    4  C14   D T 299      -0.621   2.524 -11.852  1.00 34.64     0.063 A 
HETATM    5  C18   D T 299      -1.168   0.696 -10.671  1.00 34.31     0.059 A 
HETATM    6  C19   D T 299      -0.404   2.818 -10.469  1.00 36.11     0.068 A 
HETATM    7  N23   D T 299      -1.085   1.237 -11.951  1.00 32.82    -0.254 NA
ENDROOT
BRANCH   5   8
HETATM    8  C12   D T 299      -1.607  -0.701 -10.254  1.00 31.34     0.075 C 
BRANCH   8   9
HETATM    9  C20   D T 299      -0.591  -1.862 -10.266  1.00 27.84     0.029 A 
HETATM   10  C17   D T 299      -0.880  -3.071 -11.006  1.00 29.49     0.020 A 
HETATM   11  C7    D T 299      -1.992  -3.421 -11.784  1.00 33.30     0.031 A 
HETATM   12  C16   D T 299       0.179  -3.922 -10.854  1.00 26.85     0.084 A 
HETATM   13  C15   D T 299      -2.037  -4.678 -12.417  1.00 30.79     0.140 A 
HETATM   14  C5    D T 299      -0.969  -5.568 -12.278  1.00 28.60     0.031 A 
HETATM   15  F29   D T 299      -3.109  -4.975 -13.131  1.00 28.40    -0.204 F 
HETATM   16  C6    D T 299       0.145  -5.204 -11.500  1.00 25.34     0.021 A 
HETATM   17  N24   D T 299       1.134  -3.260 -10.021  1.00 26.35    -0.220 NA
HETATM   18  C21   D T 299       0.670  -2.023  -9.662  1.00 26.17     0.209 A 
HETATM   19  O27   D T 299       1.337  -1.118  -8.862  1.00 26.42    -0.170 OA
ENDBRANCH   8   9
ENDBRANCH   5   8
BRANCH   6  20
HETATM   20  C22   D T 299       0.134   4.134  -9.856  1.00 37.52     0.276 C 
HETATM   21  N25   D T 299       1.443   4.162  -9.203  1.00 36.66    -0.232 NA
HETATM   22  O28   D T 299      -0.549   5.190  -9.933  1.00 36.30    -0.266 OA
BRANCH  21  23
HETATM   23  C37   D T 299       1.936   5.383  -8.650  1.00 41.76     0.164 C 
BRANCH  23  24
HETATM   24  C38   D T 299       3.419   5.572  -8.434  1.00 43.50     0.276 C 
BRANCH  24  25
HETATM   25  N4    D T 299       3.950   5.587  -7.067  1.00 42.38     0.139 N 
BRANCH  25  26
HETATM   26  C39   D T 299       5.379   5.436  -7.063  1.00 41.85     0.250 C 
HETATM   27  C42   D T 299       6.100   5.267  -5.767  1.00 47.83     0.037 C 
ENDBRANCH  25  26
BRANCH  25  28
HETATM   28  C40   D T 299       3.573   6.784  -6.392  1.00 35.07     0.250 C 
HETATM   29  C41   D T 299       2.605   6.672  -5.209  1.00 41.01     0.037 C 
ENDBRANCH  25  28
ENDBRANCH  24  25
ENDBRANCH  23  24
ENDBRANCH  21  23
ENDBRANCH   6  20
TORSDOF 8
ENDMDL
MODEL 8
REMARK VINA RESULT:    -7.187      3.028      9.137
REMARK INTER + INTRA:         -11.493
REMARK INTER:                 -10.420
REMARK INTRA:                  -1.073
REMARK UNBOUND:                -0.944
REMARK  8 active torsions:
REMARK  status: ('A' for Active; 'I' for Inactive)
REMARK    1  A    between atoms: C20_8  and  C12_12 
REMARK    2  A    between atoms: C22_10  and  C19_16 
REMARK       I    between atoms: C22_10  and  N25_19 
REMARK    3  A    between atoms: C12_12  and  C18_15 
REMARK    4  A    between atoms: N25_19  and  C37_23 
REMARK    5  A    between atoms: C37_23  and  C38_24 
REMARK    6  A    between atoms: C38_24  and  N4_25 
REMARK    7  A    between atoms: N4_25  and  C39_26 
REMARK    8  A    between atoms: N4_25  and  C40_27 
ROOT
HETATM    1  C4    D T 299      -2.415   3.223  -7.574  1.00 31.87     0.052 C 
HETATM    2  C13   D T 299       0.583   4.514  -9.455  1.00 35.43    -0.002 A 
HETATM    3  C3    D T 299       1.585   4.598 -10.577  1.00 37.61     0.033 C 
HETATM    4  C14   D T 299      -1.167   3.921  -8.129  1.00 34.64     0.063 A 
HETATM    5  C18   D T 299       0.581   5.318  -8.305  1.00 34.31     0.059 A 
HETATM    6  C19   D T 299      -0.509   3.641  -9.368  1.00 36.11     0.068 A 
HETATM    7  N23   D T 299      -0.493   4.939  -7.504  1.00 32.82    -0.254 NA
ENDROOT
BRANCH   5   8
HETATM    8  C12   D T 299       1.634   6.386  -8.043  1.00 31.34     0.075 C 
BRANCH   8   9
HETATM    9  C20   D T 299       2.829   6.076  -7.118  1.00 27.84     0.029 A 
HETATM   10  C17   D T 299       4.092   5.650  -7.681  1.00 29.49     0.020 A 
HETATM   11  C7    D T 299       4.477   5.456  -9.015  1.00 33.30     0.031 A 
HETATM   12  C16   D T 299       4.968   5.452  -6.652  1.00 26.85     0.084 A 
HETATM   13  C15   D T 299       5.786   5.034  -9.313  1.00 30.79     0.140 A 
HETATM   14  C5    D T 299       6.703   4.823  -8.280  1.00 28.60     0.031 A 
HETATM   15  F29   D T 299       6.106   4.849 -10.582  1.00 28.40    -0.204 F 
HETATM   16  C6    D T 299       6.308   5.027  -6.945  1.00 25.34     0.021 A 
HETATM   17  N24   D T 299       4.267   5.745  -5.441  1.00 26.35    -0.220 NA
HETATM   18  C21   D T 299       2.979   6.116  -5.719  1.00 26.17     0.209 A 
HETATM   19  O27   D T 299       2.026   6.466  -4.785  1.00 26.42    -0.170 OA
ENDBRANCH   8   9
ENDBRANCH   5   8
BRANCH   6  20
HETATM   20  C22   D T 299      -0.884   2.564 -10.415  1.00 37.52     0.276 C 
HETATM   21  N25   D T 299      -0.393   1.193 -10.269  1.00 36.66    -0.232 NA
HETATM   22  O28   D T 299      -1.627   2.862 -11.388  1.00 36.30    -0.266 OA
BRANCH  21  23
HETATM   23  C37   D T 299      -0.754   0.203 -11.233  1.00 41.76     0.164 C 
BRANCH  23  24
HETATM   24  C38   D T 299      -0.933  -1.236 -10.810  1.00 43.50     0.276 C 
BRANCH  24  25
HETATM   25  N4    D T 299      -0.026  -2.259 -11.338  1.00 42.38     0.139 N 
BRANCH  25  26
HETATM   26  C39   D T 299       1.085  -2.477 -10.453  1.00 41.85     0.250 C 
HETATM   27  C42   D T 299       1.480  -3.870 -10.090  1.00 47.83     0.037 C 
ENDBRANCH  25  26
BRANCH  25  28
HETATM   28  C40   D T 299      -0.724  -3.481 -11.572  1.00 35.07     0.250 C 
HETATM   29  C41   D T 299      -1.823  -3.490 -12.638  1.00 41.01     0.037 C 
ENDBRANCH  25  28
ENDBRANCH  24  25
ENDBRANCH  23  24
ENDBRANCH  21  23
ENDBRANCH   6  20
TORSDOF 8
ENDMDL
MODEL 9
REMARK VINA RESULT:    -7.158      2.951      3.871
REMARK INTER + INTRA:         -11.450
REMARK INTER:                 -10.138
REMARK INTRA:                  -1.312
REMARK UNBOUND:                -0.944
REMARK  8 active torsions:
REMARK  status: ('A' for Active; 'I' for Inactive)
REMARK    1  A    between atoms: C20_8  and  C12_12 
REMARK    2  A    between atoms: C22_10  and  C19_16 
REMARK       I    between atoms: C22_10  and  N25_19 
REMARK    3  A    between atoms: C12_12  and  C18_15 
REMARK    4  A    between atoms: N25_19  and  C37_23 
REMARK    5  A    between atoms: C37_23  and  C38_24 
REMARK    6  A    between atoms: C38_24  and  N4_25 
REMARK    7  A    between atoms: N4_25  and  C39_26 
REMARK    8  A    between atoms: N4_25  and  C40_27 
ROOT
HETATM    1  C4    D T 299       0.153   3.530 -12.825  1.00 31.87     0.052 C 
HETATM    2  C13   D T 299      -1.860   2.048 -10.006  1.00 35.43    -0.002 A 
HETATM    3  C3    D T 299      -2.500   1.985  -8.643  1.00 37.61     0.033 C 
HETATM    4  C14   D T 299      -0.701   2.713 -11.846  1.00 34.64     0.063 A 
HETATM    5  C18   D T 299      -1.931   1.046 -10.985  1.00 34.31     0.059 A 
HETATM    6  C19   D T 299      -1.103   3.104 -10.530  1.00 36.11     0.068 A 
HETATM    7  N23   D T 299      -1.214   1.467 -12.101  1.00 32.82    -0.254 NA
ENDROOT
BRANCH   5   8
HETATM    8  C12   D T 299      -2.670  -0.268 -10.768  1.00 31.34     0.075 C 
BRANCH   8   9
HETATM    9  C20   D T 299      -2.101  -1.576 -11.358  1.00 27.84     0.029 A 
HETATM   10  C17   D T 299      -0.838  -2.097 -10.881  1.00 29.49     0.020 A 
HETATM   11  C7    D T 299       0.038  -1.611  -9.901  1.00 33.30     0.031 A 
HETATM   12  C16   D T 299      -0.576  -3.254 -11.559  1.00 26.85     0.084 A 
HETATM   13  C15   D T 299       1.224  -2.312  -9.610  1.00 30.79     0.140 A 
HETATM   14  C5    D T 299       1.517  -3.497 -10.289  1.00 28.60     0.031 A 
HETATM   15  F29   D T 299       2.031  -1.814  -8.689  1.00 28.40    -0.204 F 
HETATM   16  C6    D T 299       0.628  -3.980 -11.266  1.00 25.34     0.021 A 
HETATM   17  N24   D T 299      -1.662  -3.466 -12.464  1.00 26.35    -0.220 NA
HETATM   18  C21   D T 299      -2.578  -2.455 -12.348  1.00 26.17     0.209 A 
HETATM   19  O27   D T 299      -3.746  -2.343 -13.073  1.00 26.42    -0.170 OA
ENDBRANCH   8   9
ENDBRANCH   5   8
BRANCH   6  20
HETATM   20  C22   D T 299      -0.755   4.416  -9.786  1.00 37.52     0.276 C 
HETATM   21  N25   D T 299       0.257   4.417  -8.728  1.00 36.66    -0.232 NA
HETATM   22  O28   D T 299      -1.332   5.490 -10.100  1.00 36.30    -0.266 OA
BRANCH  21  23
HETATM   23  C37   D T 299       0.580   5.635  -8.055  1.00 41.76     0.164 C 
BRANCH  23  24
HETATM   24  C38   D T 299       0.185   5.828  -6.610  1.00 43.50     0.276 C 
BRANCH  24  25
HETATM   25  N4    D T 299      -0.757   6.895  -6.259  1.00 42.38     0.139 N 
BRANCH  25  26
HETATM   26  C39   D T 299      -0.240   8.187  -6.619  1.00 41.85     0.250 C 
HETATM   27  C42   D T 299       0.966   8.721  -5.920  1.00 47.83     0.037 C 
ENDBRANCH  25  26
BRANCH  25  28
HETATM   28  C40   D T 299      -2.023   6.675  -6.876  1.00 35.07     0.250 C 
HETATM   29  C41   D T 299      -2.745   5.354  -6.592  1.00 41.01     0.037 C 
ENDBRANCH  25  28
ENDBRANCH  24  25
ENDBRANCH  23  24
ENDBRANCH  21  23
ENDBRANCH   6  20
TORSDOF 8
ENDMDL
