MODEL 1
REMARK VINA RESULT:    -8.470      0.000      0.000
REMARK INTER + INTRA:         -13.948
REMARK INTER:                 -12.432
REMARK INTRA:                  -1.516
REMARK UNBOUND:                -1.516
REMARK  8 active torsions:
REMARK  status: ('A' for Active; 'I' for Inactive)
REMARK    1  A    between atoms: C20_8  and  C12_12 
REMARK    2  A    between atoms: C22_10  and  C19_16 
REMARK       I    between atoms: C22_10  and  N25_19 
REMARK    3  A    between atoms: C12_12  and  C18_15 
REMARK    4  A    between atoms: N25_19  and  C37_23 
REMARK    5  A    between atoms: C37_23  and  C38_24 
REMARK    6  A    between atoms: C38_24  and  N4_25 
REMARK    7  A    between atoms: N4_25  and  C39_26 
REMARK    8  A    between atoms: N4_25  and  C40_27 
ROOT
HETATM    1  C4    D T 299       2.391  -3.247   9.400  1.00 31.87     0.052 C 
HETATM    2  C13   D T 299      -0.622  -1.461  10.788  1.00 35.43    -0.002 A 
HETATM    3  C3    D T 299      -1.493  -0.284  11.143  1.00 37.61     0.033 C 
HETATM    4  C14   D T 299       1.075  -2.771  10.027  1.00 34.64     0.063 A 
HETATM    5  C18   D T 299      -0.928  -2.806  11.040  1.00 34.31     0.059 A 
HETATM    6  C19   D T 299       0.621  -1.419  10.145  1.00 36.11     0.068 A 
HETATM    7  N23   D T 299       0.121  -3.592  10.573  1.00 32.82    -0.254 NA
ENDROOT
BRANCH   5   8
HETATM    8  C12   D T 299      -2.207  -3.242  11.740  1.00 31.34     0.075 C 
BRANCH   8   9
HETATM    9  C20   D T 299      -3.337  -3.911  10.929  1.00 27.84     0.029 A 
HETATM   10  C17   D T 299      -4.425  -3.112  10.406  1.00 29.49     0.020 A 
HETATM   11  C7    D T 299      -4.668  -1.735  10.491  1.00 33.30     0.031 A 
HETATM   12  C16   D T 299      -5.271  -3.944   9.731  1.00 26.85     0.084 A 
HETATM   13  C15   D T 299      -5.814  -1.186   9.885  1.00 30.79     0.140 A 
HETATM   14  C5    D T 299      -6.699  -2.014   9.189  1.00 28.60     0.031 A 
HETATM   15  F29   D T 299      -6.016   0.115   9.999  1.00 28.40    -0.204 F 
HETATM   16  C6    D T 299      -6.441  -3.395   9.103  1.00 25.34     0.021 A 
HETATM   17  N24   D T 299      -4.731  -5.264   9.826  1.00 26.35    -0.220 NA
HETATM   18  C21   D T 299      -3.570  -5.246  10.552  1.00 26.17     0.209 A 
HETATM   19  O27   D T 299      -2.786  -6.346  10.840  1.00 26.42    -0.170 OA
ENDBRANCH   8   9
ENDBRANCH   5   8
BRANCH   6  20
HETATM   20  C22   D T 299       1.358  -0.134   9.694  1.00 37.52     0.276 C 
HETATM   21  N25   D T 299       2.373   0.474  10.555  1.00 36.66    -0.232 NA
HETATM   22  O28   D T 299       1.095   0.385   8.576  1.00 36.30    -0.266 OA
BRANCH  21  23
HETATM   23  C37   D T 299       3.055   1.653  10.125  1.00 41.76     0.164 C 
BRANCH  23  24
HETATM   24  C38   D T 299       2.476   3.015  10.427  1.00 43.50     0.276 C 
BRANCH  24  25
HETATM   25  N4    D T 299       1.201   3.111  11.145  1.00 42.38     0.139 N 
BRANCH  25  26
HETATM   26  C39   D T 299       1.357   3.803  12.394  1.00 41.85     0.250 C 
HETATM   27  C42   D T 299       0.450   3.481  13.535  1.00 47.83     0.037 C 
ENDBRANCH  25  26
BRANCH  25  28
HETATM   28  C40   D T 299       0.214   3.752  10.338  1.00 35.07     0.250 C 
HETATM   29  C41   D T 299      -1.004   2.934   9.902  1.00 41.01     0.037 C 
ENDBRANCH  25  28
ENDBRANCH  24  25
ENDBRANCH  23  24
ENDBRANCH  21  23
ENDBRANCH   6  20
TORSDOF 8
ENDMDL
MODEL 2
REMARK VINA RESULT:    -8.426      2.729      5.137
REMARK INTER + INTRA:         -13.884
REMARK INTER:                 -12.741
REMARK INTRA:                  -1.143
REMARK UNBOUND:                -1.516
REMARK  8 active torsions:
REMARK  status: ('A' for Active; 'I' for Inactive)
REMARK    1  A    between atoms: C20_8  and  C12_12 
REMARK    2  A    between atoms: C22_10  and  C19_16 
REMARK       I    between atoms: C22_10  and  N25_19 
REMARK    3  A    between atoms: C12_12  and  C18_15 
REMARK    4  A    between atoms: N25_19  and  C37_23 
REMARK    5  A    between atoms: C37_23  and  C38_24 
REMARK    6  A    between atoms: C38_24  and  N4_25 
REMARK    7  A    between atoms: N4_25  and  C39_26 
REMARK    8  A    between atoms: N4_25  and  C40_27 
ROOT
HETATM    1  C4    D T 299       0.025   3.511  10.380  1.00 31.87     0.052 C 
HETATM    2  C13   D T 299      -1.346   0.037  10.871  1.00 35.43    -0.002 A 
HETATM    3  C3    D T 299      -1.311  -1.466  10.960  1.00 37.61     0.033 C 
HETATM    4  C14   D T 299      -0.772   2.224  10.620  1.00 34.64     0.063 A 
HETATM    5  C18   D T 299      -2.486   0.837  11.042  1.00 34.31     0.059 A 
HETATM    6  C19   D T 299      -0.263   0.887  10.618  1.00 36.11     0.068 A 
HETATM    7  N23   D T 299      -2.118   2.169  10.881  1.00 32.82    -0.254 NA
ENDROOT
BRANCH   5   8
HETATM    8  C12   D T 299      -3.864   0.256  11.325  1.00 31.34     0.075 C 
BRANCH   8   9
HETATM    9  C20   D T 299      -4.704  -0.326  10.169  1.00 27.84     0.029 A 
HETATM   10  C17   D T 299      -4.869  -1.759  10.042  1.00 29.49     0.020 A 
HETATM   11  C7    D T 299      -4.381  -2.807  10.835  1.00 33.30     0.031 A 
HETATM   12  C16   D T 299      -5.654  -1.997   8.951  1.00 26.85     0.084 A 
HETATM   13  C15   D T 299      -4.689  -4.140  10.501  1.00 30.79     0.140 A 
HETATM   14  C5    D T 299      -5.489  -4.414   9.389  1.00 28.60     0.031 A 
HETATM   15  F29   D T 299      -4.199  -5.101  11.265  1.00 28.40    -0.204 F 
HETATM   16  C6    D T 299      -5.978  -3.353   8.604  1.00 25.34     0.021 A 
HETATM   17  N24   D T 299      -5.985  -0.728   8.383  1.00 26.35    -0.220 NA
HETATM   18  C21   D T 299      -5.409   0.278   9.111  1.00 26.17     0.209 A 
HETATM   19  O27   D T 299      -5.519   1.628   8.844  1.00 26.42    -0.170 OA
ENDBRANCH   8   9
ENDBRANCH   5   8
BRANCH   6  20
HETATM   20  C22   D T 299       1.194   0.433  10.350  1.00 37.52     0.276 C 
HETATM   21  N25   D T 299       1.511  -0.367   9.167  1.00 36.66    -0.232 NA
HETATM   22  O28   D T 299       2.113   0.763  11.146  1.00 36.30    -0.266 OA
BRANCH  21  23
HETATM   23  C37   D T 299       2.859  -0.771   8.923  1.00 41.76     0.164 C 
BRANCH  23  24
HETATM   24  C38   D T 299       3.487  -1.855   9.766  1.00 43.50     0.276 C 
BRANCH  24  25
HETATM   25  N4    D T 299       3.160  -3.259   9.494  1.00 42.38     0.139 N 
BRANCH  25  26
HETATM   26  C39   D T 299       4.274  -4.120   9.780  1.00 41.85     0.250 C 
HETATM   27  C42   D T 299       4.492  -5.345   8.956  1.00 47.83     0.037 C 
ENDBRANCH  25  26
BRANCH  25  28
HETATM   28  C40   D T 299       2.012  -3.663  10.239  1.00 35.07     0.250 C 
HETATM   29  C41   D T 299       0.764  -4.095   9.464  1.00 41.01     0.037 C 
ENDBRANCH  25  28
ENDBRANCH  24  25
ENDBRANCH  23  24
ENDBRANCH  21  23
ENDBRANCH   6  20
TORSDOF 8
ENDMDL
MODEL 3
REMARK VINA RESULT:    -8.367      2.981      4.031
REMARK INTER + INTRA:         -13.797
REMARK INTER:                 -12.288
REMARK INTRA:                  -1.509
REMARK UNBOUND:                -1.516
REMARK  8 active torsions:
REMARK  status: ('A' for Active; 'I' for Inactive)
REMARK    1  A    between atoms: C20_8  and  C12_12 
REMARK    2  A    between atoms: C22_10  and  C19_16 
REMARK       I    between atoms: C22_10  and  N25_19 
REMARK    3  A    between atoms: C12_12  and  C18_15 
REMARK    4  A    between atoms: N25_19  and  C37_23 
REMARK    5  A    between atoms: C37_23  and  C38_24 
REMARK    6  A    between atoms: C38_24  and  N4_25 
REMARK    7  A    between atoms: N4_25  and  C39_26 
REMARK    8  A    between atoms: N4_25  and  C40_27 
ROOT
HETATM    1  C4    D T 299      -0.647  -7.412  11.630  1.00 31.87     0.052 C 
HETATM    2  C13   D T 299      -1.365  -3.732  11.264  1.00 35.43    -0.002 A 
HETATM    3  C3    D T 299      -1.058  -2.280  11.006  1.00 37.61     0.033 C 
HETATM    4  C14   D T 299      -1.197  -5.984  11.539  1.00 34.64     0.063 A 
HETATM    5  C18   D T 299      -2.627  -4.254  11.582  1.00 34.31     0.059 A 
HETATM    6  C19   D T 299      -0.460  -4.800  11.222  1.00 36.11     0.068 A 
HETATM    7  N23   D T 299      -2.506  -5.630  11.751  1.00 32.82    -0.254 NA
ENDROOT
BRANCH   5   8
HETATM    8  C12   D T 299      -3.866  -3.382  11.727  1.00 31.34     0.075 C 
BRANCH   8   9
HETATM    9  C20   D T 299      -4.667  -2.972  10.473  1.00 27.84     0.029 A 
HETATM   10  C17   D T 299      -4.909  -1.573  10.192  1.00 29.49     0.020 A 
HETATM   11  C7    D T 299      -4.519  -0.422  10.890  1.00 33.30     0.031 A 
HETATM   12  C16   D T 299      -5.627  -1.494   9.033  1.00 26.85     0.084 A 
HETATM   13  C15   D T 299      -4.881   0.849  10.404  1.00 30.79     0.140 A 
HETATM   14  C5    D T 299      -5.617   0.960   9.221  1.00 28.60     0.031 A 
HETATM   15  F29   D T 299      -4.507   1.910  11.098  1.00 28.40    -0.204 F 
HETATM   16  C6    D T 299      -5.997  -0.202   8.525  1.00 25.34     0.021 A 
HETATM   17  N24   D T 299      -5.844  -2.832   8.579  1.00 26.35    -0.220 NA
HETATM   18  C21   D T 299      -5.272  -3.723   9.448  1.00 26.17     0.209 A 
HETATM   19  O27   D T 299      -5.292  -5.097   9.318  1.00 26.42    -0.170 OA
ENDBRANCH   8   9
ENDBRANCH   5   8
BRANCH   6  20
HETATM   20  C22   D T 299       1.056  -4.683  10.923  1.00 37.52     0.276 C 
HETATM   21  N25   D T 299       1.515  -4.188   9.626  1.00 36.66    -0.232 NA
HETATM   22  O28   D T 299       1.898  -5.003  11.804  1.00 36.30    -0.266 OA
BRANCH  21  23
HETATM   23  C37   D T 299       2.915  -4.073   9.365  1.00 41.76     0.164 C 
BRANCH  23  24
HETATM   24  C38   D T 299       3.563  -2.711   9.296  1.00 43.50     0.276 C 
BRANCH  24  25
HETATM   25  N4    D T 299       2.758  -1.517   9.578  1.00 42.38     0.139 N 
BRANCH  25  26
HETATM   26  C39   D T 299       3.112  -0.936  10.844  1.00 41.85     0.250 C 
HETATM   27  C42   D T 299       2.475  -1.447  12.094  1.00 47.83     0.037 C 
ENDBRANCH  25  26
BRANCH  25  28
HETATM   28  C40   D T 299       2.897  -0.557   8.532  1.00 35.07     0.250 C 
HETATM   29  C41   D T 299       4.239   0.166   8.388  1.00 41.01     0.037 C 
ENDBRANCH  25  28
ENDBRANCH  24  25
ENDBRANCH  23  24
ENDBRANCH  21  23
ENDBRANCH   6  20
TORSDOF 8
ENDMDL
MODEL 4
REMARK VINA RESULT:    -8.122      4.254      8.042
REMARK INTER + INTRA:         -13.438
REMARK INTER:                 -12.115
REMARK INTRA:                  -1.322
REMARK UNBOUND:                -1.516
REMARK  8 active torsions:
REMARK  status: ('A' for Active; 'I' for Inactive)
REMARK    1  A    between atoms: C20_8  and  C12_12 
REMARK    2  A    between atoms: C22_10  and  C19_16 
REMARK       I    between atoms: C22_10  and  N25_19 
REMARK    3  A    between atoms: C12_12  and  C18_15 
REMARK    4  A    between atoms: N25_19  and  C37_23 
REMARK    5  A    between atoms: C37_23  and  C38_24 
REMARK    6  A    between atoms: C38_24  and  N4_25 
REMARK    7  A    between atoms: N4_25  and  C39_26 
REMARK    8  A    between atoms: N4_25  and  C40_27 
ROOT
HETATM    1  C4    D T 299       1.123  -4.908  10.900  1.00 31.87     0.052 C 
HETATM    2  C13   D T 299      -2.470  -5.781  11.621  1.00 35.43    -0.002 A 
HETATM    3  C3    D T 299      -3.650  -6.676  11.895  1.00 37.61     0.033 C 
HETATM    4  C14   D T 299      -0.381  -4.993  11.186  1.00 34.64     0.063 A 
HETATM    5  C18   D T 299      -2.511  -4.381  11.541  1.00 34.31     0.059 A 
HETATM    6  C19   D T 299      -1.144  -6.182  11.413  1.00 36.11     0.068 A 
HETATM    7  N23   D T 299      -1.228  -3.917  11.270  1.00 32.82    -0.254 NA
ENDROOT
BRANCH   5   8
HETATM    8  C12   D T 299      -3.797  -3.585  11.707  1.00 31.34     0.075 C 
BRANCH   8   9
HETATM    9  C20   D T 299      -4.587  -3.134  10.461  1.00 27.84     0.029 A 
HETATM   10  C17   D T 299      -4.823  -1.726  10.221  1.00 29.49     0.020 A 
HETATM   11  C7    D T 299      -4.434  -0.598  10.957  1.00 33.30     0.031 A 
HETATM   12  C16   D T 299      -5.532  -1.609   9.060  1.00 26.85     0.084 A 
HETATM   13  C15   D T 299      -4.787   0.689  10.506  1.00 30.79     0.140 A 
HETATM   14  C5    D T 299      -5.514   0.838   9.322  1.00 28.60     0.031 A 
HETATM   15  F29   D T 299      -4.414   1.726  11.235  1.00 28.40    -0.204 F 
HETATM   16  C6    D T 299      -5.893  -0.301   8.589  1.00 25.34     0.021 A 
HETATM   17  N24   D T 299      -5.751  -2.932   8.564  1.00 26.35    -0.220 NA
HETATM   18  C21   D T 299      -5.188  -3.850   9.409  1.00 26.17     0.209 A 
HETATM   19  O27   D T 299      -5.212  -5.220   9.237  1.00 26.42    -0.170 OA
ENDBRANCH   8   9
ENDBRANCH   5   8
BRANCH   6  20
HETATM   20  C22   D T 299      -0.639  -7.645  11.398  1.00 37.52     0.276 C 
HETATM   21  N25   D T 299       0.351  -8.094  12.378  1.00 36.66    -0.232 NA
HETATM   22  O28   D T 299      -1.090  -8.459  10.549  1.00 36.30    -0.266 OA
BRANCH  21  23
HETATM   23  C37   D T 299       0.802  -9.449  12.363  1.00 41.76     0.164 C 
BRANCH  23  24
HETATM   24  C38   D T 299       0.248 -10.441  13.357  1.00 43.50     0.276 C 
BRANCH  24  25
HETATM   25  N4    D T 299      -0.833 -11.344  12.946  1.00 42.38     0.139 N 
BRANCH  25  26
HETATM   26  C39   D T 299      -2.122 -10.748  13.166  1.00 41.85     0.250 C 
HETATM   27  C42   D T 299      -2.304  -9.770  14.279  1.00 47.83     0.037 C 
ENDBRANCH  25  26
BRANCH  25  28
HETATM   28  C40   D T 299      -0.684 -11.721  11.579  1.00 35.07     0.250 C 
HETATM   29  C41   D T 299      -0.882 -13.195  11.210  1.00 41.01     0.037 C 
ENDBRANCH  25  28
ENDBRANCH  24  25
ENDBRANCH  23  24
ENDBRANCH  21  23
ENDBRANCH   6  20
TORSDOF 8
ENDMDL
MODEL 5
REMARK VINA RESULT:    -8.122      2.760      4.366
REMARK INTER + INTRA:         -13.437
REMARK INTER:                 -11.975
REMARK INTRA:                  -1.462
REMARK UNBOUND:                -1.516
REMARK  8 active torsions:
REMARK  status: ('A' for Active; 'I' for Inactive)
REMARK    1  A    between atoms: C20_8  and  C12_12 
REMARK    2  A    between atoms: C22_10  and  C19_16 
REMARK       I    between atoms: C22_10  and  N25_19 
REMARK    3  A    between atoms: C12_12  and  C18_15 
REMARK    4  A    between atoms: N25_19  and  C37_23 
REMARK    5  A    between atoms: C37_23  and  C38_24 
REMARK    6  A    between atoms: C38_24  and  N4_25 
REMARK    7  A    between atoms: N4_25  and  C39_26 
REMARK    8  A    between atoms: N4_25  and  C40_27 
ROOT
HETATM    1  C4    D T 299      -0.038   3.598  10.172  1.00 31.87     0.052 C 
HETATM    2  C13   D T 299      -1.224   0.065  10.726  1.00 35.43    -0.002 A 
HETATM    3  C3    D T 299      -1.116  -1.435  10.810  1.00 37.61     0.033 C 
HETATM    4  C14   D T 299      -0.763   2.276  10.449  1.00 34.64     0.063 A 
HETATM    5  C18   D T 299      -2.389   0.812  10.954  1.00 34.31     0.059 A 
HETATM    6  C19   D T 299      -0.194   0.963  10.420  1.00 36.11     0.068 A 
HETATM    7  N23   D T 299      -2.091   2.160  10.776  1.00 32.82    -0.254 NA
ENDROOT
BRANCH   5   8
HETATM    8  C12   D T 299      -3.723   0.170  11.304  1.00 31.34     0.075 C 
BRANCH   8   9
HETATM    9  C20   D T 299      -4.620  -0.398  10.183  1.00 27.84     0.029 A 
HETATM   10  C17   D T 299      -4.794  -1.828  10.048  1.00 29.49     0.020 A 
HETATM   11  C7    D T 299      -4.271  -2.887  10.804  1.00 33.30     0.031 A 
HETATM   12  C16   D T 299      -5.631  -2.053   8.993  1.00 26.85     0.084 A 
HETATM   13  C15   D T 299      -4.598  -4.215  10.470  1.00 30.79     0.140 A 
HETATM   14  C5    D T 299      -5.451  -4.474   9.395  1.00 28.60     0.031 A 
HETATM   15  F29   D T 299      -4.074  -5.186  11.198  1.00 28.40    -0.204 F 
HETATM   16  C6    D T 299      -5.976  -3.404   8.647  1.00 25.34     0.021 A 
HETATM   17  N24   D T 299      -5.986  -0.776   8.457  1.00 26.35    -0.220 NA
HETATM   18  C21   D T 299      -5.373   0.220   9.168  1.00 26.17     0.209 A 
HETATM   19  O27   D T 299      -5.493   1.573   8.922  1.00 26.42    -0.170 OA
ENDBRANCH   8   9
ENDBRANCH   5   8
BRANCH   6  20
HETATM   20  C22   D T 299       1.267   0.576  10.080  1.00 37.52     0.276 C 
HETATM   21  N25   D T 299       2.309   0.660  11.103  1.00 36.66    -0.232 NA
HETATM   22  O28   D T 299       1.558   0.173   8.922  1.00 36.30    -0.266 OA
BRANCH  21  23
HETATM   23  C37   D T 299       3.650   0.289  10.782  1.00 41.76     0.164 C 
BRANCH  23  24
HETATM   24  C38   D T 299       4.700   1.354  10.573  1.00 43.50     0.276 C 
BRANCH  24  25
HETATM   25  N4    D T 299       4.946   1.865   9.220  1.00 42.38     0.139 N 
BRANCH  25  26
HETATM   26  C39   D T 299       4.972   0.800   8.256  1.00 41.85     0.250 C 
HETATM   27  C42   D T 299       6.205  -0.027   8.102  1.00 47.83     0.037 C 
ENDBRANCH  25  26
BRANCH  25  28
HETATM   28  C40   D T 299       3.967   2.839   8.862  1.00 35.07     0.250 C 
HETATM   29  C41   D T 299       3.688   3.978   9.846  1.00 41.01     0.037 C 
ENDBRANCH  25  28
ENDBRANCH  24  25
ENDBRANCH  23  24
ENDBRANCH  21  23
ENDBRANCH   6  20
TORSDOF 8
ENDMDL
MODEL 6
REMARK VINA RESULT:    -8.115      3.541      5.403
REMARK INTER + INTRA:         -13.427
REMARK INTER:                 -12.134
REMARK INTRA:                  -1.293
REMARK UNBOUND:                -1.516
REMARK  8 active torsions:
REMARK  status: ('A' for Active; 'I' for Inactive)
REMARK    1  A    between atoms: C20_8  and  C12_12 
REMARK    2  A    between atoms: C22_10  and  C19_16 
REMARK       I    between atoms: C22_10  and  N25_19 
REMARK    3  A    between atoms: C12_12  and  C18_15 
REMARK    4  A    between atoms: N25_19  and  C37_23 
REMARK    5  A    between atoms: C37_23  and  C38_24 
REMARK    6  A    between atoms: C38_24  and  N4_25 
REMARK    7  A    between atoms: N4_25  and  C39_26 
REMARK    8  A    between atoms: N4_25  and  C40_27 
ROOT
HETATM    1  C4    D T 299      -0.223  -6.807  11.663  1.00 31.87     0.052 C 
HETATM    2  C13   D T 299      -1.345  -3.246  11.159  1.00 35.43    -0.002 A 
HETATM    3  C3    D T 299      -1.204  -1.782  10.834  1.00 37.61     0.033 C 
HETATM    4  C14   D T 299      -0.927  -5.452  11.524  1.00 34.64     0.063 A 
HETATM    5  C18   D T 299      -2.538  -3.888  11.526  1.00 34.31     0.059 A 
HETATM    6  C19   D T 299      -0.330  -4.210  11.141  1.00 36.11     0.068 A 
HETATM    7  N23   D T 299      -2.263  -5.233  11.750  1.00 32.82    -0.254 NA
ENDROOT
BRANCH   5   8
HETATM    8  C12   D T 299      -3.862  -3.150  11.660  1.00 31.34     0.075 C 
BRANCH   8   9
HETATM    9  C20   D T 299      -4.670  -2.788  10.396  1.00 27.84     0.029 A 
HETATM   10  C17   D T 299      -4.927  -1.401  10.072  1.00 29.49     0.020 A 
HETATM   11  C7    D T 299      -4.545  -0.224  10.731  1.00 33.30     0.031 A 
HETATM   12  C16   D T 299      -5.649  -1.366   8.914  1.00 26.85     0.084 A 
HETATM   13  C15   D T 299      -4.920   1.027  10.205  1.00 30.79     0.140 A 
HETATM   14  C5    D T 299      -5.661   1.093   9.022  1.00 28.60     0.031 A 
HETATM   15  F29   D T 299      -4.553   2.113  10.863  1.00 28.40    -0.204 F 
HETATM   16  C6    D T 299      -6.033  -0.094   8.365  1.00 25.34     0.021 A 
HETATM   17  N24   D T 299      -5.856  -2.720   8.504  1.00 26.35    -0.220 NA
HETATM   18  C21   D T 299      -5.272  -3.576   9.398  1.00 26.17     0.209 A 
HETATM   19  O27   D T 299      -5.280  -4.954   9.312  1.00 26.42    -0.170 OA
ENDBRANCH   8   9
ENDBRANCH   5   8
BRANCH   6  20
HETATM   20  C22   D T 299       1.159  -3.942  10.806  1.00 37.52     0.276 C 
HETATM   21  N25   D T 299       1.661  -4.171   9.451  1.00 36.66    -0.232 NA
HETATM   22  O28   D T 299       1.938  -3.514  11.698  1.00 36.30    -0.266 OA
BRANCH  21  23
HETATM   23  C37   D T 299       3.033  -3.910   9.149  1.00 41.76     0.164 C 
BRANCH  23  24
HETATM   24  C38   D T 299       4.065  -4.999   9.320  1.00 43.50     0.276 C 
BRANCH  24  25
HETATM   25  N4    D T 299       4.969  -4.958  10.475  1.00 42.38     0.139 N 
BRANCH  25  26
HETATM   26  C39   D T 299       4.526  -5.845  11.515  1.00 41.85     0.250 C 
HETATM   27  C42   D T 299       5.305  -5.941  12.786  1.00 47.83     0.037 C 
ENDBRANCH  25  26
BRANCH  25  28
HETATM   28  C40   D T 299       6.303  -5.274  10.083  1.00 35.07     0.250 C 
HETATM   29  C41   D T 299       7.241  -4.121   9.718  1.00 41.01     0.037 C 
ENDBRANCH  25  28
ENDBRANCH  24  25
ENDBRANCH  23  24
ENDBRANCH  21  23
ENDBRANCH   6  20
TORSDOF 8
ENDMDL
MODEL 7
REMARK VINA RESULT:    -7.792      3.252      8.513
REMARK INTER + INTRA:         -12.953
REMARK INTER:                 -11.629
REMARK INTRA:                  -1.323
REMARK UNBOUND:                -1.516
REMARK  8 active torsions:
REMARK  status: ('A' for Active; 'I' for Inactive)
REMARK    1  A    between atoms: C20_8  and  C12_12 
REMARK    2  A    between atoms: C22_10  and  C19_16 
REMARK       I    between atoms: C22_10  and  N25_19 
REMARK    3  A    between atoms: C12_12  and  C18_15 
REMARK    4  A    between atoms: N25_19  and  C37_23 
REMARK    5  A    between atoms: C37_23  and  C38_24 
REMARK    6  A    between atoms: C38_24  and  N4_25 
REMARK    7  A    between atoms: N4_25  and  C39_26 
REMARK    8  A    between atoms: N4_25  and  C40_27 
ROOT
HETATM    1  C4    D T 299      -6.301  -3.709   8.801  1.00 31.87     0.052 C 
HETATM    2  C13   D T 299      -3.433  -2.817  11.075  1.00 35.43    -0.002 A 
HETATM    3  C3    D T 299      -2.279  -3.064  12.011  1.00 37.61     0.033 C 
HETATM    4  C14   D T 299      -5.198  -3.087   9.665  1.00 34.64     0.063 A 
HETATM    5  C18   D T 299      -3.894  -1.557  10.666  1.00 34.31     0.059 A 
HETATM    6  C19   D T 299      -4.228  -3.787  10.451  1.00 36.11     0.068 A 
HETATM    7  N23   D T 299      -4.975  -1.741   9.809  1.00 32.82    -0.254 NA
ENDROOT
BRANCH   5   8
HETATM    8  C12   D T 299      -3.274  -0.256  11.152  1.00 31.34     0.075 C 
BRANCH   8   9
HETATM    9  C20   D T 299      -2.204   0.452  10.294  1.00 27.84     0.029 A 
HETATM   10  C17   D T 299      -0.844   0.565  10.777  1.00 29.49     0.020 A 
HETATM   11  C7    D T 299      -0.259   0.112  11.967  1.00 33.30     0.031 A 
HETATM   12  C16   D T 299      -0.113   1.222   9.829  1.00 26.85     0.084 A 
HETATM   13  C15   D T 299       1.109   0.345  12.209  1.00 30.79     0.140 A 
HETATM   14  C5    D T 299       1.881   1.016  11.256  1.00 28.60     0.031 A 
HETATM   15  F29   D T 299       1.621  -0.085  13.348  1.00 28.40    -0.204 F 
HETATM   16  C6    D T 299       1.284   1.460  10.062  1.00 25.34     0.021 A 
HETATM   17  N24   D T 299      -1.000   1.529   8.750  1.00 26.35    -0.220 NA
HETATM   18  C21   D T 299      -2.259   1.071   9.031  1.00 26.17     0.209 A 
HETATM   19  O27   D T 299      -3.362   1.199   8.210  1.00 26.42    -0.170 OA
ENDBRANCH   8   9
ENDBRANCH   5   8
BRANCH   6  20
HETATM   20  C22   D T 299      -4.085  -5.318  10.630  1.00 37.52     0.276 C 
HETATM   21  N25   D T 299      -2.969  -6.032  10.009  1.00 36.66    -0.232 NA
HETATM   22  O28   D T 299      -4.925  -5.953  11.324  1.00 36.30    -0.266 OA
BRANCH  21  23
HETATM   23  C37   D T 299      -2.841  -7.443  10.190  1.00 41.76     0.164 C 
BRANCH  23  24
HETATM   24  C38   D T 299      -1.759  -7.995  11.088  1.00 43.50     0.276 C 
BRANCH  24  25
HETATM   25  N4    D T 299      -2.013  -8.121  12.527  1.00 42.38     0.139 N 
BRANCH  25  26
HETATM   26  C39   D T 299      -3.262  -8.787  12.780  1.00 41.85     0.250 C 
HETATM   27  C42   D T 299      -3.299  -9.961  13.701  1.00 47.83     0.037 C 
ENDBRANCH  25  26
BRANCH  25  28
HETATM   28  C40   D T 299      -0.942  -8.808  13.171  1.00 35.07     0.250 C 
HETATM   29  C41   D T 299       0.443  -8.758  12.519  1.00 41.01     0.037 C 
ENDBRANCH  25  28
ENDBRANCH  24  25
ENDBRANCH  23  24
ENDBRANCH  21  23
ENDBRANCH   6  20
TORSDOF 8
ENDMDL
MODEL 8
REMARK VINA RESULT:    -7.719      1.609      2.432
REMARK INTER + INTRA:         -12.846
REMARK INTER:                 -11.830
REMARK INTRA:                  -1.015
REMARK UNBOUND:                -1.516
REMARK  8 active torsions:
REMARK  status: ('A' for Active; 'I' for Inactive)
REMARK    1  A    between atoms: C20_8  and  C12_12 
REMARK    2  A    between atoms: C22_10  and  C19_16 
REMARK       I    between atoms: C22_10  and  N25_19 
REMARK    3  A    between atoms: C12_12  and  C18_15 
REMARK    4  A    between atoms: N25_19  and  C37_23 
REMARK    5  A    between atoms: C37_23  and  C38_24 
REMARK    6  A    between atoms: C38_24  and  N4_25 
REMARK    7  A    between atoms: N4_25  and  C39_26 
REMARK    8  A    between atoms: N4_25  and  C40_27 
ROOT
HETATM    1  C4    D T 299       2.380  -2.919   9.395  1.00 31.87     0.052 C 
HETATM    2  C13   D T 299      -0.683  -1.021  10.494  1.00 35.43    -0.002 A 
HETATM    3  C3    D T 299      -1.587   0.173  10.661  1.00 37.61     0.033 C 
HETATM    4  C14   D T 299       1.051  -2.386   9.943  1.00 34.64     0.063 A 
HETATM    5  C18   D T 299      -0.951  -2.317  10.957  1.00 34.31     0.059 A 
HETATM    6  C19   D T 299       0.559  -1.046   9.847  1.00 36.11     0.068 A 
HETATM    7  N23   D T 299       0.120  -3.137  10.616  1.00 32.82    -0.254 NA
ENDROOT
BRANCH   5   8
HETATM    8  C12   D T 299      -2.217  -2.672  11.723  1.00 31.34     0.075 C 
BRANCH   8   9
HETATM    9  C20   D T 299      -3.252  -3.628  11.093  1.00 27.84     0.029 A 
HETATM   10  C17   D T 299      -4.358  -3.095  10.325  1.00 29.49     0.020 A 
HETATM   11  C7    D T 299      -4.695  -1.772  10.008  1.00 33.30     0.031 A 
HETATM   12  C16   D T 299      -5.109  -4.147   9.883  1.00 26.85     0.084 A 
HETATM   13  C15   D T 299      -5.837  -1.507   9.229  1.00 30.79     0.140 A 
HETATM   14  C5    D T 299      -6.625  -2.564   8.764  1.00 28.60     0.031 A 
HETATM   15  F29   D T 299      -6.129  -0.246   8.963  1.00 28.40    -0.204 F 
HETATM   16  C6    D T 299      -6.273  -3.888   9.083  1.00 25.34     0.021 A 
HETATM   17  N24   D T 299      -4.490  -5.341  10.368  1.00 26.35    -0.220 NA
HETATM   18  C21   D T 299      -3.376  -5.029  11.101  1.00 26.17     0.209 A 
HETATM   19  O27   D T 299      -2.541  -5.939  11.718  1.00 26.42    -0.170 OA
ENDBRANCH   8   9
ENDBRANCH   5   8
BRANCH   6  20
HETATM   20  C22   D T 299       1.260   0.172   9.196  1.00 37.52     0.276 C 
HETATM   21  N25   D T 299       2.556   0.631   9.696  1.00 36.66    -0.232 NA
HETATM   22  O28   D T 299       0.720   0.763   8.223  1.00 36.30    -0.266 OA
BRANCH  21  23
HETATM   23  C37   D T 299       3.199   1.748   9.080  1.00 41.76     0.164 C 
BRANCH  23  24
HETATM   24  C38   D T 299       4.568   2.183   9.545  1.00 43.50     0.276 C 
BRANCH  24  25
HETATM   25  N4    D T 299       5.121   3.454   9.065  1.00 42.38     0.139 N 
BRANCH  25  26
HETATM   26  C39   D T 299       4.476   3.878   7.853  1.00 41.85     0.250 C 
HETATM   27  C42   D T 299       4.184   5.327   7.639  1.00 47.83     0.037 C 
ENDBRANCH  25  26
BRANCH  25  28
HETATM   28  C40   D T 299       5.012   4.463  10.068  1.00 35.07     0.250 C 
HETATM   29  C41   D T 299       4.183   4.153  11.317  1.00 41.01     0.037 C 
ENDBRANCH  25  28
ENDBRANCH  24  25
ENDBRANCH  23  24
ENDBRANCH  21  23
ENDBRANCH   6  20
TORSDOF 8
ENDMDL
MODEL 9
REMARK VINA RESULT:    -7.665      1.543      2.163
REMARK INTER + INTRA:         -12.766
REMARK INTER:                 -11.086
REMARK INTRA:                  -1.681
REMARK UNBOUND:                -1.516
REMARK  8 active torsions:
REMARK  status: ('A' for Active; 'I' for Inactive)
REMARK    1  A    between atoms: C20_8  and  C12_12 
REMARK    2  A    between atoms: C22_10  and  C19_16 
REMARK       I    between atoms: C22_10  and  N25_19 
REMARK    3  A    between atoms: C12_12  and  C18_15 
REMARK    4  A    between atoms: N25_19  and  C37_23 
REMARK    5  A    between atoms: C37_23  and  C38_24 
REMARK    6  A    between atoms: C38_24  and  N4_25 
REMARK    7  A    between atoms: N4_25  and  C39_26 
REMARK    8  A    between atoms: N4_25  and  C40_27 
ROOT
HETATM    1  C4    D T 299       2.586  -4.600  11.555  1.00 31.87     0.052 C 
HETATM    2  C13   D T 299      -0.293  -2.172  11.510  1.00 35.43    -0.002 A 
HETATM    3  C3    D T 299      -0.989  -0.851  11.305  1.00 37.61     0.033 C 
HETATM    4  C14   D T 299       1.266  -3.825  11.622  1.00 34.64     0.063 A 
HETATM    5  C18   D T 299      -0.905  -3.355  11.951  1.00 34.31     0.059 A 
HETATM    6  C19   D T 299       1.061  -2.449  11.288  1.00 36.11     0.068 A 
HETATM    7  N23   D T 299       0.062  -4.353  12.018  1.00 32.82    -0.254 NA
ENDROOT
BRANCH   5   8
HETATM    8  C12   D T 299      -2.383  -3.435  12.303  1.00 31.34     0.075 C 
BRANCH   8   9
HETATM    9  C20   D T 299      -3.386  -4.007  11.279  1.00 27.84     0.029 A 
HETATM   10  C17   D T 299      -4.334  -3.131  10.624  1.00 29.49     0.020 A 
HETATM   11  C7    D T 299      -4.530  -1.748  10.742  1.00 33.30     0.031 A 
HETATM   12  C16   D T 299      -5.089  -3.887   9.773  1.00 26.85     0.084 A 
HETATM   13  C15   D T 299      -5.532  -1.115   9.982  1.00 30.79     0.140 A 
HETATM   14  C5    D T 299      -6.320  -1.864   9.104  1.00 28.60     0.031 A 
HETATM   15  F29   D T 299      -5.695   0.188  10.131  1.00 28.40    -0.204 F 
HETATM   16  C6    D T 299      -6.110  -3.250   8.989  1.00 25.34     0.021 A 
HETATM   17  N24   D T 299      -4.628  -5.236   9.886  1.00 26.35    -0.220 NA
HETATM   18  C21   D T 299      -3.608  -5.310  10.796  1.00 26.17     0.209 A 
HETATM   19  O27   D T 299      -2.933  -6.460  11.152  1.00 26.42    -0.170 OA
ENDBRANCH   8   9
ENDBRANCH   5   8
BRANCH   6  20
HETATM   20  C22   D T 299       2.122  -1.426  10.810  1.00 37.52     0.276 C 
HETATM   21  N25   D T 299       2.173  -1.020   9.406  1.00 36.66    -0.232 NA
HETATM   22  O28   D T 299       2.936  -0.931  11.634  1.00 36.30    -0.266 OA
BRANCH  21  23
HETATM   23  C37   D T 299       3.148  -0.068   8.977  1.00 41.76     0.164 C 
BRANCH  23  24
HETATM   24  C38   D T 299       2.761   1.381   8.795  1.00 43.50     0.276 C 
BRANCH  24  25
HETATM   25  N4    D T 299       3.329   2.395   9.690  1.00 42.38     0.139 N 
BRANCH  25  26
HETATM   26  C39   D T 299       2.555   2.520  10.894  1.00 41.85     0.250 C 
HETATM   27  C42   D T 299       1.074   2.343  10.842  1.00 47.83     0.037 C 
ENDBRANCH  25  26
BRANCH  25  28
HETATM   28  C40   D T 299       4.688   2.091   9.999  1.00 35.07     0.250 C 
HETATM   29  C41   D T 299       5.067   1.891  11.470  1.00 41.01     0.037 C 
ENDBRANCH  25  28
ENDBRANCH  24  25
ENDBRANCH  23  24
ENDBRANCH  21  23
ENDBRANCH   6  20
TORSDOF 8
ENDMDL
