MODEL 1
REMARK VINA RESULT:      -7.8      0.000      0.000
REMARK  18 active torsions:
REMARK  status: ('A' for Active; 'I' for Inactive)
REMARK    1  A    between atoms: C2_2  and  C6_6 
REMARK    2  A    between atoms: C6_6  and  O7_7 
REMARK    3  A    between atoms: O7_7  and  C10_8 
REMARK       I    between atoms: C10_8  and  N11_10 
REMARK    4  A    between atoms: N11_10  and  C12_11 
REMARK    5  A    between atoms: C12_11  and  C13_12 
REMARK    6  A    between atoms: C12_11  and  C26_15 
REMARK    7  A    between atoms: C13_12  and  C14_13 
REMARK    8  A    between atoms: C14_13  and  C15_14 
REMARK    9  A    between atoms: C15_14  and  C44_23 
REMARK   10  A    between atoms: C15_14  and  N58_30 
REMARK   11  A    between atoms: C26_15  and  C28_16 
REMARK   12  A    between atoms: C44_23  and  C45_24 
REMARK       I    between atoms: N58_30  and  C18_33 
REMARK   13  A    between atoms: N20_31  and  C19_32 
REMARK       I    between atoms: N20_31  and  C21_38 
REMARK   14  A    between atoms: C19_32  and  C18_33 
REMARK   15  A    between atoms: C19_32  and  C62_35 
REMARK       I    between atoms: C21_38  and  N74_39 
REMARK   16  A    between atoms: N74_39  and  C75_40 
REMARK   17  A    between atoms: C75_40  and  C77_42 
REMARK   18  A    between atoms: C82_45  and  C85_47 
ROOT
HETATM    1  C15   D T 401      11.005 -19.085 -23.593  1.00 59.81     0.113 C 
ENDROOT
BRANCH   1   2
HETATM    2  C14   D T 401       9.780 -19.917 -23.192  1.00 58.93     0.060 C 
BRANCH   2   3
HETATM    3  C13   D T 401       8.613 -19.980 -24.206  1.00 59.07     0.177 C 
HETATM    4  O41   D T 401       7.436 -19.517 -23.555  1.00 58.43    -0.221 OA
BRANCH   3   5
HETATM    5  C12   D T 401       8.318 -21.370 -24.775  1.00 59.52     0.143 C 
BRANCH   5   6
HETATM    6  N11   D T 401       8.376 -21.266 -26.225  1.00 58.37    -0.211 NA
HETATM    7  C10   D T 401       7.339 -21.679 -26.933  1.00 59.08     0.384 C 
HETATM    8  O24   D T 401       6.385 -22.233 -26.388  1.00 59.19    -0.236 OA
BRANCH   7   9
HETATM    9  O7    D T 401       7.316 -21.460 -28.373  1.00 58.33    -0.278 OA
BRANCH   9  10
HETATM   10  C6    D T 401       6.047 -21.247 -28.962  1.00 59.85     0.188 C 
BRANCH  10  11
HETATM   11  C2    D T 401       6.002 -22.049 -30.221  1.00 62.87     0.058 A 
HETATM   12  C1    D T 401       6.470 -23.310 -30.578  1.00 63.59     0.104 A 
HETATM   13  N5    D T 401       6.199 -23.584 -31.904  1.00 65.21    -0.235 NA
HETATM   14  C4    D T 401       5.548 -22.615 -32.611  1.00 64.03     0.134 A 
HETATM   15  S3    D T 401       5.265 -21.261 -31.579  1.00 63.44    -0.066 SA
ENDBRANCH  10  11
ENDBRANCH   9  10
ENDBRANCH   7   9
ENDBRANCH   5   6
BRANCH   5  16
HETATM   16  C26   D T 401       9.227 -22.514 -24.275  1.00 59.99     0.053 C 
BRANCH  16  17
HETATM   17  C28   D T 401       8.521 -23.391 -23.246  1.00 61.27    -0.020 A 
HETATM   18  C31   D T 401       9.267 -24.141 -22.318  1.00 62.70    -0.004 A 
HETATM   19  C32   D T 401       8.634 -24.960 -21.361  1.00 62.25    -0.000 A 
HETATM   20  C33   D T 401       7.242 -25.035 -21.302  1.00 60.89    -0.000 A 
HETATM   21  C34   D T 401       6.489 -24.295 -22.218  1.00 61.83    -0.000 A 
HETATM   22  C35   D T 401       7.122 -23.480 -23.190  1.00 61.69    -0.004 A 
ENDBRANCH  16  17
ENDBRANCH   5  16
ENDBRANCH   3   5
ENDBRANCH   2   3
ENDBRANCH   1   2
BRANCH   1  23
HETATM   23  C44   D T 401      10.720 -17.586 -23.385  1.00 61.03     0.051 C 
BRANCH  23  24
HETATM   24  C45   D T 401      11.935 -16.689 -23.171  1.00 62.14    -0.020 A 
HETATM   25  C48   D T 401      11.967 -15.517 -23.925  1.00 62.95    -0.004 A 
HETATM   26  C49   D T 401      13.005 -14.580 -23.807  1.00 63.23    -0.000 A 
HETATM   27  C50   D T 401      14.039 -14.814 -22.903  1.00 64.66    -0.000 A 
HETATM   28  C51   D T 401      14.022 -15.986 -22.132  1.00 64.50    -0.000 A 
HETATM   29  C52   D T 401      12.979 -16.919 -22.254  1.00 63.39    -0.004 A 
ENDBRANCH  23  24
ENDBRANCH   1  23
BRANCH   1  30
HETATM   30  N58   D T 401      11.319 -19.188 -24.991  1.00 60.63    -0.238 NA
HETATM   31  C18   D T 401      12.514 -19.170 -25.558  1.00 62.24     0.274 C 
HETATM   32  O61   D T 401      13.619 -19.118 -25.019  1.00 61.50    -0.268 OA
BRANCH  31  33
HETATM   33  C19   D T 401      12.365 -19.191 -27.041  1.00 64.75     0.188 C 
BRANCH  33  34
HETATM   34  N20   D T 401      11.643 -20.385 -27.430  1.00 65.69    -0.211 NA
HETATM   35  C21   D T 401      12.232 -21.315 -28.135  1.00 66.79     0.343 C 
HETATM   36  N74   D T 401      11.531 -21.987 -29.033  1.00 71.41    -0.294 N 
HETATM   37  O76   D T 401      13.425 -21.462 -28.087  1.00 67.85    -0.245 OA
HETATM   38  C95   D T 401      10.417 -21.427 -29.806  1.00 70.78     0.131 C 
BRANCH  36  39
HETATM   39  C75   D T 401      11.874 -23.357 -29.375  1.00 74.33     0.152 C 
BRANCH  39  40
HETATM   40  C77   D T 401      10.693 -24.198 -29.018  1.00 76.44     0.088 A 
HETATM   41  C80   D T 401      10.077 -25.106 -29.887  1.00 78.25     0.053 A 
HETATM   42  S81   D T 401       8.760 -25.883 -29.081  1.00 82.00    -0.070 SA
HETATM   43  C82   D T 401       9.063 -24.992 -27.609  1.00 80.73     0.088 A 
HETATM   44  N83   D T 401      10.128 -24.153 -27.770  1.00 78.96    -0.245 NA
BRANCH  43  45
HETATM   45  C85   D T 401       8.180 -25.255 -26.442  1.00 81.61     0.047 C 
HETATM   46  C86   D T 401       8.776 -26.322 -25.514  1.00 81.16     0.007 C 
HETATM   47  C90   D T 401       6.776 -25.624 -26.948  1.00 82.31     0.007 C 
ENDBRANCH  43  45
ENDBRANCH  39  40
ENDBRANCH  36  39
ENDBRANCH  33  34
BRANCH  33  48
HETATM   48  C62   D T 401      11.595 -17.954 -27.545  1.00 64.68     0.032 C 
HETATM   49  C64   D T 401      12.325 -16.661 -27.222  1.00 64.29     0.003 C 
HETATM   50  C68   D T 401      11.278 -18.044 -29.036  1.00 63.77     0.003 C 
ENDBRANCH  33  48
ENDBRANCH  31  33
ENDBRANCH   1  30
TORSDOF 18
ENDMDL
MODEL 2
REMARK VINA RESULT:      -7.7      1.973      6.605
REMARK  18 active torsions:
REMARK  status: ('A' for Active; 'I' for Inactive)
REMARK    1  A    between atoms: C2_2  and  C6_6 
REMARK    2  A    between atoms: C6_6  and  O7_7 
REMARK    3  A    between atoms: O7_7  and  C10_8 
REMARK       I    between atoms: C10_8  and  N11_10 
REMARK    4  A    between atoms: N11_10  and  C12_11 
REMARK    5  A    between atoms: C12_11  and  C13_12 
REMARK    6  A    between atoms: C12_11  and  C26_15 
REMARK    7  A    between atoms: C13_12  and  C14_13 
REMARK    8  A    between atoms: C14_13  and  C15_14 
REMARK    9  A    between atoms: C15_14  and  C44_23 
REMARK   10  A    between atoms: C15_14  and  N58_30 
REMARK   11  A    between atoms: C26_15  and  C28_16 
REMARK   12  A    between atoms: C44_23  and  C45_24 
REMARK       I    between atoms: N58_30  and  C18_33 
REMARK   13  A    between atoms: N20_31  and  C19_32 
REMARK       I    between atoms: N20_31  and  C21_38 
REMARK   14  A    between atoms: C19_32  and  C18_33 
REMARK   15  A    between atoms: C19_32  and  C62_35 
REMARK       I    between atoms: C21_38  and  N74_39 
REMARK   16  A    between atoms: N74_39  and  C75_40 
REMARK   17  A    between atoms: C75_40  and  C77_42 
REMARK   18  A    between atoms: C82_45  and  C85_47 
ROOT
HETATM    1  C15   D T 401       8.493 -24.170 -23.635  1.00 59.81     0.113 C 
ENDROOT
BRANCH   1   2
HETATM    2  C14   D T 401       9.188 -22.814 -23.450  1.00 58.93     0.060 C 
BRANCH   2   3
HETATM    3  C13   D T 401       8.277 -21.573 -23.307  1.00 59.07     0.177 C 
HETATM    4  O41   D T 401       6.924 -22.006 -23.387  1.00 58.43    -0.221 OA
BRANCH   3   5
HETATM    5  C12   D T 401       8.483 -20.487 -24.367  1.00 59.52     0.143 C 
BRANCH   5   6
HETATM    6  N11   D T 401       7.530 -20.738 -25.436  1.00 58.37    -0.211 NA
HETATM    7  C10   D T 401       7.963 -21.289 -26.557  1.00 59.08     0.384 C 
HETATM    8  O24   D T 401       9.164 -21.496 -26.733  1.00 59.19    -0.236 OA
BRANCH   7   9
HETATM    9  O7    D T 401       7.009 -21.677 -27.586  1.00 58.33    -0.278 OA
BRANCH   9  10
HETATM   10  C6    D T 401       6.656 -20.685 -28.532  1.00 59.85     0.188 C 
BRANCH  10  11
HETATM   11  C2    D T 401       7.075 -21.184 -29.876  1.00 62.87     0.058 A 
HETATM   12  C1    D T 401       8.232 -21.048 -30.637  1.00 63.59     0.104 A 
HETATM   13  N5    D T 401       8.105 -21.687 -31.855  1.00 65.21    -0.235 NA
HETATM   14  C4    D T 401       6.917 -22.315 -32.097  1.00 64.03     0.134 A 
HETATM   15  S3    D T 401       5.874 -22.089 -30.741  1.00 63.44    -0.066 SA
ENDBRANCH  10  11
ENDBRANCH   9  10
ENDBRANCH   7   9
ENDBRANCH   5   6
BRANCH   5  16
HETATM   16  C26   D T 401       8.373 -19.029 -23.872  1.00 59.99     0.053 C 
BRANCH  16  17
HETATM   17  C28   D T 401       9.720 -18.484 -23.407  1.00 61.27    -0.020 A 
HETATM   18  C31   D T 401      10.647 -19.327 -22.767  1.00 62.70    -0.004 A 
HETATM   19  C32   D T 401      11.896 -18.843 -22.328  1.00 62.25    -0.000 A 
HETATM   20  C33   D T 401      12.250 -17.509 -22.533  1.00 60.89    -0.000 A 
HETATM   21  C34   D T 401      11.338 -16.660 -23.166  1.00 61.83    -0.000 A 
HETATM   22  C35   D T 401      10.077 -17.141 -23.599  1.00 61.69    -0.004 A 
ENDBRANCH  16  17
ENDBRANCH   5  16
ENDBRANCH   3   5
ENDBRANCH   2   3
ENDBRANCH   1   2
BRANCH   1  23
HETATM   23  C44   D T 401       9.283 -25.276 -22.913  1.00 61.03     0.051 C 
BRANCH  23  24
HETATM   24  C45   D T 401       9.079 -25.379 -21.405  1.00 62.14    -0.020 A 
HETATM   25  C48   D T 401       7.851 -24.926 -20.925  1.00 62.95    -0.004 A 
HETATM   26  C49   D T 401       7.510 -24.991 -19.565  1.00 63.23    -0.000 A 
HETATM   27  C50   D T 401       8.416 -25.534 -18.658  1.00 64.66    -0.000 A 
HETATM   28  C51   D T 401       9.656 -26.000 -19.123  1.00 64.50    -0.000 A 
HETATM   29  C52   D T 401       9.990 -25.933 -20.486  1.00 63.39    -0.004 A 
ENDBRANCH  23  24
ENDBRANCH   1  23
BRANCH   1  30
HETATM   30  N58   D T 401       8.464 -24.601 -25.006  1.00 60.63    -0.238 NA
HETATM   31  C18   D T 401       7.404 -24.822 -25.765  1.00 62.24     0.274 C 
HETATM   32  O61   D T 401       6.215 -24.657 -25.491  1.00 61.50    -0.268 OA
BRANCH  31  33
HETATM   33  C19   D T 401       7.837 -25.365 -27.083  1.00 64.75     0.188 C 
BRANCH  33  34
HETATM   34  N20   D T 401       9.137 -24.820 -27.419  1.00 65.69    -0.211 NA
HETATM   35  C21   D T 401       9.412 -24.474 -28.649  1.00 66.79     0.343 C 
HETATM   36  N74   D T 401      10.640 -24.645 -29.109  1.00 71.41    -0.294 N 
HETATM   37  O76   D T 401       8.537 -24.149 -29.408  1.00 67.85    -0.245 OA
HETATM   38  C95   D T 401      11.537 -25.731 -28.701  1.00 70.78     0.131 C 
BRANCH  36  39
HETATM   39  C75   D T 401      11.179 -23.773 -30.140  1.00 74.33     0.152 C 
BRANCH  39  40
HETATM   40  C77   D T 401      11.981 -22.725 -29.439  1.00 76.44     0.088 A 
HETATM   41  C80   D T 401      13.359 -22.807 -29.209  1.00 78.25     0.053 A 
HETATM   42  S81   D T 401      13.898 -21.385 -28.385  1.00 82.00    -0.070 SA
HETATM   43  C82   D T 401      12.285 -20.714 -28.375  1.00 80.73     0.088 A 
HETATM   44  N83   D T 401      11.409 -21.566 -28.981  1.00 78.96    -0.245 NA
BRANCH  43  45
HETATM   45  C85   D T 401      12.092 -19.377 -27.752  1.00 81.61     0.047 C 
HETATM   46  C86   D T 401      12.030 -19.472 -26.222  1.00 81.16     0.007 C 
HETATM   47  C90   D T 401      10.842 -18.717 -28.357  1.00 82.31     0.007 C 
ENDBRANCH  43  45
ENDBRANCH  39  40
ENDBRANCH  36  39
ENDBRANCH  33  34
BRANCH  33  48
HETATM   48  C62   D T 401       7.932 -26.904 -27.053  1.00 64.68     0.032 C 
HETATM   49  C64   D T 401       7.609 -27.520 -28.404  1.00 64.29     0.003 C 
HETATM   50  C68   D T 401       9.289 -27.385 -26.544  1.00 63.77     0.003 C 
ENDBRANCH  33  48
ENDBRANCH  31  33
ENDBRANCH   1  30
TORSDOF 18
ENDMDL
MODEL 3
REMARK VINA RESULT:      -7.6      2.458      7.346
REMARK  18 active torsions:
REMARK  status: ('A' for Active; 'I' for Inactive)
REMARK    1  A    between atoms: C2_2  and  C6_6 
REMARK    2  A    between atoms: C6_6  and  O7_7 
REMARK    3  A    between atoms: O7_7  and  C10_8 
REMARK       I    between atoms: C10_8  and  N11_10 
REMARK    4  A    between atoms: N11_10  and  C12_11 
REMARK    5  A    between atoms: C12_11  and  C13_12 
REMARK    6  A    between atoms: C12_11  and  C26_15 
REMARK    7  A    between atoms: C13_12  and  C14_13 
REMARK    8  A    between atoms: C14_13  and  C15_14 
REMARK    9  A    between atoms: C15_14  and  C44_23 
REMARK   10  A    between atoms: C15_14  and  N58_30 
REMARK   11  A    between atoms: C26_15  and  C28_16 
REMARK   12  A    between atoms: C44_23  and  C45_24 
REMARK       I    between atoms: N58_30  and  C18_33 
REMARK   13  A    between atoms: N20_31  and  C19_32 
REMARK       I    between atoms: N20_31  and  C21_38 
REMARK   14  A    between atoms: C19_32  and  C18_33 
REMARK   15  A    between atoms: C19_32  and  C62_35 
REMARK       I    between atoms: C21_38  and  N74_39 
REMARK   16  A    between atoms: N74_39  and  C75_40 
REMARK   17  A    between atoms: C75_40  and  C77_42 
REMARK   18  A    between atoms: C82_45  and  C85_47 
ROOT
HETATM    1  C15   D T 401       8.313 -23.244 -23.508  1.00 59.81     0.113 C 
ENDROOT
BRANCH   1   2
HETATM    2  C14   D T 401       9.383 -22.178 -23.778  1.00 58.93     0.060 C 
BRANCH   2   3
HETATM    3  C13   D T 401       9.358 -21.495 -25.165  1.00 59.07     0.177 C 
HETATM    4  O41   D T 401      10.092 -22.309 -26.072  1.00 58.43    -0.221 OA
BRANCH   3   5
HETATM    5  C12   D T 401       9.957 -20.086 -25.210  1.00 59.52     0.143 C 
BRANCH   5   6
HETATM    6  N11   D T 401       9.848 -19.613 -26.580  1.00 58.37    -0.211 NA
HETATM    7  C10   D T 401      10.944 -19.220 -27.205  1.00 59.08     0.384 C 
HETATM    8  O24   D T 401      12.021 -19.162 -26.612  1.00 59.19    -0.236 OA
BRANCH   7   9
HETATM    9  O7    D T 401      10.884 -18.873 -28.619  1.00 58.33    -0.278 OA
BRANCH   9  10
HETATM   10  C6    D T 401      11.764 -17.858 -29.062  1.00 59.85     0.188 C 
BRANCH  10  11
HETATM   11  C2    D T 401      12.420 -18.352 -30.309  1.00 62.87     0.058 A 
HETATM   12  C1    D T 401      12.060 -18.354 -31.653  1.00 63.59     0.104 A 
HETATM   13  N5    D T 401      13.021 -18.977 -32.425  1.00 65.21    -0.235 NA
HETATM   14  C4    D T 401      14.113 -19.466 -31.768  1.00 64.03     0.134 A 
HETATM   15  S3    D T 401      13.940 -19.157 -30.080  1.00 63.44    -0.066 SA
ENDBRANCH  10  11
ENDBRANCH   9  10
ENDBRANCH   7   9
ENDBRANCH   5   6
BRANCH   5  16
HETATM   16  C26   D T 401       9.349 -19.061 -24.229  1.00 59.99     0.053 C 
BRANCH  16  17
HETATM   17  C28   D T 401      10.425 -18.318 -23.444  1.00 61.27    -0.020 A 
HETATM   18  C31   D T 401      10.549 -16.920 -23.551  1.00 62.70    -0.004 A 
HETATM   19  C32   D T 401      11.537 -16.216 -22.836  1.00 62.25    -0.000 A 
HETATM   20  C33   D T 401      12.414 -16.892 -21.986  1.00 60.89    -0.000 A 
HETATM   21  C34   D T 401      12.303 -18.280 -21.870  1.00 61.83    -0.000 A 
HETATM   22  C35   D T 401      11.317 -18.993 -22.597  1.00 61.69    -0.004 A 
ENDBRANCH  16  17
ENDBRANCH   5  16
ENDBRANCH   3   5
ENDBRANCH   2   3
ENDBRANCH   1   2
BRANCH   1  23
HETATM   23  C44   D T 401       8.977 -24.606 -23.234  1.00 61.03     0.051 C 
BRANCH  23  24
HETATM   24  C45   D T 401       8.980 -25.078 -21.784  1.00 62.14    -0.020 A 
HETATM   25  C48   D T 401       7.808 -24.847 -21.066  1.00 62.95    -0.004 A 
HETATM   26  C49   D T 401       7.654 -25.258 -19.733  1.00 63.23    -0.000 A 
HETATM   27  C50   D T 401       8.697 -25.928 -19.099  1.00 64.66    -0.000 A 
HETATM   28  C51   D T 401       9.883 -26.174 -19.807  1.00 64.50    -0.000 A 
HETATM   29  C52   D T 401      10.030 -25.762 -21.142  1.00 63.39    -0.004 A 
ENDBRANCH  23  24
ENDBRANCH   1  23
BRANCH   1  30
HETATM   30  N58   D T 401       7.469 -23.490 -24.645  1.00 60.63    -0.238 NA
HETATM   31  C18   D T 401       6.325 -24.153 -24.678  1.00 62.24     0.274 C 
HETATM   32  O61   D T 401       5.701 -24.656 -23.743  1.00 61.50    -0.268 OA
BRANCH  31  33
HETATM   33  C19   D T 401       5.850 -24.261 -26.086  1.00 64.75     0.188 C 
BRANCH  33  34
HETATM   34  N20   D T 401       6.908 -23.836 -26.980  1.00 65.69    -0.211 NA
HETATM   35  C21   D T 401       6.788 -22.734 -27.672  1.00 66.79     0.343 C 
HETATM   36  N74   D T 401       7.304 -22.675 -28.888  1.00 71.41    -0.294 N 
HETATM   37  O76   D T 401       6.089 -21.835 -27.283  1.00 67.85    -0.245 OA
HETATM   38  C95   D T 401       7.398 -23.815 -29.807  1.00 70.78     0.131 C 
BRANCH  36  39
HETATM   39  C75   D T 401       7.767 -21.414 -29.443  1.00 74.33     0.152 C 
BRANCH  39  40
HETATM   40  C77   D T 401       9.073 -21.693 -30.112  1.00 76.44     0.088 A 
HETATM   41  C80   D T 401       9.303 -21.557 -31.486  1.00 78.25     0.053 A 
HETATM   42  S81   D T 401      10.944 -21.962 -31.845  1.00 82.00    -0.070 SA
HETATM   43  C82   D T 401      11.288 -22.294 -30.164  1.00 80.73     0.088 A 
HETATM   44  N83   D T 401      10.176 -22.091 -29.401  1.00 78.96    -0.245 NA
BRANCH  43  45
HETATM   45  C85   D T 401      12.668 -22.718 -29.807  1.00 81.61     0.047 C 
HETATM   46  C86   D T 401      12.929 -24.177 -30.204  1.00 81.16     0.007 C 
HETATM   47  C90   D T 401      12.901 -22.459 -28.310  1.00 82.31     0.007 C 
ENDBRANCH  43  45
ENDBRANCH  39  40
ENDBRANCH  36  39
ENDBRANCH  33  34
BRANCH  33  48
HETATM   48  C62   D T 401       5.451 -25.708 -26.435  1.00 64.68     0.032 C 
HETATM   49  C64   D T 401       4.125 -25.770 -27.174  1.00 64.29     0.003 C 
HETATM   50  C68   D T 401       6.545 -26.433 -27.216  1.00 63.77     0.003 C 
ENDBRANCH  33  48
ENDBRANCH  31  33
ENDBRANCH   1  30
TORSDOF 18
ENDMDL
MODEL 4
REMARK VINA RESULT:      -7.5      2.938      6.187
REMARK  18 active torsions:
REMARK  status: ('A' for Active; 'I' for Inactive)
REMARK    1  A    between atoms: C2_2  and  C6_6 
REMARK    2  A    between atoms: C6_6  and  O7_7 
REMARK    3  A    between atoms: O7_7  and  C10_8 
REMARK       I    between atoms: C10_8  and  N11_10 
REMARK    4  A    between atoms: N11_10  and  C12_11 
REMARK    5  A    between atoms: C12_11  and  C13_12 
REMARK    6  A    between atoms: C12_11  and  C26_15 
REMARK    7  A    between atoms: C13_12  and  C14_13 
REMARK    8  A    between atoms: C14_13  and  C15_14 
REMARK    9  A    between atoms: C15_14  and  C44_23 
REMARK   10  A    between atoms: C15_14  and  N58_30 
REMARK   11  A    between atoms: C26_15  and  C28_16 
REMARK   12  A    between atoms: C44_23  and  C45_24 
REMARK       I    between atoms: N58_30  and  C18_33 
REMARK   13  A    between atoms: N20_31  and  C19_32 
REMARK       I    between atoms: N20_31  and  C21_38 
REMARK   14  A    between atoms: C19_32  and  C18_33 
REMARK   15  A    between atoms: C19_32  and  C62_35 
REMARK       I    between atoms: C21_38  and  N74_39 
REMARK   16  A    between atoms: N74_39  and  C75_40 
REMARK   17  A    between atoms: C75_40  and  C77_42 
REMARK   18  A    between atoms: C82_45  and  C85_47 
ROOT
HETATM    1  C15   D T 401       9.458 -19.999 -25.504  1.00 59.81     0.113 C 
ENDROOT
BRANCH   1   2
HETATM    2  C14   D T 401       9.389 -21.473 -25.085  1.00 58.93     0.060 C 
BRANCH   2   3
HETATM    3  C13   D T 401       8.047 -21.973 -24.502  1.00 59.07     0.177 C 
HETATM    4  O41   D T 401       7.650 -21.077 -23.471  1.00 58.43    -0.221 OA
BRANCH   3   5
HETATM    5  C12   D T 401       8.079 -23.385 -23.908  1.00 59.52     0.143 C 
BRANCH   5   6
HETATM    6  N11   D T 401       7.814 -24.317 -24.992  1.00 58.37    -0.211 NA
HETATM    7  C10   D T 401       6.606 -24.843 -25.096  1.00 59.08     0.384 C 
HETATM    8  O24   D T 401       5.749 -24.627 -24.239  1.00 59.19    -0.236 OA
BRANCH   7   9
HETATM    9  O7    D T 401       6.276 -25.670 -26.249  1.00 58.33    -0.278 OA
BRANCH   9  10
HETATM   10  C6    D T 401       4.917 -25.701 -26.640  1.00 59.85     0.188 C 
BRANCH  10  11
HETATM   11  C2    D T 401       4.394 -27.063 -26.321  1.00 62.87     0.058 A 
HETATM   12  C1    D T 401       4.721 -28.346 -26.749  1.00 63.59     0.104 A 
HETATM   13  N5    D T 401       3.897 -29.290 -26.166  1.00 65.21    -0.235 NA
HETATM   14  C4    D T 401       2.943 -28.825 -25.308  1.00 64.03     0.134 A 
HETATM   15  S3    D T 401       3.050 -27.105 -25.225  1.00 63.44    -0.066 SA
ENDBRANCH  10  11
ENDBRANCH   9  10
ENDBRANCH   7   9
ENDBRANCH   5   6
BRANCH   5  16
HETATM   16  C26   D T 401       9.371 -23.774 -23.158  1.00 59.99     0.053 C 
BRANCH  16  17
HETATM   17  C28   D T 401       9.077 -24.595 -21.907  1.00 61.27    -0.020 A 
HETATM   18  C31   D T 401      10.076 -25.404 -21.334  1.00 62.70    -0.004 A 
HETATM   19  C32   D T 401       9.824 -26.172 -20.180  1.00 62.25    -0.000 A 
HETATM   20  C33   D T 401       8.572 -26.137 -19.565  1.00 60.89    -0.000 A 
HETATM   21  C34   D T 401       7.570 -25.338 -20.124  1.00 61.83    -0.000 A 
HETATM   22  C35   D T 401       7.816 -24.574 -21.292  1.00 61.69    -0.004 A 
ENDBRANCH  16  17
ENDBRANCH   5  16
ENDBRANCH   3   5
ENDBRANCH   2   3
ENDBRANCH   1   2
BRANCH   1  23
HETATM   23  C44   D T 401       9.475 -19.882 -27.039  1.00 61.03     0.051 C 
BRANCH  23  24
HETATM   24  C45   D T 401       8.231 -20.379 -27.769  1.00 62.14    -0.020 A 
HETATM   25  C48   D T 401       8.449 -21.337 -28.759  1.00 62.95    -0.004 A 
HETATM   26  C49   D T 401       7.396 -21.910 -29.489  1.00 63.23    -0.000 A 
HETATM   27  C50   D T 401       6.086 -21.524 -29.217  1.00 64.66    -0.000 A 
HETATM   28  C51   D T 401       5.847 -20.565 -28.221  1.00 64.50    -0.000 A 
HETATM   29  C52   D T 401       6.905 -19.996 -27.493  1.00 63.39    -0.004 A 
ENDBRANCH  23  24
ENDBRANCH   1  23
BRANCH   1  30
HETATM   30  N58   D T 401      10.677 -19.358 -25.093  1.00 60.63    -0.238 NA
HETATM   31  C18   D T 401      10.837 -18.452 -24.143  1.00 62.24     0.274 C 
HETATM   32  O61   D T 401       9.998 -17.999 -23.364  1.00 61.50    -0.268 OA
BRANCH  31  33
HETATM   33  C19   D T 401      12.251 -17.979 -24.135  1.00 64.75     0.188 C 
BRANCH  33  34
HETATM   34  N20   D T 401      12.687 -17.759 -25.499  1.00 65.69    -0.211 NA
HETATM   35  C21   D T 401      13.860 -18.179 -25.894  1.00 66.79     0.343 C 
HETATM   36  N74   D T 401      14.537 -17.466 -26.778  1.00 71.41    -0.294 N 
HETATM   37  O76   D T 401      14.393 -19.114 -25.357  1.00 67.85    -0.245 OA
HETATM   38  C95   D T 401      14.488 -16.003 -26.878  1.00 70.78     0.131 C 
BRANCH  36  39
HETATM   39  C75   D T 401      15.462 -18.103 -27.700  1.00 74.33     0.152 C 
BRANCH  39  40
HETATM   40  C77   D T 401      14.632 -18.818 -28.716  1.00 76.44     0.088 A 
HETATM   41  C80   D T 401      14.487 -20.209 -28.780  1.00 78.25     0.053 A 
HETATM   42  S81   D T 401      13.434 -20.625 -30.086  1.00 82.00    -0.070 SA
HETATM   43  C82   D T 401      13.206 -18.945 -30.509  1.00 80.73     0.088 A 
HETATM   44  N83   D T 401      13.917 -18.140 -29.668  1.00 78.96    -0.245 NA
BRANCH  43  45
HETATM   45  C85   D T 401      12.313 -18.632 -31.656  1.00 81.61     0.047 C 
HETATM   46  C86   D T 401      10.919 -19.246 -31.469  1.00 81.16     0.007 C 
HETATM   47  C90   D T 401      12.991 -19.087 -32.959  1.00 82.31     0.007 C 
ENDBRANCH  43  45
ENDBRANCH  39  40
ENDBRANCH  36  39
ENDBRANCH  33  34
BRANCH  33  48
HETATM   48  C62   D T 401      12.398 -16.664 -23.344  1.00 64.68     0.032 C 
HETATM   49  C64   D T 401      13.719 -16.595 -22.598  1.00 64.29     0.003 C 
HETATM   50  C68   D T 401      12.208 -15.436 -24.232  1.00 63.77     0.003 C 
ENDBRANCH  33  48
ENDBRANCH  31  33
ENDBRANCH   1  30
TORSDOF 18
ENDMDL
MODEL 5
REMARK VINA RESULT:      -7.5      2.261      6.817
REMARK  18 active torsions:
REMARK  status: ('A' for Active; 'I' for Inactive)
REMARK    1  A    between atoms: C2_2  and  C6_6 
REMARK    2  A    between atoms: C6_6  and  O7_7 
REMARK    3  A    between atoms: O7_7  and  C10_8 
REMARK       I    between atoms: C10_8  and  N11_10 
REMARK    4  A    between atoms: N11_10  and  C12_11 
REMARK    5  A    between atoms: C12_11  and  C13_12 
REMARK    6  A    between atoms: C12_11  and  C26_15 
REMARK    7  A    between atoms: C13_12  and  C14_13 
REMARK    8  A    between atoms: C14_13  and  C15_14 
REMARK    9  A    between atoms: C15_14  and  C44_23 
REMARK   10  A    between atoms: C15_14  and  N58_30 
REMARK   11  A    between atoms: C26_15  and  C28_16 
REMARK   12  A    between atoms: C44_23  and  C45_24 
REMARK       I    between atoms: N58_30  and  C18_33 
REMARK   13  A    between atoms: N20_31  and  C19_32 
REMARK       I    between atoms: N20_31  and  C21_38 
REMARK   14  A    between atoms: C19_32  and  C18_33 
REMARK   15  A    between atoms: C19_32  and  C62_35 
REMARK       I    between atoms: C21_38  and  N74_39 
REMARK   16  A    between atoms: N74_39  and  C75_40 
REMARK   17  A    between atoms: C75_40  and  C77_42 
REMARK   18  A    between atoms: C82_45  and  C85_47 
ROOT
HETATM    1  C15   D T 401       8.620 -22.528 -23.855  1.00 59.81     0.113 C 
ENDROOT
BRANCH   1   2
HETATM    2  C14   D T 401       9.848 -21.682 -23.489  1.00 58.93     0.060 C 
BRANCH   2   3
HETATM    3  C13   D T 401       9.589 -20.216 -23.074  1.00 59.07     0.177 C 
HETATM    4  O41   D T 401       8.215 -19.927 -23.298  1.00 58.43    -0.221 OA
BRANCH   3   5
HETATM    5  C12   D T 401      10.416 -19.169 -23.827  1.00 59.52     0.143 C 
BRANCH   5   6
HETATM    6  N11   D T 401      10.200 -19.388 -25.248  1.00 58.37    -0.211 NA
HETATM    7  C10   D T 401      11.252 -19.493 -26.041  1.00 59.08     0.384 C 
HETATM    8  O24   D T 401      12.389 -19.312 -25.606  1.00 59.19    -0.236 OA
BRANCH   7   9
HETATM    9  O7    D T 401      11.067 -19.848 -27.442  1.00 58.33    -0.278 OA
BRANCH   9  10
HETATM   10  C6    D T 401      11.822 -20.942 -27.925  1.00 59.85     0.188 C 
BRANCH  10  11
HETATM   11  C2    D T 401      10.976 -21.659 -28.925  1.00 62.87     0.058 A 
HETATM   12  C1    D T 401       9.784 -21.354 -29.575  1.00 63.59     0.104 A 
HETATM   13  N5    D T 401       9.386 -22.390 -30.397  1.00 65.21    -0.235 NA
HETATM   14  C4    D T 401      10.192 -23.491 -30.431  1.00 64.03     0.134 A 
HETATM   15  S3    D T 401      11.524 -23.246 -29.362  1.00 63.44    -0.066 SA
ENDBRANCH  10  11
ENDBRANCH   9  10
ENDBRANCH   7   9
ENDBRANCH   5   6
BRANCH   5  16
HETATM   16  C26   D T 401      10.143 -17.696 -23.455  1.00 59.99     0.053 C 
BRANCH  16  17
HETATM   17  C28   D T 401      11.427 -16.949 -23.111  1.00 61.27    -0.020 A 
HETATM   18  C31   D T 401      12.297 -17.445 -22.122  1.00 62.70    -0.004 A 
HETATM   19  C32   D T 401      13.488 -16.770 -21.788  1.00 62.25    -0.000 A 
HETATM   20  C33   D T 401      13.842 -15.591 -22.446  1.00 60.89    -0.000 A 
HETATM   21  C34   D T 401      12.987 -15.086 -23.430  1.00 61.83    -0.000 A 
HETATM   22  C35   D T 401      11.783 -15.757 -23.760  1.00 61.69    -0.004 A 
ENDBRANCH  16  17
ENDBRANCH   5  16
ENDBRANCH   3   5
ENDBRANCH   2   3
ENDBRANCH   1   2
BRANCH   1  23
HETATM   23  C44   D T 401       8.946 -24.026 -23.716  1.00 61.03     0.051 C 
BRANCH  23  24
HETATM   24  C45   D T 401       8.717 -24.644 -22.340  1.00 62.14    -0.020 A 
HETATM   25  C48   D T 401       9.844 -25.184 -21.721  1.00 62.95    -0.004 A 
HETATM   26  C49   D T 401       9.791 -25.754 -20.440  1.00 63.23    -0.000 A 
HETATM   27  C50   D T 401       8.581 -25.779 -19.751  1.00 64.66    -0.000 A 
HETATM   28  C51   D T 401       7.437 -25.236 -20.357  1.00 64.50    -0.000 A 
HETATM   29  C52   D T 401       7.497 -24.665 -21.639  1.00 63.39    -0.004 A 
ENDBRANCH  23  24
ENDBRANCH   1  23
BRANCH   1  30
HETATM   30  N58   D T 401       8.232 -22.382 -25.231  1.00 60.63    -0.238 NA
HETATM   31  C18   D T 401       7.064 -22.675 -25.780  1.00 62.24     0.274 C 
HETATM   32  O61   D T 401       6.038 -23.079 -25.233  1.00 61.50    -0.268 OA
BRANCH  31  33
HETATM   33  C19   D T 401       7.140 -22.473 -27.254  1.00 64.75     0.188 C 
BRANCH  33  34
HETATM   34  N20   D T 401       6.617 -23.647 -27.923  1.00 65.69    -0.211 NA
HETATM   35  C21   D T 401       7.415 -24.625 -28.263  1.00 66.79     0.343 C 
HETATM   36  N74   D T 401       7.175 -25.297 -29.377  1.00 71.41    -0.294 N 
HETATM   37  O76   D T 401       8.439 -24.822 -27.664  1.00 67.85    -0.245 OA
HETATM   38  C95   D T 401       6.580 -24.715 -30.585  1.00 70.78     0.131 C 
BRANCH  36  39
HETATM   39  C75   D T 401       7.563 -26.691 -29.506  1.00 74.33     0.152 C 
BRANCH  39  40
HETATM   40  C77   D T 401       6.637 -27.477 -28.636  1.00 76.44     0.088 A 
HETATM   41  C80   D T 401       7.014 -28.602 -27.894  1.00 78.25     0.053 A 
HETATM   42  S81   D T 401       5.652 -29.203 -27.015  1.00 82.00    -0.070 SA
HETATM   43  C82   D T 401       4.619 -27.943 -27.646  1.00 80.73     0.088 A 
HETATM   44  N83   D T 401       5.321 -27.125 -28.483  1.00 78.96    -0.245 NA
BRANCH  43  45
HETATM   45  C85   D T 401       3.199 -27.923 -27.207  1.00 81.61     0.047 C 
HETATM   46  C86   D T 401       2.812 -26.563 -26.611  1.00 81.16     0.007 C 
HETATM   47  C90   D T 401       2.958 -29.088 -26.233  1.00 82.31     0.007 C 
ENDBRANCH  43  45
ENDBRANCH  39  40
ENDBRANCH  36  39
ENDBRANCH  33  34
BRANCH  33  48
HETATM   48  C62   D T 401       6.324 -21.241 -27.694  1.00 64.68     0.032 C 
HETATM   49  C64   D T 401       7.046 -19.941 -27.385  1.00 64.29     0.003 C 
HETATM   50  C68   D T 401       5.933 -21.309 -29.169  1.00 63.77     0.003 C 
ENDBRANCH  33  48
ENDBRANCH  31  33
ENDBRANCH   1  30
TORSDOF 18
ENDMDL
MODEL 6
REMARK VINA RESULT:      -7.4      2.230      3.890
REMARK  18 active torsions:
REMARK  status: ('A' for Active; 'I' for Inactive)
REMARK    1  A    between atoms: C2_2  and  C6_6 
REMARK    2  A    between atoms: C6_6  and  O7_7 
REMARK    3  A    between atoms: O7_7  and  C10_8 
REMARK       I    between atoms: C10_8  and  N11_10 
REMARK    4  A    between atoms: N11_10  and  C12_11 
REMARK    5  A    between atoms: C12_11  and  C13_12 
REMARK    6  A    between atoms: C12_11  and  C26_15 
REMARK    7  A    between atoms: C13_12  and  C14_13 
REMARK    8  A    between atoms: C14_13  and  C15_14 
REMARK    9  A    between atoms: C15_14  and  C44_23 
REMARK   10  A    between atoms: C15_14  and  N58_30 
REMARK   11  A    between atoms: C26_15  and  C28_16 
REMARK   12  A    between atoms: C44_23  and  C45_24 
REMARK       I    between atoms: N58_30  and  C18_33 
REMARK   13  A    between atoms: N20_31  and  C19_32 
REMARK       I    between atoms: N20_31  and  C21_38 
REMARK   14  A    between atoms: C19_32  and  C18_33 
REMARK   15  A    between atoms: C19_32  and  C62_35 
REMARK       I    between atoms: C21_38  and  N74_39 
REMARK   16  A    between atoms: N74_39  and  C75_40 
REMARK   17  A    between atoms: C75_40  and  C77_42 
REMARK   18  A    between atoms: C82_45  and  C85_47 
ROOT
HETATM    1  C15   D T 401      10.291 -20.513 -23.629  1.00 59.81     0.113 C 
ENDROOT
BRANCH   1   2
HETATM    2  C14   D T 401       9.093 -21.472 -23.640  1.00 58.93     0.060 C 
BRANCH   2   3
HETATM    3  C13   D T 401       9.387 -22.956 -23.956  1.00 59.07     0.177 C 
HETATM    4  O41   D T 401       8.937 -23.225 -25.279  1.00 58.43    -0.221 OA
BRANCH   3   5
HETATM    5  C12   D T 401       8.719 -23.968 -23.020  1.00 59.52     0.143 C 
BRANCH   5   6
HETATM    6  N11   D T 401       7.753 -24.716 -23.809  1.00 58.37    -0.211 NA
HETATM    7  C10   D T 401       6.482 -24.358 -23.760  1.00 59.08     0.384 C 
HETATM    8  O24   D T 401       6.104 -23.476 -22.990  1.00 59.19    -0.236 OA
BRANCH   7   9
HETATM    9  O7    D T 401       5.518 -25.000 -24.644  1.00 58.33    -0.278 OA
BRANCH   9  10
HETATM   10  C6    D T 401       5.784 -24.933 -26.031  1.00 59.85     0.188 C 
BRANCH  10  11
HETATM   11  C2    D T 401       4.952 -25.982 -26.694  1.00 62.87     0.058 A 
HETATM   12  C1    D T 401       3.597 -26.092 -26.992  1.00 63.59     0.104 A 
HETATM   13  N5    D T 401       3.318 -27.303 -27.594  1.00 65.21    -0.235 NA
HETATM   14  C4    D T 401       4.370 -28.151 -27.786  1.00 64.03     0.134 A 
HETATM   15  S3    D T 401       5.804 -27.418 -27.165  1.00 63.44    -0.066 SA
ENDBRANCH  10  11
ENDBRANCH   9  10
ENDBRANCH   7   9
ENDBRANCH   5   6
BRANCH   5  16
HETATM   16  C26   D T 401       9.669 -24.927 -22.271  1.00 59.99     0.053 C 
BRANCH  16  17
HETATM   17  C28   D T 401       9.230 -25.149 -20.827  1.00 61.27    -0.020 A 
HETATM   18  C31   D T 401       8.061 -24.539 -20.337  1.00 62.70    -0.004 A 
HETATM   19  C32   D T 401       7.639 -24.730 -19.005  1.00 62.25    -0.000 A 
HETATM   20  C33   D T 401       8.369 -25.547 -18.141  1.00 60.89    -0.000 A 
HETATM   21  C34   D T 401       9.533 -26.159 -18.615  1.00 61.83    -0.000 A 
HETATM   22  C35   D T 401       9.966 -25.959 -19.950  1.00 61.69    -0.004 A 
ENDBRANCH  16  17
ENDBRANCH   5  16
ENDBRANCH   3   5
ENDBRANCH   2   3
ENDBRANCH   1   2
BRANCH   1  23
HETATM   23  C44   D T 401       9.838 -19.101 -23.216  1.00 61.03     0.051 C 
BRANCH  23  24
HETATM   24  C45   D T 401      10.944 -18.080 -22.967  1.00 62.14    -0.020 A 
HETATM   25  C48   D T 401      10.829 -16.876 -23.661  1.00 62.95    -0.004 A 
HETATM   26  C49   D T 401      11.753 -15.832 -23.505  1.00 63.23    -0.000 A 
HETATM   27  C50   D T 401      12.819 -15.988 -22.623  1.00 64.66    -0.000 A 
HETATM   28  C51   D T 401      12.950 -17.192 -21.912  1.00 64.50    -0.000 A 
HETATM   29  C52   D T 401      12.020 -18.232 -22.072  1.00 63.39    -0.004 A 
ENDBRANCH  23  24
ENDBRANCH   1  23
BRANCH   1  30
HETATM   30  N58   D T 401      10.870 -20.325 -24.932  1.00 60.63    -0.238 NA
HETATM   31  C18   D T 401      10.242 -20.087 -26.071  1.00 62.24     0.274 C 
HETATM   32  O61   D T 401       9.038 -19.916 -26.264  1.00 61.50    -0.268 OA
BRANCH  31  33
HETATM   33  C19   D T 401      11.226 -20.075 -27.191  1.00 64.75     0.188 C 
BRANCH  33  34
HETATM   34  N20   D T 401      10.526 -20.288 -28.442  1.00 65.69    -0.211 NA
HETATM   35  C21   D T 401      11.008 -21.107 -29.339  1.00 66.79     0.343 C 
HETATM   36  N74   D T 401      10.846 -20.828 -30.621  1.00 71.41    -0.294 N 
HETATM   37  O76   D T 401      11.721 -22.021 -29.019  1.00 67.85    -0.245 OA
HETATM   38  C95   D T 401      10.804 -19.472 -31.178  1.00 70.78     0.131 C 
BRANCH  36  39
HETATM   39  C75   D T 401      10.764 -21.889 -31.611  1.00 74.33     0.152 C 
BRANCH  39  40
HETATM   40  C77   D T 401       9.467 -22.594 -31.379  1.00 76.44     0.088 A 
HETATM   41  C80   D T 401       9.354 -23.910 -30.916  1.00 78.25     0.053 A 
HETATM   42  S81   D T 401       7.685 -24.335 -30.770  1.00 82.00    -0.070 SA
HETATM   43  C82   D T 401       7.178 -22.754 -31.317  1.00 80.73     0.088 A 
HETATM   44  N83   D T 401       8.263 -21.972 -31.586  1.00 78.96    -0.245 NA
BRANCH  43  45
HETATM   45  C85   D T 401       5.718 -22.483 -31.402  1.00 81.61     0.047 C 
HETATM   46  C86   D T 401       5.331 -21.910 -32.772  1.00 81.16     0.007 C 
HETATM   47  C90   D T 401       5.309 -21.566 -30.238  1.00 82.31     0.007 C 
ENDBRANCH  43  45
ENDBRANCH  39  40
ENDBRANCH  36  39
ENDBRANCH  33  34
BRANCH  33  48
HETATM   48  C62   D T 401      11.980 -18.732 -27.261  1.00 64.68     0.032 C 
HETATM   49  C64   D T 401      13.391 -18.901 -27.796  1.00 64.29     0.003 C 
HETATM   50  C68   D T 401      11.213 -17.685 -28.066  1.00 63.77     0.003 C 
ENDBRANCH  33  48
ENDBRANCH  31  33
ENDBRANCH   1  30
TORSDOF 18
ENDMDL
MODEL 7
REMARK VINA RESULT:      -7.4      3.249      5.075
REMARK  18 active torsions:
REMARK  status: ('A' for Active; 'I' for Inactive)
REMARK    1  A    between atoms: C2_2  and  C6_6 
REMARK    2  A    between atoms: C6_6  and  O7_7 
REMARK    3  A    between atoms: O7_7  and  C10_8 
REMARK       I    between atoms: C10_8  and  N11_10 
REMARK    4  A    between atoms: N11_10  and  C12_11 
REMARK    5  A    between atoms: C12_11  and  C13_12 
REMARK    6  A    between atoms: C12_11  and  C26_15 
REMARK    7  A    between atoms: C13_12  and  C14_13 
REMARK    8  A    between atoms: C14_13  and  C15_14 
REMARK    9  A    between atoms: C15_14  and  C44_23 
REMARK   10  A    between atoms: C15_14  and  N58_30 
REMARK   11  A    between atoms: C26_15  and  C28_16 
REMARK   12  A    between atoms: C44_23  and  C45_24 
REMARK       I    between atoms: N58_30  and  C18_33 
REMARK   13  A    between atoms: N20_31  and  C19_32 
REMARK       I    between atoms: N20_31  and  C21_38 
REMARK   14  A    between atoms: C19_32  and  C18_33 
REMARK   15  A    between atoms: C19_32  and  C62_35 
REMARK       I    between atoms: C21_38  and  N74_39 
REMARK   16  A    between atoms: N74_39  and  C75_40 
REMARK   17  A    between atoms: C75_40  and  C77_42 
REMARK   18  A    between atoms: C82_45  and  C85_47 
ROOT
HETATM    1  C15   D T 401      10.357 -20.034 -24.234  1.00 59.81     0.113 C 
ENDROOT
BRANCH   1   2
HETATM    2  C14   D T 401       9.757 -21.232 -23.485  1.00 58.93     0.060 C 
BRANCH   2   3
HETATM    3  C13   D T 401       8.492 -21.878 -24.096  1.00 59.07     0.177 C 
HETATM    4  O41   D T 401       7.353 -21.228 -23.545  1.00 58.43    -0.221 OA
BRANCH   3   5
HETATM    5  C12   D T 401       8.340 -23.381 -23.845  1.00 59.52     0.143 C 
BRANCH   5   6
HETATM    6  N11   D T 401       8.078 -24.010 -25.130  1.00 58.37    -0.211 NA
HETATM    7  C10   D T 401       6.905 -24.584 -25.328  1.00 59.08     0.384 C 
HETATM    8  O24   D T 401       6.085 -24.673 -24.414  1.00 59.19    -0.236 OA
BRANCH   7   9
HETATM    9  O7    D T 401       6.567 -25.099 -26.648  1.00 58.33    -0.278 OA
BRANCH   9  10
HETATM   10  C6    D T 401       5.274 -24.797 -27.136  1.00 59.85     0.188 C 
BRANCH  10  11
HETATM   11  C2    D T 401       4.464 -26.049 -27.054  1.00 62.87     0.058 A 
HETATM   12  C1    D T 401       3.120 -26.314 -26.811  1.00 63.59     0.104 A 
HETATM   13  N5    D T 401       2.873 -27.672 -26.806  1.00 65.21    -0.235 NA
HETATM   14  C4    D T 401       3.942 -28.492 -27.028  1.00 64.03     0.134 A 
HETATM   15  S3    D T 401       5.356 -27.525 -27.240  1.00 63.44    -0.066 SA
ENDBRANCH  10  11
ENDBRANCH   9  10
ENDBRANCH   7   9
ENDBRANCH   5   6
BRANCH   5  16
HETATM   16  C26   D T 401       9.524 -24.071 -23.132  1.00 59.99     0.053 C 
BRANCH  16  17
HETATM   17  C28   D T 401       9.092 -24.738 -21.831  1.00 61.27    -0.020 A 
HETATM   18  C31   D T 401      10.010 -25.492 -21.077  1.00 62.70    -0.004 A 
HETATM   19  C32   D T 401       9.631 -26.118 -19.873  1.00 62.25    -0.000 A 
HETATM   20  C33   D T 401       8.328 -25.991 -19.389  1.00 60.89    -0.000 A 
HETATM   21  C34   D T 401       7.405 -25.245 -20.127  1.00 61.83    -0.000 A 
HETATM   22  C35   D T 401       7.780 -24.624 -21.344  1.00 61.69    -0.004 A 
ENDBRANCH  16  17
ENDBRANCH   5  16
ENDBRANCH   3   5
ENDBRANCH   2   3
ENDBRANCH   1   2
BRANCH   1  23
HETATM   23  C44   D T 401       9.938 -18.719 -23.553  1.00 61.03     0.051 C 
BRANCH  23  24
HETATM   24  C45   D T 401      11.069 -17.806 -23.090  1.00 62.14    -0.020 A 
HETATM   25  C48   D T 401      11.057 -16.511 -23.606  1.00 62.95    -0.004 A 
HETATM   26  C49   D T 401      12.014 -15.552 -23.243  1.00 63.23    -0.000 A 
HETATM   27  C50   D T 401      13.009 -15.890 -22.328  1.00 64.66    -0.000 A 
HETATM   28  C51   D T 401      13.035 -17.188 -21.794  1.00 64.50    -0.000 A 
HETATM   29  C52   D T 401      12.073 -18.143 -22.161  1.00 63.39    -0.004 A 
ENDBRANCH  23  24
ENDBRANCH   1  23
BRANCH   1  30
HETATM   30  N58   D T 401       9.858 -19.906 -25.576  1.00 60.63    -0.238 NA
HETATM   31  C18   D T 401      10.198 -20.617 -26.638  1.00 62.24     0.274 C 
HETATM   32  O61   D T 401      10.967 -21.576 -26.708  1.00 61.50    -0.268 OA
BRANCH  31  33
HETATM   33  C19   D T 401       9.516 -20.068 -27.845  1.00 64.75     0.188 C 
BRANCH  33  34
HETATM   34  N20   D T 401      10.408 -20.171 -28.983  1.00 65.69    -0.211 NA
HETATM   35  C21   D T 401      11.009 -19.109 -29.451  1.00 66.79     0.343 C 
HETATM   36  N74   D T 401      11.219 -19.007 -30.753  1.00 71.41    -0.294 N 
HETATM   37  O76   D T 401      11.234 -18.165 -28.741  1.00 67.85    -0.245 OA
HETATM   38  C95   D T 401      10.330 -19.553 -31.783  1.00 70.78     0.131 C 
BRANCH  36  39
HETATM   39  C75   D T 401      12.354 -18.260 -31.269  1.00 74.33     0.152 C 
BRANCH  39  40
HETATM   40  C77   D T 401      13.426 -19.257 -31.563  1.00 76.44     0.088 A 
HETATM   41  C80   D T 401      14.225 -19.870 -30.590  1.00 78.25     0.053 A 
HETATM   42  S81   D T 401      15.327 -20.965 -31.347  1.00 82.00    -0.070 SA
HETATM   43  C82   D T 401      14.698 -20.590 -32.933  1.00 80.73     0.088 A 
HETATM   44  N83   D T 401      13.695 -19.669 -32.843  1.00 78.96    -0.245 NA
BRANCH  43  45
HETATM   45  C85   D T 401      15.295 -21.289 -34.101  1.00 81.61     0.047 C 
HETATM   46  C86   D T 401      15.340 -22.808 -33.887  1.00 81.16     0.007 C 
HETATM   47  C90   D T 401      16.681 -20.689 -34.391  1.00 82.31     0.007 C 
ENDBRANCH  43  45
ENDBRANCH  39  40
ENDBRANCH  36  39
ENDBRANCH  33  34
BRANCH  33  48
HETATM   48  C62   D T 401       8.218 -20.839 -28.155  1.00 64.68     0.032 C 
HETATM   49  C64   D T 401       6.985 -20.086 -27.684  1.00 64.29     0.003 C 
HETATM   50  C68   D T 401       8.104 -21.200 -29.634  1.00 63.77     0.003 C 
ENDBRANCH  33  48
ENDBRANCH  31  33
ENDBRANCH   1  30
TORSDOF 18
ENDMDL
MODEL 8
REMARK VINA RESULT:      -7.4      2.710      8.413
REMARK  18 active torsions:
REMARK  status: ('A' for Active; 'I' for Inactive)
REMARK    1  A    between atoms: C2_2  and  C6_6 
REMARK    2  A    between atoms: C6_6  and  O7_7 
REMARK    3  A    between atoms: O7_7  and  C10_8 
REMARK       I    between atoms: C10_8  and  N11_10 
REMARK    4  A    between atoms: N11_10  and  C12_11 
REMARK    5  A    between atoms: C12_11  and  C13_12 
REMARK    6  A    between atoms: C12_11  and  C26_15 
REMARK    7  A    between atoms: C13_12  and  C14_13 
REMARK    8  A    between atoms: C14_13  and  C15_14 
REMARK    9  A    between atoms: C15_14  and  C44_23 
REMARK   10  A    between atoms: C15_14  and  N58_30 
REMARK   11  A    between atoms: C26_15  and  C28_16 
REMARK   12  A    between atoms: C44_23  and  C45_24 
REMARK       I    between atoms: N58_30  and  C18_33 
REMARK   13  A    between atoms: N20_31  and  C19_32 
REMARK       I    between atoms: N20_31  and  C21_38 
REMARK   14  A    between atoms: C19_32  and  C18_33 
REMARK   15  A    between atoms: C19_32  and  C62_35 
REMARK       I    between atoms: C21_38  and  N74_39 
REMARK   16  A    between atoms: N74_39  and  C75_40 
REMARK   17  A    between atoms: C75_40  and  C77_42 
REMARK   18  A    between atoms: C82_45  and  C85_47 
ROOT
HETATM    1  C15   D T 401       8.668 -23.224 -23.444  1.00 59.81     0.113 C 
ENDROOT
BRANCH   1   2
HETATM    2  C14   D T 401       9.809 -22.246 -23.758  1.00 58.93     0.060 C 
BRANCH   2   3
HETATM    3  C13   D T 401       9.555 -20.752 -23.452  1.00 59.07     0.177 C 
HETATM    4  O41   D T 401       8.185 -20.472 -23.715  1.00 58.43    -0.221 OA
BRANCH   3   5
HETATM    5  C12   D T 401      10.398 -19.767 -24.267  1.00 59.52     0.143 C 
BRANCH   5   6
HETATM    6  N11   D T 401      11.455 -19.277 -23.396  1.00 58.37    -0.211 NA
HETATM    7  C10   D T 401      11.405 -18.024 -22.979  1.00 59.08     0.384 C 
HETATM    8  O24   D T 401      10.538 -17.256 -23.396  1.00 59.19    -0.236 OA
BRANCH   7   9
HETATM    9  O7    D T 401      12.372 -17.551 -21.999  1.00 58.33    -0.278 OA
BRANCH   9  10
HETATM   10  C6    D T 401      12.700 -16.175 -22.042  1.00 59.85     0.188 C 
BRANCH  10  11
HETATM   11  C2    D T 401      13.715 -15.993 -23.122  1.00 62.87     0.058 A 
HETATM   12  C1    D T 401      14.973 -16.537 -23.364  1.00 63.59     0.104 A 
HETATM   13  N5    D T 401      15.533 -16.004 -24.508  1.00 65.21    -0.235 NA
HETATM   14  C4    D T 401      14.792 -15.073 -25.179  1.00 64.03     0.134 A 
HETATM   15  S3    D T 401      13.309 -14.820 -24.334  1.00 63.44    -0.066 SA
ENDBRANCH  10  11
ENDBRANCH   9  10
ENDBRANCH   7   9
ENDBRANCH   5   6
BRANCH   5  16
HETATM   16  C26   D T 401      10.988 -20.311 -25.586  1.00 59.99     0.053 C 
BRANCH  16  17
HETATM   17  C28   D T 401      11.686 -19.218 -26.390  1.00 61.27    -0.020 A 
HETATM   18  C31   D T 401      10.950 -18.394 -27.261  1.00 62.70    -0.004 A 
HETATM   19  C32   D T 401      11.577 -17.380 -28.013  1.00 62.25    -0.000 A 
HETATM   20  C33   D T 401      12.950 -17.160 -27.900  1.00 60.89    -0.000 A 
HETATM   21  C34   D T 401      13.694 -17.971 -27.038  1.00 61.83    -0.000 A 
HETATM   22  C35   D T 401      13.068 -18.999 -26.289  1.00 61.69    -0.004 A 
ENDBRANCH  16  17
ENDBRANCH   5  16
ENDBRANCH   3   5
ENDBRANCH   2   3
ENDBRANCH   1   2
BRANCH   1  23
HETATM   23  C44   D T 401       9.237 -24.617 -23.122  1.00 61.03     0.051 C 
BRANCH  23  24
HETATM   24  C45   D T 401       9.102 -25.086 -21.676  1.00 62.14    -0.020 A 
HETATM   25  C48   D T 401       7.871 -24.839 -21.069  1.00 62.95    -0.004 A 
HETATM   26  C49   D T 401       7.591 -25.244 -19.755  1.00 63.23    -0.000 A 
HETATM   27  C50   D T 401       8.564 -25.926 -19.027  1.00 64.66    -0.000 A 
HETATM   28  C51   D T 401       9.807 -26.188 -19.624  1.00 64.50    -0.000 A 
HETATM   29  C52   D T 401      10.080 -25.781 -20.940  1.00 63.39    -0.004 A 
ENDBRANCH  23  24
ENDBRANCH   1  23
BRANCH   1  30
HETATM   30  N58   D T 401       7.802 -23.452 -24.567  1.00 60.63    -0.238 NA
HETATM   31  C18   D T 401       6.525 -23.797 -24.551  1.00 62.24     0.274 C 
HETATM   32  O61   D T 401       5.781 -23.943 -23.580  1.00 61.50    -0.268 OA
BRANCH  31  33
HETATM   33  C19   D T 401       6.053 -24.038 -25.943  1.00 64.75     0.188 C 
BRANCH  33  34
HETATM   34  N20   D T 401       7.047 -23.543 -26.875  1.00 65.69    -0.211 NA
HETATM   35  C21   D T 401       6.790 -22.505 -27.627  1.00 66.79     0.343 C 
HETATM   36  N74   D T 401       7.286 -22.456 -28.852  1.00 71.41    -0.294 N 
HETATM   37  O76   D T 401       5.992 -21.674 -27.280  1.00 67.85    -0.245 OA
HETATM   38  C95   D T 401       7.509 -23.628 -29.705  1.00 70.78     0.131 C 
BRANCH  36  39
HETATM   39  C75   D T 401       7.591 -21.183 -29.483  1.00 74.33     0.152 C 
BRANCH  39  40
HETATM   40  C77   D T 401       9.042 -21.217 -29.839  1.00 76.44     0.088 A 
HETATM   41  C80   D T 401       9.549 -20.958 -31.117  1.00 78.25     0.053 A 
HETATM   42  S81   D T 401      11.273 -21.086 -31.097  1.00 82.00    -0.070 SA
HETATM   43  C82   D T 401      11.280 -21.471 -29.393  1.00 80.73     0.088 A 
HETATM   44  N83   D T 401      10.006 -21.489 -28.903  1.00 78.96    -0.245 NA
BRANCH  43  45
HETATM   45  C85   D T 401      12.594 -21.704 -28.738  1.00 81.61     0.047 C 
HETATM   46  C86   D T 401      13.721 -20.946 -29.451  1.00 81.16     0.007 C 
HETATM   47  C90   D T 401      12.853 -23.218 -28.658  1.00 82.31     0.007 C 
ENDBRANCH  43  45
ENDBRANCH  39  40
ENDBRANCH  36  39
ENDBRANCH  33  34
BRANCH  33  48
HETATM   48  C62   D T 401       5.824 -25.539 -26.207  1.00 64.68     0.032 C 
HETATM   49  C64   D T 401       4.487 -25.800 -26.878  1.00 64.29     0.003 C 
HETATM   50  C68   D T 401       6.966 -26.163 -27.006  1.00 63.77     0.003 C 
ENDBRANCH  33  48
ENDBRANCH  31  33
ENDBRANCH   1  30
TORSDOF 18
ENDMDL
MODEL 9
REMARK VINA RESULT:      -7.3      2.405      6.946
REMARK  18 active torsions:
REMARK  status: ('A' for Active; 'I' for Inactive)
REMARK    1  A    between atoms: C2_2  and  C6_6 
REMARK    2  A    between atoms: C6_6  and  O7_7 
REMARK    3  A    between atoms: O7_7  and  C10_8 
REMARK       I    between atoms: C10_8  and  N11_10 
REMARK    4  A    between atoms: N11_10  and  C12_11 
REMARK    5  A    between atoms: C12_11  and  C13_12 
REMARK    6  A    between atoms: C12_11  and  C26_15 
REMARK    7  A    between atoms: C13_12  and  C14_13 
REMARK    8  A    between atoms: C14_13  and  C15_14 
REMARK    9  A    between atoms: C15_14  and  C44_23 
REMARK   10  A    between atoms: C15_14  and  N58_30 
REMARK   11  A    between atoms: C26_15  and  C28_16 
REMARK   12  A    between atoms: C44_23  and  C45_24 
REMARK       I    between atoms: N58_30  and  C18_33 
REMARK   13  A    between atoms: N20_31  and  C19_32 
REMARK       I    between atoms: N20_31  and  C21_38 
REMARK   14  A    between atoms: C19_32  and  C18_33 
REMARK   15  A    between atoms: C19_32  and  C62_35 
REMARK       I    between atoms: C21_38  and  N74_39 
REMARK   16  A    between atoms: N74_39  and  C75_40 
REMARK   17  A    between atoms: C75_40  and  C77_42 
REMARK   18  A    between atoms: C82_45  and  C85_47 
ROOT
HETATM    1  C15   D T 401       8.625 -22.387 -23.966  1.00 59.81     0.113 C 
ENDROOT
BRANCH   1   2
HETATM    2  C14   D T 401       9.835 -21.558 -23.514  1.00 58.93     0.060 C 
BRANCH   2   3
HETATM    3  C13   D T 401       9.572 -20.084 -23.132  1.00 59.07     0.177 C 
HETATM    4  O41   D T 401       8.235 -19.763 -23.499  1.00 58.43    -0.221 OA
BRANCH   3   5
HETATM    5  C12   D T 401      10.498 -19.062 -23.799  1.00 59.52     0.143 C 
BRANCH   5   6
HETATM    6  N11   D T 401      10.423 -19.281 -25.235  1.00 58.37    -0.211 NA
HETATM    7  C10   D T 401      11.548 -19.367 -25.923  1.00 59.08     0.384 C 
HETATM    8  O24   D T 401      12.634 -19.167 -25.381  1.00 59.19    -0.236 OA
BRANCH   7   9
HETATM    9  O7    D T 401      11.504 -19.723 -27.335  1.00 58.33    -0.278 OA
BRANCH   9  10
HETATM   10  C6    D T 401      10.537 -19.062 -28.128  1.00 59.85     0.188 C 
BRANCH  10  11
HETATM   11  C2    D T 401      10.453 -19.793 -29.427  1.00 62.87     0.058 A 
HETATM   12  C1    D T 401       9.683 -20.858 -29.886  1.00 63.59     0.104 A 
HETATM   13  N5    D T 401      10.017 -21.189 -31.184  1.00 65.21    -0.235 NA
HETATM   14  C4    D T 401      11.003 -20.451 -31.773  1.00 64.03     0.134 A 
HETATM   15  S3    D T 401      11.576 -19.277 -30.645  1.00 63.44    -0.066 SA
ENDBRANCH  10  11
ENDBRANCH   9  10
ENDBRANCH   7   9
ENDBRANCH   5   6
BRANCH   5  16
HETATM   16  C26   D T 401      10.225 -17.580 -23.460  1.00 59.99     0.053 C 
BRANCH  16  17
HETATM   17  C28   D T 401      11.506 -16.835 -23.099  1.00 61.27    -0.020 A 
HETATM   18  C31   D T 401      12.312 -17.278 -22.034  1.00 62.70    -0.004 A 
HETATM   19  C32   D T 401      13.498 -16.603 -21.683  1.00 62.25    -0.000 A 
HETATM   20  C33   D T 401      13.911 -15.478 -22.399  1.00 60.89    -0.000 A 
HETATM   21  C34   D T 401      13.120 -15.027 -23.459  1.00 61.83    -0.000 A 
HETATM   22  C35   D T 401      11.921 -15.697 -23.807  1.00 61.69    -0.004 A 
ENDBRANCH  16  17
ENDBRANCH   5  16
ENDBRANCH   3   5
ENDBRANCH   2   3
ENDBRANCH   1   2
BRANCH   1  23
HETATM   23  C44   D T 401       8.931 -23.890 -23.837  1.00 61.03     0.051 C 
BRANCH  23  24
HETATM   24  C45   D T 401       8.662 -24.521 -22.475  1.00 62.14    -0.020 A 
HETATM   25  C48   D T 401       9.776 -25.038 -21.814  1.00 62.95    -0.004 A 
HETATM   26  C49   D T 401       9.686 -25.618 -20.539  1.00 63.23    -0.000 A 
HETATM   27  C50   D T 401       8.450 -25.675 -19.899  1.00 64.66    -0.000 A 
HETATM   28  C51   D T 401       7.319 -25.156 -20.547  1.00 64.50    -0.000 A 
HETATM   29  C52   D T 401       7.416 -24.575 -21.823  1.00 63.39    -0.004 A 
ENDBRANCH  23  24
ENDBRANCH   1  23
BRANCH   1  30
HETATM   30  N58   D T 401       8.316 -22.212 -25.359  1.00 60.63    -0.238 NA
HETATM   31  C18   D T 401       7.252 -22.644 -26.014  1.00 62.24     0.274 C 
HETATM   32  O61   D T 401       6.267 -23.238 -25.574  1.00 61.50    -0.268 OA
BRANCH  31  33
HETATM   33  C19   D T 401       7.398 -22.337 -27.465  1.00 64.75     0.188 C 
BRANCH  33  34
HETATM   34  N20   D T 401       7.287 -23.565 -28.226  1.00 65.69    -0.211 NA
HETATM   35  C21   D T 401       8.356 -24.149 -28.700  1.00 66.79     0.343 C 
HETATM   36  N74   D T 401       8.290 -24.771 -29.865  1.00 71.41    -0.294 N 
HETATM   37  O76   D T 401       9.426 -23.999 -28.170  1.00 67.85    -0.245 OA
HETATM   38  C95   D T 401       7.430 -24.358 -30.979  1.00 70.78     0.131 C 
BRANCH  36  39
HETATM   39  C75   D T 401       9.147 -25.909 -30.153  1.00 74.33     0.152 C 
BRANCH  39  40
HETATM   40  C77   D T 401      10.071 -25.483 -31.247  1.00 76.44     0.088 A 
HETATM   41  C80   D T 401      11.117 -24.567 -31.088  1.00 78.25     0.053 A 
HETATM   42  S81   D T 401      11.950 -24.365 -32.589  1.00 82.00    -0.070 SA
HETATM   43  C82   D T 401      10.896 -25.507 -33.390  1.00 80.73     0.088 A 
HETATM   44  N83   D T 401       9.969 -25.994 -32.515  1.00 78.96    -0.245 NA
BRANCH  43  45
HETATM   45  C85   D T 401      11.140 -25.787 -34.829  1.00 81.61     0.047 C 
HETATM   46  C86   D T 401      10.060 -25.155 -35.717  1.00 81.16     0.007 C 
HETATM   47  C90   D T 401      11.261 -27.306 -35.032  1.00 82.31     0.007 C 
ENDBRANCH  43  45
ENDBRANCH  39  40
ENDBRANCH  36  39
ENDBRANCH  33  34
BRANCH  33  48
HETATM   48  C62   D T 401       6.312 -21.352 -27.942  1.00 64.68     0.032 C 
HETATM   49  C64   D T 401       6.684 -19.909 -27.646  1.00 64.29     0.003 C 
HETATM   50  C68   D T 401       5.980 -21.537 -29.421  1.00 63.77     0.003 C 
ENDBRANCH  33  48
ENDBRANCH  31  33
ENDBRANCH   1  30
TORSDOF 18
ENDMDL
