MODEL 1
REMARK VINA RESULT:    -7.128      0.000      0.000
REMARK INTER + INTRA:         -19.489
REMARK INTER:                 -14.629
REMARK INTRA:                  -4.860
REMARK UNBOUND:                -4.860
REMARK  18 active torsions:
REMARK  status: ('A' for Active; 'I' for Inactive)
REMARK    1  A    between atoms: C2_2  and  C6_6 
REMARK    2  A    between atoms: C6_6  and  O7_7 
REMARK    3  A    between atoms: O7_7  and  C10_8 
REMARK       I    between atoms: C10_8  and  N11_10 
REMARK    4  A    between atoms: N11_10  and  C12_11 
REMARK    5  A    between atoms: C12_11  and  C13_12 
REMARK    6  A    between atoms: C12_11  and  C26_15 
REMARK    7  A    between atoms: C13_12  and  C14_13 
REMARK    8  A    between atoms: C14_13  and  C15_14 
REMARK    9  A    between atoms: C15_14  and  C44_23 
REMARK   10  A    between atoms: C15_14  and  N58_30 
REMARK   11  A    between atoms: C26_15  and  C28_16 
REMARK   12  A    between atoms: C44_23  and  C45_24 
REMARK       I    between atoms: N58_30  and  C18_33 
REMARK   13  A    between atoms: N20_31  and  C19_32 
REMARK       I    between atoms: N20_31  and  C21_38 
REMARK   14  A    between atoms: C19_32  and  C18_33 
REMARK   15  A    between atoms: C19_32  and  C62_35 
REMARK       I    between atoms: C21_38  and  N74_39 
REMARK   16  A    between atoms: N74_39  and  C75_40 
REMARK   17  A    between atoms: C75_40  and  C77_42 
REMARK   18  A    between atoms: C82_45  and  C85_47 
ROOT
HETATM    1  C15   D T 401      -5.540   7.800  -6.735  1.00 59.81     0.113 C 
ENDROOT
BRANCH   1   2
HETATM    2  C14   D T 401      -4.828   9.149  -6.569  1.00 58.93     0.060 C 
BRANCH   2   3
HETATM    3  C13   D T 401      -3.586   9.177  -5.648  1.00 59.07     0.177 C 
HETATM    4  O41   D T 401      -3.887   9.994  -4.524  1.00 58.43    -0.221 OA
BRANCH   3   5
HETATM    5  C12   D T 401      -2.308   9.721  -6.293  1.00 59.52     0.143 C 
BRANCH   5   6
HETATM    6  N11   D T 401      -2.072   8.951  -7.504  1.00 58.37    -0.211 NA
HETATM    7  C10   D T 401      -1.403   7.814  -7.413  1.00 59.08     0.384 C 
HETATM    8  O24   D T 401      -0.902   7.462  -6.344  1.00 59.19    -0.236 OA
BRANCH   7   9
HETATM    9  O7    D T 401      -1.273   6.957  -8.583  1.00 58.33    -0.278 OA
BRANCH   9  10
HETATM   10  C6    D T 401      -1.471   7.568  -9.843  1.00 59.85     0.188 C 
BRANCH  10  11
HETATM   11  C2    D T 401      -0.187   7.459 -10.598  1.00 62.87     0.058 A 
HETATM   12  C1    D T 401       1.140   7.743 -10.289  1.00 63.59     0.104 A 
HETATM   13  N5    D T 401       1.965   7.496 -11.369  1.00 65.21    -0.235 NA
HETATM   14  C4    D T 401       1.367   7.037 -12.507  1.00 64.03     0.134 A 
HETATM   15  S3    D T 401      -0.333   6.918 -12.240  1.00 63.44    -0.066 SA
ENDBRANCH  10  11
ENDBRANCH   9  10
ENDBRANCH   7   9
ENDBRANCH   5   6
BRANCH   5  16
HETATM   16  C26   D T 401      -2.297  11.235  -6.601  1.00 59.99     0.053 C 
BRANCH  16  17
HETATM   17  C28   D T 401      -1.013  11.902  -6.120  1.00 61.27    -0.020 A 
HETATM   18  C31   D T 401      -1.052  13.173  -5.518  1.00 62.70    -0.004 A 
HETATM   19  C32   D T 401       0.123  13.807  -5.069  1.00 62.25    -0.000 A 
HETATM   20  C33   D T 401       1.362  13.179  -5.200  1.00 60.89    -0.000 A 
HETATM   21  C34   D T 401       1.417  11.917  -5.797  1.00 61.83    -0.000 A 
HETATM   22  C35   D T 401       0.238  11.280  -6.261  1.00 61.69    -0.004 A 
ENDBRANCH  16  17
ENDBRANCH   5  16
ENDBRANCH   3   5
ENDBRANCH   2   3
ENDBRANCH   1   2
BRANCH   1  23
HETATM   23  C44   D T 401      -6.900   7.824  -6.016  1.00 61.03     0.051 C 
BRANCH  23  24
HETATM   24  C45   D T 401      -8.062   7.153  -6.741  1.00 62.14    -0.020 A 
HETATM   25  C48   D T 401      -8.874   7.995  -7.499  1.00 62.95    -0.004 A 
HETATM   26  C49   D T 401      -9.959   7.513  -8.248  1.00 63.23    -0.000 A 
HETATM   27  C50   D T 401     -10.237   6.149  -8.248  1.00 64.66    -0.000 A 
HETATM   28  C51   D T 401      -9.429   5.284  -7.494  1.00 64.50    -0.000 A 
HETATM   29  C52   D T 401      -8.343   5.773  -6.748  1.00 63.39    -0.004 A 
ENDBRANCH  23  24
ENDBRANCH   1  23
BRANCH   1  30
HETATM   30  N58   D T 401      -4.835   6.714  -6.110  1.00 60.63    -0.238 NA
HETATM   31  C18   D T 401      -4.334   5.634  -6.686  1.00 62.24     0.274 C 
HETATM   32  O61   D T 401      -4.308   5.343  -7.882  1.00 61.50    -0.268 OA
BRANCH  31  33
HETATM   33  C19   D T 401      -3.787   4.720  -5.644  1.00 64.75     0.188 C 
BRANCH  33  34
HETATM   34  N20   D T 401      -3.082   5.502  -4.648  1.00 65.69    -0.211 NA
HETATM   35  C21   D T 401      -2.072   4.987  -3.997  1.00 66.79     0.343 C 
HETATM   36  N74   D T 401      -1.878   5.324  -2.733  1.00 71.41    -0.294 N 
HETATM   37  O76   D T 401      -1.411   4.104  -4.481  1.00 67.85    -0.245 OA
HETATM   38  C95   D T 401      -2.952   5.643  -1.786  1.00 70.78     0.131 C 
BRANCH  36  39
HETATM   39  C75   D T 401      -0.543   5.334  -2.158  1.00 74.33     0.152 C 
BRANCH  39  40
HETATM   40  C77   D T 401       0.153   6.535  -2.712  1.00 76.44     0.088 A 
HETATM   41  C80   D T 401       1.152   6.489  -3.690  1.00 78.25     0.053 A 
HETATM   42  S81   D T 401       1.680   8.093  -4.060  1.00 82.00    -0.070 SA
HETATM   43  C82   D T 401       0.555   8.785  -2.915  1.00 80.73     0.088 A 
HETATM   44  N83   D T 401      -0.168   7.804  -2.303  1.00 78.96    -0.245 NA
BRANCH  43  45
HETATM   45  C85   D T 401       0.529  10.265  -2.774  1.00 81.61     0.047 C 
HETATM   46  C86   D T 401       1.439  10.739  -1.633  1.00 81.16     0.007 C 
HETATM   47  C90   D T 401      -0.927  10.728  -2.604  1.00 82.31     0.007 C 
ENDBRANCH  43  45
ENDBRANCH  39  40
ENDBRANCH  36  39
ENDBRANCH  33  34
BRANCH  33  48
HETATM   48  C62   D T 401      -4.911   3.923  -4.951  1.00 64.68     0.032 C 
HETATM   49  C64   D T 401      -5.766   4.807  -4.059  1.00 64.29     0.003 C 
HETATM   50  C68   D T 401      -5.775   3.160  -5.952  1.00 63.77     0.003 C 
ENDBRANCH  33  48
ENDBRANCH  31  33
ENDBRANCH   1  30
TORSDOF 18
ENDMDL
MODEL 2
REMARK VINA RESULT:    -7.015      3.309      8.213
REMARK INTER + INTRA:         -19.257
REMARK INTER:                 -13.648
REMARK INTRA:                  -5.609
REMARK UNBOUND:                -4.860
REMARK  18 active torsions:
REMARK  status: ('A' for Active; 'I' for Inactive)
REMARK    1  A    between atoms: C2_2  and  C6_6 
REMARK    2  A    between atoms: C6_6  and  O7_7 
REMARK    3  A    between atoms: O7_7  and  C10_8 
REMARK       I    between atoms: C10_8  and  N11_10 
REMARK    4  A    between atoms: N11_10  and  C12_11 
REMARK    5  A    between atoms: C12_11  and  C13_12 
REMARK    6  A    between atoms: C12_11  and  C26_15 
REMARK    7  A    between atoms: C13_12  and  C14_13 
REMARK    8  A    between atoms: C14_13  and  C15_14 
REMARK    9  A    between atoms: C15_14  and  C44_23 
REMARK   10  A    between atoms: C15_14  and  N58_30 
REMARK   11  A    between atoms: C26_15  and  C28_16 
REMARK   12  A    between atoms: C44_23  and  C45_24 
REMARK       I    between atoms: N58_30  and  C18_33 
REMARK   13  A    between atoms: N20_31  and  C19_32 
REMARK       I    between atoms: N20_31  and  C21_38 
REMARK   14  A    between atoms: C19_32  and  C18_33 
REMARK   15  A    between atoms: C19_32  and  C62_35 
REMARK       I    between atoms: C21_38  and  N74_39 
REMARK   16  A    between atoms: N74_39  and  C75_40 
REMARK   17  A    between atoms: C75_40  and  C77_42 
REMARK   18  A    between atoms: C82_45  and  C85_47 
ROOT
HETATM    1  C15   D T 401      -0.088   9.129  -6.447  1.00 59.81     0.113 C 
ENDROOT
BRANCH   1   2
HETATM    2  C14   D T 401      -0.106   8.069  -5.338  1.00 58.93     0.060 C 
BRANCH   2   3
HETATM    3  C13   D T 401       0.934   8.225  -4.203  1.00 59.07     0.177 C 
HETATM    4  O41   D T 401       1.313   6.925  -3.769  1.00 58.43    -0.221 OA
BRANCH   3   5
HETATM    5  C12   D T 401       0.450   9.005  -2.978  1.00 59.52     0.143 C 
BRANCH   5   6
HETATM    6  N11   D T 401      -0.096   8.040  -2.038  1.00 58.37    -0.211 NA
HETATM    7  C10   D T 401      -1.410   7.943  -1.919  1.00 59.08     0.384 C 
HETATM    8  O24   D T 401      -2.155   8.720  -2.515  1.00 59.19    -0.236 OA
BRANCH   7   9
HETATM    9  O7    D T 401      -1.983   6.892  -1.089  1.00 58.33    -0.278 OA
BRANCH   9  10
HETATM   10  C6    D T 401      -1.664   5.560  -1.440  1.00 59.85     0.188 C 
BRANCH  10  11
HETATM   11  C2    D T 401      -2.498   5.199  -2.625  1.00 62.87     0.058 A 
HETATM   12  C1    D T 401      -3.849   5.336  -2.930  1.00 63.59     0.104 A 
HETATM   13  N5    D T 401      -4.134   4.798  -4.170  1.00 65.21    -0.235 NA
HETATM   14  C4    D T 401      -3.091   4.246  -4.856  1.00 64.03     0.134 A 
HETATM   15  S3    D T 401      -1.659   4.379  -3.903  1.00 63.44    -0.066 SA
ENDBRANCH  10  11
ENDBRANCH   9  10
ENDBRANCH   7   9
ENDBRANCH   5   6
BRANCH   5  16
HETATM   16  C26   D T 401       1.502   9.901  -2.288  1.00 59.99     0.053 C 
BRANCH  16  17
HETATM   17  C28   D T 401       0.984  11.319  -2.067  1.00 61.27    -0.020 A 
HETATM   18  C31   D T 401      -0.399  11.569  -1.992  1.00 62.70    -0.004 A 
HETATM   19  C32   D T 401      -0.897  12.872  -1.791  1.00 62.25    -0.000 A 
HETATM   20  C33   D T 401      -0.023  13.950  -1.647  1.00 60.89    -0.000 A 
HETATM   21  C34   D T 401       1.353  13.716  -1.720  1.00 61.83    -0.000 A 
HETATM   22  C35   D T 401       1.857  12.409  -1.934  1.00 61.69    -0.004 A 
ENDBRANCH  16  17
ENDBRANCH   5  16
ENDBRANCH   3   5
ENDBRANCH   2   3
ENDBRANCH   1   2
BRANCH   1  23
HETATM   23  C44   D T 401      -1.050  10.279  -6.099  1.00 61.03     0.051 C 
BRANCH  23  24
HETATM   24  C45   D T 401      -0.409  11.629  -5.791  1.00 62.14    -0.020 A 
HETATM   25  C48   D T 401       0.984  11.667  -5.842  1.00 62.95    -0.004 A 
HETATM   26  C49   D T 401       1.709  12.848  -5.616  1.00 63.23    -0.000 A 
HETATM   27  C50   D T 401       1.023  14.028  -5.341  1.00 64.66    -0.000 A 
HETATM   28  C51   D T 401      -0.379  14.011  -5.290  1.00 64.50    -0.000 A 
HETATM   29  C52   D T 401      -1.099  12.826  -5.519  1.00 63.39    -0.004 A 
ENDBRANCH  23  24
ENDBRANCH   1  23
BRANCH   1  30
HETATM   30  N58   D T 401      -0.579   8.633  -7.704  1.00 60.63    -0.238 NA
HETATM   31  C18   D T 401       0.016   7.789  -8.532  1.00 62.24     0.274 C 
HETATM   32  O61   D T 401       1.087   7.201  -8.389  1.00 61.50    -0.268 OA
BRANCH  31  33
HETATM   33  C19   D T 401      -0.804   7.640  -9.767  1.00 64.75     0.188 C 
BRANCH  33  34
HETATM   34  N20   D T 401      -1.366   8.927 -10.123  1.00 65.69    -0.211 NA
HETATM   35  C21   D T 401      -2.624   9.028 -10.464  1.00 66.79     0.343 C 
HETATM   36  N74   D T 401      -2.975   9.908 -11.387  1.00 71.41    -0.294 N 
HETATM   37  O76   D T 401      -3.437   8.235 -10.065  1.00 67.85    -0.245 OA
HETATM   38  C95   D T 401      -2.134  10.300 -12.523  1.00 70.78     0.131 C 
BRANCH  36  39
HETATM   39  C75   D T 401      -4.295  10.517 -11.375  1.00 74.33     0.152 C 
BRANCH  39  40
HETATM   40  C77   D T 401      -4.279  11.555 -10.300  1.00 76.44     0.088 A 
HETATM   41  C80   D T 401      -4.937  11.431  -9.071  1.00 78.25     0.053 A 
HETATM   42  S81   D T 401      -4.653  12.841  -8.114  1.00 82.00    -0.070 SA
HETATM   43  C82   D T 401      -3.661  13.556  -9.363  1.00 80.73     0.088 A 
HETATM   44  N83   D T 401      -3.578  12.724 -10.440  1.00 78.96    -0.245 NA
BRANCH  43  45
HETATM   45  C85   D T 401      -3.066  14.893  -9.098  1.00 81.61     0.047 C 
HETATM   46  C86   D T 401      -3.077  15.228  -7.601  1.00 81.16     0.007 C 
HETATM   47  C90   D T 401      -3.798  15.945  -9.947  1.00 82.31     0.007 C 
ENDBRANCH  43  45
ENDBRANCH  39  40
ENDBRANCH  36  39
ENDBRANCH  33  34
BRANCH  33  48
HETATM   48  C62   D T 401       0.046   7.122 -10.945  1.00 64.68     0.032 C 
HETATM   49  C64   D T 401      -0.806   6.442 -12.003  1.00 64.29     0.003 C 
HETATM   50  C68   D T 401       0.904   8.224 -11.562  1.00 63.77     0.003 C 
ENDBRANCH  33  48
ENDBRANCH  31  33
ENDBRANCH   1  30
TORSDOF 18
ENDMDL
MODEL 3
REMARK VINA RESULT:    -6.814      2.514      8.348
REMARK INTER + INTRA:         -18.844
REMARK INTER:                 -13.960
REMARK INTRA:                  -4.883
REMARK UNBOUND:                -4.860
REMARK  18 active torsions:
REMARK  status: ('A' for Active; 'I' for Inactive)
REMARK    1  A    between atoms: C2_2  and  C6_6 
REMARK    2  A    between atoms: C6_6  and  O7_7 
REMARK    3  A    between atoms: O7_7  and  C10_8 
REMARK       I    between atoms: C10_8  and  N11_10 
REMARK    4  A    between atoms: N11_10  and  C12_11 
REMARK    5  A    between atoms: C12_11  and  C13_12 
REMARK    6  A    between atoms: C12_11  and  C26_15 
REMARK    7  A    between atoms: C13_12  and  C14_13 
REMARK    8  A    between atoms: C14_13  and  C15_14 
REMARK    9  A    between atoms: C15_14  and  C44_23 
REMARK   10  A    between atoms: C15_14  and  N58_30 
REMARK   11  A    between atoms: C26_15  and  C28_16 
REMARK   12  A    between atoms: C44_23  and  C45_24 
REMARK       I    between atoms: N58_30  and  C18_33 
REMARK   13  A    between atoms: N20_31  and  C19_32 
REMARK       I    between atoms: N20_31  and  C21_38 
REMARK   14  A    between atoms: C19_32  and  C18_33 
REMARK   15  A    between atoms: C19_32  and  C62_35 
REMARK       I    between atoms: C21_38  and  N74_39 
REMARK   16  A    between atoms: N74_39  and  C75_40 
REMARK   17  A    between atoms: C75_40  and  C77_42 
REMARK   18  A    between atoms: C82_45  and  C85_47 
ROOT
HETATM    1  C15   D T 401      -0.598   9.151  -3.051  1.00 59.81     0.113 C 
ENDROOT
BRANCH   1   2
HETATM    2  C14   D T 401      -1.726   8.115  -3.150  1.00 58.93     0.060 C 
BRANCH   2   3
HETATM    3  C13   D T 401      -1.306   6.630  -3.252  1.00 59.07     0.177 C 
HETATM    4  O41   D T 401       0.114   6.575  -3.318  1.00 58.43    -0.221 OA
BRANCH   3   5
HETATM    5  C12   D T 401      -1.861   5.877  -4.464  1.00 59.52     0.143 C 
BRANCH   5   6
HETATM    6  N11   D T 401      -0.815   5.852  -5.474  1.00 58.37    -0.211 NA
HETATM    7  C10   D T 401      -1.070   6.369  -6.665  1.00 59.08     0.384 C 
HETATM    8  O24   D T 401      -2.199   6.772  -6.948  1.00 59.19    -0.236 OA
BRANCH   7   9
HETATM    9  O7    D T 401      -0.000   6.482  -7.646  1.00 58.33    -0.278 OA
BRANCH   9  10
HETATM   10  C6    D T 401      -0.198   7.406  -8.699  1.00 59.85     0.188 C 
BRANCH  10  11
HETATM   11  C2    D T 401       1.106   7.555  -9.411  1.00 62.87     0.058 A 
HETATM   12  C1    D T 401       1.469   7.624 -10.753  1.00 63.59     0.104 A 
HETATM   13  N5    D T 401       2.840   7.729 -10.891  1.00 65.21    -0.235 NA
HETATM   14  C4    D T 401       3.575   7.746  -9.741  1.00 64.03     0.134 A 
HETATM   15  S3    D T 401       2.509   7.602  -8.392  1.00 63.44    -0.066 SA
ENDBRANCH  10  11
ENDBRANCH   9  10
ENDBRANCH   7   9
ENDBRANCH   5   6
BRANCH   5  16
HETATM   16  C26   D T 401      -2.388   4.450  -4.193  1.00 59.99     0.053 C 
BRANCH  16  17
HETATM   17  C28   D T 401      -3.838   4.287  -4.634  1.00 61.27    -0.020 A 
HETATM   18  C31   D T 401      -4.151   4.066  -5.988  1.00 62.70    -0.004 A 
HETATM   19  C32   D T 401      -5.486   3.914  -6.415  1.00 62.25    -0.000 A 
HETATM   20  C33   D T 401      -6.534   3.966  -5.496  1.00 60.89    -0.000 A 
HETATM   21  C34   D T 401      -6.238   4.185  -4.148  1.00 61.83    -0.000 A 
HETATM   22  C35   D T 401      -4.898   4.350  -3.716  1.00 61.69    -0.004 A 
ENDBRANCH  16  17
ENDBRANCH   5  16
ENDBRANCH   3   5
ENDBRANCH   2   3
ENDBRANCH   1   2
BRANCH   1  23
HETATM   23  C44   D T 401      -0.751   9.981  -1.764  1.00 61.03     0.051 C 
BRANCH  23  24
HETATM   24  C45   D T 401      -0.004  11.311  -1.723  1.00 62.14    -0.020 A 
HETATM   25  C48   D T 401       1.383  11.234  -1.837  1.00 62.95    -0.004 A 
HETATM   26  C49   D T 401       2.198  12.377  -1.850  1.00 63.23    -0.000 A 
HETATM   27  C50   D T 401       1.609  13.636  -1.758  1.00 64.66    -0.000 A 
HETATM   28  C51   D T 401       0.214  13.734  -1.646  1.00 64.50    -0.000 A 
HETATM   29  C52   D T 401      -0.596  12.586  -1.635  1.00 63.39    -0.004 A 
ENDBRANCH  23  24
ENDBRANCH   1  23
BRANCH   1  30
HETATM   30  N58   D T 401      -0.641  10.129  -4.103  1.00 60.63    -0.238 NA
HETATM   31  C18   D T 401       0.057  10.143  -5.227  1.00 62.24     0.274 C 
HETATM   32  O61   D T 401       0.852   9.303  -5.648  1.00 61.50    -0.268 OA
BRANCH  31  33
HETATM   33  C19   D T 401      -0.223  11.402  -5.973  1.00 64.75     0.188 C 
BRANCH  33  34
HETATM   34  N20   D T 401      -1.657  11.577  -6.089  1.00 65.69    -0.211 NA
HETATM   35  C21   D T 401      -2.293  11.139  -7.144  1.00 66.79     0.343 C 
HETATM   36  N74   D T 401      -3.330  11.821  -7.602  1.00 71.41    -0.294 N 
HETATM   37  O76   D T 401      -1.861  10.218  -7.787  1.00 67.85    -0.245 OA
HETATM   38  C95   D T 401      -3.462  13.280  -7.529  1.00 70.78     0.131 C 
BRANCH  36  39
HETATM   39  C75   D T 401      -4.417  11.151  -8.297  1.00 74.33     0.152 C 
BRANCH  39  40
HETATM   40  C77   D T 401      -5.494  10.920  -7.287  1.00 76.44     0.088 A 
HETATM   41  C80   D T 401      -6.768  11.495  -7.345  1.00 78.25     0.053 A 
HETATM   42  S81   D T 401      -7.711  10.960  -5.999  1.00 82.00    -0.070 SA
HETATM   43  C82   D T 401      -6.394   9.979  -5.398  1.00 80.73     0.088 A 
HETATM   44  N83   D T 401      -5.308  10.085  -6.216  1.00 78.96    -0.245 NA
BRANCH  43  45
HETATM   45  C85   D T 401      -6.622   9.197  -4.154  1.00 81.61     0.047 C 
HETATM   46  C86   D T 401      -6.793   7.702  -4.451  1.00 81.16     0.007 C 
HETATM   47  C90   D T 401      -7.821   9.793  -3.398  1.00 82.31     0.007 C 
ENDBRANCH  43  45
ENDBRANCH  39  40
ENDBRANCH  36  39
ENDBRANCH  33  34
BRANCH  33  48
HETATM   48  C62   D T 401       0.374  12.626  -5.251  1.00 64.68     0.032 C 
HETATM   49  C64   D T 401       1.738  13.002  -5.805  1.00 64.29     0.003 C 
HETATM   50  C68   D T 401      -0.572  13.824  -5.275  1.00 63.77     0.003 C 
ENDBRANCH  33  48
ENDBRANCH  31  33
ENDBRANCH   1  30
TORSDOF 18
ENDMDL
MODEL 4
REMARK VINA RESULT:    -6.803      2.332      8.261
REMARK INTER + INTRA:         -18.821
REMARK INTER:                 -13.463
REMARK INTRA:                  -5.358
REMARK UNBOUND:                -4.860
REMARK  18 active torsions:
REMARK  status: ('A' for Active; 'I' for Inactive)
REMARK    1  A    between atoms: C2_2  and  C6_6 
REMARK    2  A    between atoms: C6_6  and  O7_7 
REMARK    3  A    between atoms: O7_7  and  C10_8 
REMARK       I    between atoms: C10_8  and  N11_10 
REMARK    4  A    between atoms: N11_10  and  C12_11 
REMARK    5  A    between atoms: C12_11  and  C13_12 
REMARK    6  A    between atoms: C12_11  and  C26_15 
REMARK    7  A    between atoms: C13_12  and  C14_13 
REMARK    8  A    between atoms: C14_13  and  C15_14 
REMARK    9  A    between atoms: C15_14  and  C44_23 
REMARK   10  A    between atoms: C15_14  and  N58_30 
REMARK   11  A    between atoms: C26_15  and  C28_16 
REMARK   12  A    between atoms: C44_23  and  C45_24 
REMARK       I    between atoms: N58_30  and  C18_33 
REMARK   13  A    between atoms: N20_31  and  C19_32 
REMARK       I    between atoms: N20_31  and  C21_38 
REMARK   14  A    between atoms: C19_32  and  C18_33 
REMARK   15  A    between atoms: C19_32  and  C62_35 
REMARK       I    between atoms: C21_38  and  N74_39 
REMARK   16  A    between atoms: N74_39  and  C75_40 
REMARK   17  A    between atoms: C75_40  and  C77_42 
REMARK   18  A    between atoms: C82_45  and  C85_47 
ROOT
HETATM    1  C15   D T 401       0.858   9.301  -3.535  1.00 59.81     0.113 C 
ENDROOT
BRANCH   1   2
HETATM    2  C14   D T 401      -0.162   8.222  -3.146  1.00 58.93     0.060 C 
BRANCH   2   3
HETATM    3  C13   D T 401      -1.444   8.128  -4.005  1.00 59.07     0.177 C 
HETATM    4  O41   D T 401      -2.559   8.418  -3.170  1.00 58.43    -0.221 OA
BRANCH   3   5
HETATM    5  C12   D T 401      -1.693   6.766  -4.658  1.00 59.52     0.143 C 
BRANCH   5   6
HETATM    6  N11   D T 401      -0.598   6.524  -5.584  1.00 58.37    -0.211 NA
HETATM    7  C10   D T 401      -0.881   6.279  -6.853  1.00 59.08     0.384 C 
HETATM    8  O24   D T 401      -2.048   6.158  -7.225  1.00 59.19    -0.236 OA
BRANCH   7   9
HETATM    9  O7    D T 401       0.198   6.170  -7.825  1.00 58.33    -0.278 OA
BRANCH   9  10
HETATM   10  C6    D T 401       0.872   7.367  -8.163  1.00 59.85     0.188 C 
BRANCH  10  11
HETATM   11  C2    D T 401       0.379   7.791  -9.507  1.00 62.87     0.058 A 
HETATM   12  C1    D T 401       0.741   7.469 -10.812  1.00 63.59     0.104 A 
HETATM   13  N5    D T 401      -0.016   8.176 -11.726  1.00 65.21    -0.235 NA
HETATM   14  C4    D T 401      -0.949   9.034 -11.219  1.00 64.03     0.134 A 
HETATM   15  S3    D T 401      -0.880   8.984  -9.496  1.00 63.44    -0.066 SA
ENDBRANCH  10  11
ENDBRANCH   9  10
ENDBRANCH   7   9
ENDBRANCH   5   6
BRANCH   5  16
HETATM   16  C26   D T 401      -1.862   5.572  -3.693  1.00 59.99     0.053 C 
BRANCH  16  17
HETATM   17  C28   D T 401      -3.176   4.833  -3.928  1.00 61.27    -0.020 A 
HETATM   18  C31   D T 401      -4.322   5.160  -3.179  1.00 62.70    -0.004 A 
HETATM   19  C32   D T 401      -5.544   4.488  -3.380  1.00 62.25    -0.000 A 
HETATM   20  C33   D T 401      -5.650   3.485  -4.343  1.00 60.89    -0.000 A 
HETATM   21  C34   D T 401      -4.521   3.149  -5.095  1.00 61.83    -0.000 A 
HETATM   22  C35   D T 401      -3.287   3.815  -4.887  1.00 61.69    -0.004 A 
ENDBRANCH  16  17
ENDBRANCH   5  16
ENDBRANCH   3   5
ENDBRANCH   2   3
ENDBRANCH   1   2
BRANCH   1  23
HETATM   23  C44   D T 401       1.423   9.978  -2.274  1.00 61.03     0.051 C 
BRANCH  23  24
HETATM   24  C45   D T 401       0.889  11.371  -1.957  1.00 62.14    -0.020 A 
HETATM   25  C48   D T 401       1.841  12.389  -1.899  1.00 62.95    -0.004 A 
HETATM   26  C49   D T 401       1.492  13.726  -1.652  1.00 63.23    -0.000 A 
HETATM   27  C50   D T 401       0.153  14.060  -1.466  1.00 64.66    -0.000 A 
HETATM   28  C51   D T 401      -0.820  13.050  -1.524  1.00 64.50    -0.000 A 
HETATM   29  C52   D T 401      -0.464  11.714  -1.774  1.00 63.39    -0.004 A 
ENDBRANCH  23  24
ENDBRANCH   1  23
BRANCH   1  30
HETATM   30  N58   D T 401       0.272  10.383  -4.279  1.00 60.63    -0.238 NA
HETATM   31  C18   D T 401       0.531  10.745  -5.525  1.00 62.24     0.274 C 
HETATM   32  O61   D T 401       1.282  10.209  -6.340  1.00 61.50    -0.268 OA
BRANCH  31  33
HETATM   33  C19   D T 401      -0.223  11.988  -5.850  1.00 64.75     0.188 C 
BRANCH  33  34
HETATM   34  N20   D T 401      -1.607  11.823  -5.452  1.00 65.69    -0.211 NA
HETATM   35  C21   D T 401      -2.559  11.845  -6.348  1.00 66.79     0.343 C 
HETATM   36  N74   D T 401      -3.730  12.373  -6.033  1.00 71.41    -0.294 N 
HETATM   37  O76   D T 401      -2.340  11.534  -7.490  1.00 67.85    -0.245 OA
HETATM   38  C95   D T 401      -3.913  13.495  -5.105  1.00 70.78     0.131 C 
BRANCH  36  39
HETATM   39  C75   D T 401      -4.955  11.904  -6.660  1.00 74.33     0.152 C 
BRANCH  39  40
HETATM   40  C77   D T 401      -5.285  10.591  -6.028  1.00 76.44     0.088 A 
HETATM   41  C80   D T 401      -5.644  10.428  -4.686  1.00 78.25     0.053 A 
HETATM   42  S81   D T 401      -5.959   8.759  -4.365  1.00 82.00    -0.070 SA
HETATM   43  C82   D T 401      -5.617   8.320  -6.022  1.00 80.73     0.088 A 
HETATM   44  N83   D T 401      -5.283   9.425  -6.749  1.00 78.96    -0.245 NA
BRANCH  43  45
HETATM   45  C85   D T 401      -5.738   6.887  -6.402  1.00 81.61     0.047 C 
HETATM   46  C86   D T 401      -5.343   6.657  -7.866  1.00 81.16     0.007 C 
HETATM   47  C90   D T 401      -7.164   6.404  -6.088  1.00 82.31     0.007 C 
ENDBRANCH  43  45
ENDBRANCH  39  40
ENDBRANCH  36  39
ENDBRANCH  33  34
BRANCH  33  48
HETATM   48  C62   D T 401       0.366  13.209  -5.117  1.00 64.68     0.032 C 
HETATM   49  C64   D T 401       1.794  13.497  -5.551  1.00 64.29     0.003 C 
HETATM   50  C68   D T 401      -0.511  14.450  -5.271  1.00 63.77     0.003 C 
ENDBRANCH  33  48
ENDBRANCH  31  33
ENDBRANCH   1  30
TORSDOF 18
ENDMDL
MODEL 5
REMARK VINA RESULT:    -6.748      4.309      9.032
REMARK INTER + INTRA:         -18.709
REMARK INTER:                 -14.976
REMARK INTRA:                  -3.733
REMARK UNBOUND:                -4.860
REMARK  18 active torsions:
REMARK  status: ('A' for Active; 'I' for Inactive)
REMARK    1  A    between atoms: C2_2  and  C6_6 
REMARK    2  A    between atoms: C6_6  and  O7_7 
REMARK    3  A    between atoms: O7_7  and  C10_8 
REMARK       I    between atoms: C10_8  and  N11_10 
REMARK    4  A    between atoms: N11_10  and  C12_11 
REMARK    5  A    between atoms: C12_11  and  C13_12 
REMARK    6  A    between atoms: C12_11  and  C26_15 
REMARK    7  A    between atoms: C13_12  and  C14_13 
REMARK    8  A    between atoms: C14_13  and  C15_14 
REMARK    9  A    between atoms: C15_14  and  C44_23 
REMARK   10  A    between atoms: C15_14  and  N58_30 
REMARK   11  A    between atoms: C26_15  and  C28_16 
REMARK   12  A    between atoms: C44_23  and  C45_24 
REMARK       I    between atoms: N58_30  and  C18_33 
REMARK   13  A    between atoms: N20_31  and  C19_32 
REMARK       I    between atoms: N20_31  and  C21_38 
REMARK   14  A    between atoms: C19_32  and  C18_33 
REMARK   15  A    between atoms: C19_32  and  C62_35 
REMARK       I    between atoms: C21_38  and  N74_39 
REMARK   16  A    between atoms: N74_39  and  C75_40 
REMARK   17  A    between atoms: C75_40  and  C77_42 
REMARK   18  A    between atoms: C82_45  and  C85_47 
ROOT
HETATM    1  C15   D T 401       1.335   9.624  -6.922  1.00 59.81     0.113 C 
ENDROOT
BRANCH   1   2
HETATM    2  C14   D T 401       0.190   8.672  -7.294  1.00 58.93     0.060 C 
BRANCH   2   3
HETATM    3  C13   D T 401       0.357   7.187  -6.895  1.00 59.07     0.177 C 
HETATM    4  O41   D T 401       0.248   6.398  -8.074  1.00 58.43    -0.221 OA
BRANCH   3   5
HETATM    5  C12   D T 401      -0.667   6.663  -5.885  1.00 59.52     0.143 C 
BRANCH   5   6
HETATM    6  N11   D T 401      -1.701   5.970  -6.636  1.00 58.37    -0.211 NA
HETATM    7  C10   D T 401      -2.918   6.487  -6.668  1.00 59.08     0.384 C 
HETATM    8  O24   D T 401      -3.198   7.480  -5.996  1.00 59.19    -0.236 OA
BRANCH   7   9
HETATM    9  O7    D T 401      -3.934   5.890  -7.523  1.00 58.33    -0.278 OA
BRANCH   9  10
HETATM   10  C6    D T 401      -5.248   5.831  -7.004  1.00 59.85     0.188 C 
BRANCH  10  11
HETATM   11  C2    D T 401      -5.280   4.726  -6.000  1.00 62.87     0.058 A 
HETATM   12  C1    D T 401      -4.960   3.372  -6.046  1.00 63.59     0.104 A 
HETATM   13  N5    D T 401      -5.205   2.762  -4.831  1.00 65.21    -0.235 NA
HETATM   14  C4    D T 401      -5.699   3.553  -3.835  1.00 64.03     0.134 A 
HETATM   15  S3    D T 401      -5.897   5.157  -4.437  1.00 63.44    -0.066 SA
ENDBRANCH  10  11
ENDBRANCH   9  10
ENDBRANCH   7   9
ENDBRANCH   5   6
BRANCH   5  16
HETATM   16  C26   D T 401      -0.111   5.758  -4.764  1.00 59.99     0.053 C 
BRANCH  16  17
HETATM   17  C28   D T 401      -0.811   6.008  -3.432  1.00 61.27    -0.020 A 
HETATM   18  C31   D T 401      -0.207   6.813  -2.449  1.00 62.70    -0.004 A 
HETATM   19  C32   D T 401      -0.837   7.054  -1.212  1.00 62.25    -0.000 A 
HETATM   20  C33   D T 401      -2.090   6.506  -0.936  1.00 60.89    -0.000 A 
HETATM   21  C34   D T 401      -2.702   5.704  -1.903  1.00 61.83    -0.000 A 
HETATM   22  C35   D T 401      -2.066   5.450  -3.144  1.00 61.69    -0.004 A 
ENDBRANCH  16  17
ENDBRANCH   5  16
ENDBRANCH   3   5
ENDBRANCH   2   3
ENDBRANCH   1   2
BRANCH   1  23
HETATM   23  C44   D T 401       2.661   8.849  -6.824  1.00 61.03     0.051 C 
BRANCH  23  24
HETATM   24  C45   D T 401       3.631   9.016  -7.990  1.00 62.14    -0.020 A 
HETATM   25  C48   D T 401       4.546  10.061  -7.875  1.00 62.95    -0.004 A 
HETATM   26  C49   D T 401       5.521  10.313  -8.853  1.00 63.23    -0.000 A 
HETATM   27  C50   D T 401       5.591   9.491  -9.975  1.00 64.66    -0.000 A 
HETATM   28  C51   D T 401       4.681   8.432 -10.107  1.00 64.50    -0.000 A 
HETATM   29  C52   D T 401       3.709   8.184  -9.123  1.00 63.39    -0.004 A 
ENDBRANCH  23  24
ENDBRANCH   1  23
BRANCH   1  30
HETATM   30  N58   D T 401       1.176  10.208  -5.618  1.00 60.63    -0.238 NA
HETATM   31  C18   D T 401       0.466  11.274  -5.288  1.00 62.24     0.274 C 
HETATM   32  O61   D T 401      -0.257  11.968  -6.003  1.00 61.50    -0.268 OA
BRANCH  31  33
HETATM   33  C19   D T 401       0.677  11.588  -3.846  1.00 64.75     0.188 C 
BRANCH  33  34
HETATM   34  N20   D T 401      -0.053  12.793  -3.509  1.00 65.69    -0.211 NA
HETATM   35  C21   D T 401       0.557  13.798  -2.937  1.00 66.79     0.343 C 
HETATM   36  N74   D T 401      -0.097  14.530  -2.051  1.00 71.41    -0.294 N 
HETATM   37  O76   D T 401       1.738  13.971  -3.092  1.00 67.85    -0.245 OA
HETATM   38  C95   D T 401      -1.129  14.013  -1.146  1.00 70.78     0.131 C 
BRANCH  36  39
HETATM   39  C75   D T 401       0.226  15.935  -1.859  1.00 74.33     0.152 C 
BRANCH  39  40
HETATM   40  C77   D T 401       0.762  16.066  -0.471  1.00 76.44     0.088 A 
HETATM   41  C80   D T 401       2.002  15.570  -0.052  1.00 78.25     0.053 A 
HETATM   42  S81   D T 401       2.246  15.945   1.617  1.00 82.00    -0.070 SA
HETATM   43  C82   D T 401       0.703  16.760   1.716  1.00 80.73     0.088 A 
HETATM   44  N83   D T 401       0.066  16.723   0.510  1.00 78.96    -0.245 NA
BRANCH  43  45
HETATM   45  C85   D T 401       0.315  17.359   3.020  1.00 81.61     0.047 C 
HETATM   46  C86   D T 401       1.064  16.702   4.187  1.00 81.16     0.007 C 
HETATM   47  C90   D T 401      -1.213  17.278   3.176  1.00 82.31     0.007 C 
ENDBRANCH  43  45
ENDBRANCH  39  40
ENDBRANCH  36  39
ENDBRANCH  33  34
BRANCH  33  48
HETATM   48  C62   D T 401       0.188  10.437  -2.944  1.00 64.68     0.032 C 
HETATM   49  C64   D T 401       1.007  10.327  -1.669  1.00 64.29     0.003 C 
HETATM   50  C68   D T 401      -1.301  10.549  -2.627  1.00 63.77     0.003 C 
ENDBRANCH  33  48
ENDBRANCH  31  33
ENDBRANCH   1  30
TORSDOF 18
ENDMDL
MODEL 6
REMARK VINA RESULT:    -6.746      2.818      7.691
REMARK INTER + INTRA:         -18.705
REMARK INTER:                 -12.943
REMARK INTRA:                  -5.763
REMARK UNBOUND:                -4.860
REMARK  18 active torsions:
REMARK  status: ('A' for Active; 'I' for Inactive)
REMARK    1  A    between atoms: C2_2  and  C6_6 
REMARK    2  A    between atoms: C6_6  and  O7_7 
REMARK    3  A    between atoms: O7_7  and  C10_8 
REMARK       I    between atoms: C10_8  and  N11_10 
REMARK    4  A    between atoms: N11_10  and  C12_11 
REMARK    5  A    between atoms: C12_11  and  C13_12 
REMARK    6  A    between atoms: C12_11  and  C26_15 
REMARK    7  A    between atoms: C13_12  and  C14_13 
REMARK    8  A    between atoms: C14_13  and  C15_14 
REMARK    9  A    between atoms: C15_14  and  C44_23 
REMARK   10  A    between atoms: C15_14  and  N58_30 
REMARK   11  A    between atoms: C26_15  and  C28_16 
REMARK   12  A    between atoms: C44_23  and  C45_24 
REMARK       I    between atoms: N58_30  and  C18_33 
REMARK   13  A    between atoms: N20_31  and  C19_32 
REMARK       I    between atoms: N20_31  and  C21_38 
REMARK   14  A    between atoms: C19_32  and  C18_33 
REMARK   15  A    between atoms: C19_32  and  C62_35 
REMARK       I    between atoms: C21_38  and  N74_39 
REMARK   16  A    between atoms: N74_39  and  C75_40 
REMARK   17  A    between atoms: C75_40  and  C77_42 
REMARK   18  A    between atoms: C82_45  and  C85_47 
ROOT
HETATM    1  C15   D T 401      -0.045   9.096  -6.460  1.00 59.81     0.113 C 
ENDROOT
BRANCH   1   2
HETATM    2  C14   D T 401       0.100   8.071  -5.327  1.00 58.93     0.060 C 
BRANCH   2   3
HETATM    3  C13   D T 401       1.119   8.400  -4.211  1.00 59.07     0.177 C 
HETATM    4  O41   D T 401       1.688   7.177  -3.757  1.00 58.43    -0.221 OA
BRANCH   3   5
HETATM    5  C12   D T 401       0.542   9.127  -2.994  1.00 59.52     0.143 C 
BRANCH   5   6
HETATM    6  N11   D T 401      -0.052   8.121  -2.129  1.00 58.37    -0.211 NA
HETATM    7  C10   D T 401      -1.371   8.047  -2.053  1.00 59.08     0.384 C 
HETATM    8  O24   D T 401      -2.081   8.875  -2.623  1.00 59.19    -0.236 OA
BRANCH   7   9
HETATM    9  O7    D T 401      -1.990   6.962  -1.304  1.00 58.33    -0.278 OA
BRANCH   9  10
HETATM   10  C6    D T 401      -1.401   5.683  -1.433  1.00 59.85     0.188 C 
BRANCH  10  11
HETATM   11  C2    D T 401      -1.966   5.055  -2.664  1.00 62.87     0.058 A 
HETATM   12  C1    D T 401      -1.425   4.280  -3.687  1.00 63.59     0.104 A 
HETATM   13  N5    D T 401      -2.381   3.972  -4.635  1.00 65.21    -0.235 NA
HETATM   14  C4    D T 401      -3.638   4.457  -4.421  1.00 64.03     0.134 A 
HETATM   15  S3    D T 401      -3.645   5.376  -2.961  1.00 63.44    -0.066 SA
ENDBRANCH  10  11
ENDBRANCH   9  10
ENDBRANCH   7   9
ENDBRANCH   5   6
BRANCH   5  16
HETATM   16  C26   D T 401       1.531  10.010  -2.201  1.00 59.99     0.053 C 
BRANCH  16  17
HETATM   17  C28   D T 401       1.007  11.432  -2.025  1.00 61.27    -0.020 A 
HETATM   18  C31   D T 401       1.902  12.513  -1.924  1.00 62.70    -0.004 A 
HETATM   19  C32   D T 401       1.438  13.834  -1.758  1.00 62.25    -0.000 A 
HETATM   20  C33   D T 401       0.071  14.103  -1.705  1.00 60.89    -0.000 A 
HETATM   21  C34   D T 401      -0.830  13.039  -1.804  1.00 61.83    -0.000 A 
HETATM   22  C35   D T 401      -0.367  11.708  -1.958  1.00 61.69    -0.004 A 
ENDBRANCH  16  17
ENDBRANCH   5  16
ENDBRANCH   3   5
ENDBRANCH   2   3
ENDBRANCH   1   2
BRANCH   1  23
HETATM   23  C44   D T 401      -1.066  10.180  -6.069  1.00 61.03     0.051 C 
BRANCH  23  24
HETATM   24  C45   D T 401      -0.503  11.568  -5.783  1.00 62.14    -0.020 A 
HETATM   25  C48   D T 401       0.886  11.679  -5.804  1.00 62.95    -0.004 A 
HETATM   26  C49   D T 401       1.543  12.901  -5.594  1.00 63.23    -0.000 A 
HETATM   27  C50   D T 401       0.791  14.051  -5.366  1.00 64.66    -0.000 A 
HETATM   28  C51   D T 401      -0.609  13.961  -5.344  1.00 64.50    -0.000 A 
HETATM   29  C52   D T 401      -1.261  12.734  -5.558  1.00 63.39    -0.004 A 
ENDBRANCH  23  24
ENDBRANCH   1  23
BRANCH   1  30
HETATM   30  N58   D T 401      -0.585   8.526  -7.664  1.00 60.63    -0.238 NA
HETATM   31  C18   D T 401       0.052   7.829  -8.589  1.00 62.24     0.274 C 
HETATM   32  O61   D T 401       1.228   7.465  -8.602  1.00 61.50    -0.268 OA
BRANCH  31  33
HETATM   33  C19   D T 401      -0.873   7.534  -9.719  1.00 64.75     0.188 C 
BRANCH  33  34
HETATM   34  N20   D T 401      -1.991   8.455  -9.672  1.00 65.69    -0.211 NA
HETATM   35  C21   D T 401      -3.203   8.014  -9.457  1.00 66.79     0.343 C 
HETATM   36  N74   D T 401      -4.222   8.608 -10.054  1.00 71.41    -0.294 N 
HETATM   37  O76   D T 401      -3.388   6.991  -8.851  1.00 67.85    -0.245 OA
HETATM   38  C95   D T 401      -4.161   9.225 -11.383  1.00 70.78     0.131 C 
BRANCH  36  39
HETATM   39  C75   D T 401      -5.539   8.631  -9.438  1.00 74.33     0.152 C 
BRANCH  39  40
HETATM   40  C77   D T 401      -5.443   9.536  -8.253  1.00 76.44     0.088 A 
HETATM   41  C80   D T 401      -4.952  10.846  -8.296  1.00 78.25     0.053 A 
HETATM   42  S81   D T 401      -5.027  11.549  -6.719  1.00 82.00    -0.070 SA
HETATM   43  C82   D T 401      -5.717  10.092  -6.044  1.00 80.73     0.088 A 
HETATM   44  N83   D T 401      -5.866   9.142  -7.010  1.00 78.96    -0.245 NA
BRANCH  43  45
HETATM   45  C85   D T 401      -6.042  10.085  -4.592  1.00 81.61     0.047 C 
HETATM   46  C86   D T 401      -4.855  10.568  -3.747  1.00 81.16     0.007 C 
HETATM   47  C90   D T 401      -6.523   8.681  -4.193  1.00 82.31     0.007 C 
ENDBRANCH  43  45
ENDBRANCH  39  40
ENDBRANCH  36  39
ENDBRANCH  33  34
BRANCH  33  48
HETATM   48  C62   D T 401      -0.162   7.680 -11.079  1.00 64.68     0.032 C 
HETATM   49  C64   D T 401      -0.522   6.553 -12.033  1.00 64.29     0.003 C 
HETATM   50  C68   D T 401      -0.423   9.041 -11.721  1.00 63.77     0.003 C 
ENDBRANCH  33  48
ENDBRANCH  31  33
ENDBRANCH   1  30
TORSDOF 18
ENDMDL
MODEL 7
REMARK VINA RESULT:    -6.609      3.084      8.062
REMARK INTER + INTRA:         -18.425
REMARK INTER:                 -14.031
REMARK INTRA:                  -4.393
REMARK UNBOUND:                -4.860
REMARK  18 active torsions:
REMARK  status: ('A' for Active; 'I' for Inactive)
REMARK    1  A    between atoms: C2_2  and  C6_6 
REMARK    2  A    between atoms: C6_6  and  O7_7 
REMARK    3  A    between atoms: O7_7  and  C10_8 
REMARK       I    between atoms: C10_8  and  N11_10 
REMARK    4  A    between atoms: N11_10  and  C12_11 
REMARK    5  A    between atoms: C12_11  and  C13_12 
REMARK    6  A    between atoms: C12_11  and  C26_15 
REMARK    7  A    between atoms: C13_12  and  C14_13 
REMARK    8  A    between atoms: C14_13  and  C15_14 
REMARK    9  A    between atoms: C15_14  and  C44_23 
REMARK   10  A    between atoms: C15_14  and  N58_30 
REMARK   11  A    between atoms: C26_15  and  C28_16 
REMARK   12  A    between atoms: C44_23  and  C45_24 
REMARK       I    between atoms: N58_30  and  C18_33 
REMARK   13  A    between atoms: N20_31  and  C19_32 
REMARK       I    between atoms: N20_31  and  C21_38 
REMARK   14  A    between atoms: C19_32  and  C18_33 
REMARK   15  A    between atoms: C19_32  and  C62_35 
REMARK       I    between atoms: C21_38  and  N74_39 
REMARK   16  A    between atoms: N74_39  and  C75_40 
REMARK   17  A    between atoms: C75_40  and  C77_42 
REMARK   18  A    between atoms: C82_45  and  C85_47 
ROOT
HETATM    1  C15   D T 401      -0.899   7.402  -3.297  1.00 59.81     0.113 C 
ENDROOT
BRANCH   1   2
HETATM    2  C14   D T 401      -0.799   8.933  -3.241  1.00 58.93     0.060 C 
BRANCH   2   3
HETATM    3  C13   D T 401       0.479   9.573  -3.831  1.00 59.07     0.177 C 
HETATM    4  O41   D T 401       1.379   9.832  -2.761  1.00 58.43    -0.221 OA
BRANCH   3   5
HETATM    5  C12   D T 401       0.260  10.887  -4.587  1.00 59.52     0.143 C 
BRANCH   5   6
HETATM    6  N11   D T 401       0.561  11.972  -3.667  1.00 58.37    -0.211 NA
HETATM    7  C10   D T 401      -0.388  12.850  -3.389  1.00 59.08     0.384 C 
HETATM    8  O24   D T 401      -1.471  12.812  -3.973  1.00 59.19    -0.236 OA
BRANCH   7   9
HETATM    9  O7    D T 401      -0.157  13.863  -2.368  1.00 58.33    -0.278 OA
BRANCH   9  10
HETATM   10  C6    D T 401       0.183  15.158  -2.823  1.00 59.85     0.188 C 
BRANCH  10  11
HETATM   11  C2    D T 401       1.502  15.510  -2.219  1.00 62.87     0.058 A 
HETATM   12  C1    D T 401       1.894  16.352  -1.182  1.00 63.59     0.104 A 
HETATM   13  N5    D T 401       3.268  16.353  -1.036  1.00 65.21    -0.235 NA
HETATM   14  C4    D T 401       3.978  15.565  -1.894  1.00 64.03     0.134 A 
HETATM   15  S3    D T 401       2.884  14.781  -2.973  1.00 63.44    -0.066 SA
ENDBRANCH  10  11
ENDBRANCH   9  10
ENDBRANCH   7   9
ENDBRANCH   5   6
BRANCH   5  16
HETATM   16  C26   D T 401       1.056  11.053  -5.901  1.00 59.99     0.053 C 
BRANCH  16  17
HETATM   17  C28   D T 401       1.100   9.758  -6.705  1.00 61.27    -0.020 A 
HETATM   18  C31   D T 401       2.307   9.046  -6.845  1.00 62.70    -0.004 A 
HETATM   19  C32   D T 401       2.368   7.849  -7.585  1.00 62.25    -0.000 A 
HETATM   20  C33   D T 401       1.224   7.330  -8.190  1.00 60.89    -0.000 A 
HETATM   21  C34   D T 401       0.019   8.026  -8.061  1.00 61.83    -0.000 A 
HETATM   22  C35   D T 401      -0.045   9.237  -7.327  1.00 61.69    -0.004 A 
ENDBRANCH  16  17
ENDBRANCH   5  16
ENDBRANCH   3   5
ENDBRANCH   2   3
ENDBRANCH   1   2
BRANCH   1  23
HETATM   23  C44   D T 401       0.048   6.847  -4.375  1.00 61.03     0.051 C 
BRANCH  23  24
HETATM   24  C45   D T 401       1.153   5.914  -3.890  1.00 62.14    -0.020 A 
HETATM   25  C48   D T 401       0.737   4.816  -3.138  1.00 62.95    -0.004 A 
HETATM   26  C49   D T 401       1.638   3.854  -2.655  1.00 63.23    -0.000 A 
HETATM   27  C50   D T 401       2.995   3.986  -2.940  1.00 64.66    -0.000 A 
HETATM   28  C51   D T 401       3.433   5.081  -3.699  1.00 64.50    -0.000 A 
HETATM   29  C52   D T 401       2.525   6.040  -4.181  1.00 63.39    -0.004 A 
ENDBRANCH  23  24
ENDBRANCH   1  23
BRANCH   1  30
HETATM   30  N58   D T 401      -2.198   6.941  -3.704  1.00 60.63    -0.238 NA
HETATM   31  C18   D T 401      -3.046   6.193  -3.016  1.00 62.24     0.274 C 
HETATM   32  O61   D T 401      -2.940   5.775  -1.864  1.00 61.50    -0.268 OA
BRANCH  31  33
HETATM   33  C19   D T 401      -4.223   5.861  -3.867  1.00 64.75     0.188 C 
BRANCH  33  34
HETATM   34  N20   D T 401      -3.976   6.317  -5.220  1.00 65.69    -0.211 NA
HETATM   35  C21   D T 401      -4.969   6.698  -5.981  1.00 66.79     0.343 C 
HETATM   36  N74   D T 401      -4.918   6.454  -7.280  1.00 71.41    -0.294 N 
HETATM   37  O76   D T 401      -5.985   7.127  -5.500  1.00 67.85    -0.245 OA
HETATM   38  C95   D T 401      -4.271   5.282  -7.879  1.00 70.78     0.131 C 
BRANCH  36  39
HETATM   39  C75   D T 401      -5.584   7.328  -8.231  1.00 74.33     0.152 C 
BRANCH  39  40
HETATM   40  C77   D T 401      -4.517   8.152  -8.876  1.00 76.44     0.088 A 
HETATM   41  C80   D T 401      -4.148   9.436  -8.458  1.00 78.25     0.053 A 
HETATM   42  S81   D T 401      -2.870  10.030  -9.458  1.00 82.00    -0.070 SA
HETATM   43  C82   D T 401      -2.849   8.557 -10.400  1.00 80.73     0.088 A 
HETATM   44  N83   D T 401      -3.789   7.682  -9.938  1.00 78.96    -0.245 NA
BRANCH  43  45
HETATM   45  C85   D T 401      -1.862   8.453 -11.507  1.00 81.61     0.047 C 
HETATM   46  C86   D T 401      -1.217   7.062 -11.559  1.00 81.16     0.007 C 
HETATM   47  C90   D T 401      -0.828   9.582 -11.365  1.00 82.31     0.007 C 
ENDBRANCH  43  45
ENDBRANCH  39  40
ENDBRANCH  36  39
ENDBRANCH  33  34
BRANCH  33  48
HETATM   48  C62   D T 401      -4.487   4.342  -3.891  1.00 64.68     0.032 C 
HETATM   49  C64   D T 401      -5.952   4.024  -4.140  1.00 64.29     0.003 C 
HETATM   50  C68   D T 401      -3.594   3.620  -4.898  1.00 63.77     0.003 C 
ENDBRANCH  33  48
ENDBRANCH  31  33
ENDBRANCH   1  30
TORSDOF 18
ENDMDL
MODEL 8
REMARK VINA RESULT:    -6.593      3.800      8.421
REMARK INTER + INTRA:         -18.391
REMARK INTER:                 -14.640
REMARK INTRA:                  -3.751
REMARK UNBOUND:                -4.860
REMARK  18 active torsions:
REMARK  status: ('A' for Active; 'I' for Inactive)
REMARK    1  A    between atoms: C2_2  and  C6_6 
REMARK    2  A    between atoms: C6_6  and  O7_7 
REMARK    3  A    between atoms: O7_7  and  C10_8 
REMARK       I    between atoms: C10_8  and  N11_10 
REMARK    4  A    between atoms: N11_10  and  C12_11 
REMARK    5  A    between atoms: C12_11  and  C13_12 
REMARK    6  A    between atoms: C12_11  and  C26_15 
REMARK    7  A    between atoms: C13_12  and  C14_13 
REMARK    8  A    between atoms: C14_13  and  C15_14 
REMARK    9  A    between atoms: C15_14  and  C44_23 
REMARK   10  A    between atoms: C15_14  and  N58_30 
REMARK   11  A    between atoms: C26_15  and  C28_16 
REMARK   12  A    between atoms: C44_23  and  C45_24 
REMARK       I    between atoms: N58_30  and  C18_33 
REMARK   13  A    between atoms: N20_31  and  C19_32 
REMARK       I    between atoms: N20_31  and  C21_38 
REMARK   14  A    between atoms: C19_32  and  C18_33 
REMARK   15  A    between atoms: C19_32  and  C62_35 
REMARK       I    between atoms: C21_38  and  N74_39 
REMARK   16  A    between atoms: N74_39  and  C75_40 
REMARK   17  A    between atoms: C75_40  and  C77_42 
REMARK   18  A    between atoms: C82_45  and  C85_47 
ROOT
HETATM    1  C15   D T 401       0.371  10.262  -3.959  1.00 59.81     0.113 C 
ENDROOT
BRANCH   1   2
HETATM    2  C14   D T 401      -1.133   9.961  -3.940  1.00 58.93     0.060 C 
BRANCH   2   3
HETATM    3  C13   D T 401      -1.766   9.470  -5.263  1.00 59.07     0.177 C 
HETATM    4  O41   D T 401      -3.019   8.869  -4.958  1.00 58.43    -0.221 OA
BRANCH   3   5
HETATM    5  C12   D T 401      -0.935   8.449  -6.044  1.00 59.52     0.143 C 
BRANCH   5   6
HETATM    6  N11   D T 401      -1.644   7.181  -5.989  1.00 58.37    -0.211 NA
HETATM    7  C10   D T 401      -0.976   6.095  -5.635  1.00 59.08     0.384 C 
HETATM    8  O24   D T 401       0.241   6.136  -5.453  1.00 59.19    -0.236 OA
BRANCH   7   9
HETATM    9  O7    D T 401      -1.690   4.841  -5.438  1.00 58.33    -0.278 OA
BRANCH   9  10
HETATM   10  C6    D T 401      -2.716   4.840  -4.465  1.00 59.85     0.188 C 
BRANCH  10  11
HETATM   11  C2    D T 401      -4.012   4.654  -5.184  1.00 62.87     0.058 A 
HETATM   12  C1    D T 401      -4.827   5.497  -5.934  1.00 63.59     0.104 A 
HETATM   13  N5    D T 401      -5.962   4.836  -6.364  1.00 65.21    -0.235 NA
HETATM   14  C4    D T 401      -6.088   3.528  -5.995  1.00 64.03     0.134 A 
HETATM   15  S3    D T 401      -4.726   3.081  -5.036  1.00 63.44    -0.066 SA
ENDBRANCH  10  11
ENDBRANCH   9  10
ENDBRANCH   7   9
ENDBRANCH   5   6
BRANCH   5  16
HETATM   16  C26   D T 401      -0.603   8.823  -7.506  1.00 59.99     0.053 C 
BRANCH  16  17
HETATM   17  C28   D T 401       0.876   8.626  -7.820  1.00 61.27    -0.020 A 
HETATM   18  C31   D T 401       1.275   7.793  -8.881  1.00 62.70    -0.004 A 
HETATM   19  C32   D T 401       2.637   7.597  -9.186  1.00 62.25    -0.000 A 
HETATM   20  C33   D T 401       3.628   8.241  -8.446  1.00 60.89    -0.000 A 
HETATM   21  C34   D T 401       3.247   9.072  -7.389  1.00 61.83    -0.000 A 
HETATM   22  C35   D T 401       1.879   9.262  -7.072  1.00 61.69    -0.004 A 
ENDBRANCH  16  17
ENDBRANCH   5  16
ENDBRANCH   3   5
ENDBRANCH   2   3
ENDBRANCH   1   2
BRANCH   1  23
HETATM   23  C44   D T 401       1.090   9.447  -2.870  1.00 61.03     0.051 C 
BRANCH  23  24
HETATM   24  C45   D T 401       0.210   8.562  -1.993  1.00 62.14    -0.020 A 
HETATM   25  C48   D T 401      -0.308   9.164  -0.847  1.00 62.95    -0.004 A 
HETATM   26  C49   D T 401      -1.162   8.484   0.036  1.00 63.23    -0.000 A 
HETATM   27  C50   D T 401      -1.518   7.166  -0.240  1.00 64.66    -0.000 A 
HETATM   28  C51   D T 401      -1.011   6.544  -1.391  1.00 64.50    -0.000 A 
HETATM   29  C52   D T 401      -0.158   7.232  -2.270  1.00 63.39    -0.004 A 
ENDBRANCH  23  24
ENDBRANCH   1  23
BRANCH   1  30
HETATM   30  N58   D T 401       0.673  11.628  -3.628  1.00 60.63    -0.238 NA
HETATM   31  C18   D T 401       1.191  12.558  -4.412  1.00 62.24     0.274 C 
HETATM   32  O61   D T 401       1.478  12.483  -5.607  1.00 61.50    -0.268 OA
BRANCH  31  33
HETATM   33  C19   D T 401       1.439  13.797  -3.623  1.00 64.75     0.188 C 
BRANCH  33  34
HETATM   34  N20   D T 401       0.426  13.916  -2.594  1.00 65.69    -0.211 NA
HETATM   35  C21   D T 401      -0.463  14.874  -2.648  1.00 66.79     0.343 C 
HETATM   36  N74   D T 401      -0.893  15.420  -1.523  1.00 71.41    -0.294 N 
HETATM   37  O76   D T 401      -0.778  15.365  -3.701  1.00 67.85    -0.245 OA
HETATM   38  C95   D T 401      -0.078  15.585  -0.315  1.00 70.78     0.131 C 
BRANCH  36  39
HETATM   39  C75   D T 401      -2.232  15.977  -1.428  1.00 74.33     0.152 C 
BRANCH  39  40
HETATM   40  C77   D T 401      -3.132  14.862  -1.004  1.00 76.44     0.088 A 
HETATM   41  C80   D T 401      -3.556  14.645   0.312  1.00 78.25     0.053 A 
HETATM   42  S81   D T 401      -4.595  13.264   0.369  1.00 82.00    -0.070 SA
HETATM   43  C82   D T 401      -4.448  13.016  -1.355  1.00 80.73     0.088 A 
HETATM   44  N83   D T 401      -3.638  13.963  -1.907  1.00 78.96    -0.245 NA
BRANCH  43  45
HETATM   45  C85   D T 401      -5.192  11.878  -1.958  1.00 81.61     0.047 C 
HETATM   46  C86   D T 401      -4.699  11.573  -3.379  1.00 81.16     0.007 C 
HETATM   47  C90   D T 401      -6.699  12.178  -1.904  1.00 82.31     0.007 C 
ENDBRANCH  43  45
ENDBRANCH  39  40
ENDBRANCH  36  39
ENDBRANCH  33  34
BRANCH  33  48
HETATM   48  C62   D T 401       2.828  13.769  -2.956  1.00 64.68     0.032 C 
HETATM   49  C64   D T 401       3.468  15.147  -2.918  1.00 64.29     0.003 C 
HETATM   50  C68   D T 401       2.783  13.152  -1.560  1.00 63.77     0.003 C 
ENDBRANCH  33  48
ENDBRANCH  31  33
ENDBRANCH   1  30
TORSDOF 18
ENDMDL
MODEL 9
REMARK VINA RESULT:    -6.380      2.928      7.789
REMARK INTER + INTRA:         -17.953
REMARK INTER:                 -14.125
REMARK INTRA:                  -3.829
REMARK UNBOUND:                -4.860
REMARK  18 active torsions:
REMARK  status: ('A' for Active; 'I' for Inactive)
REMARK    1  A    between atoms: C2_2  and  C6_6 
REMARK    2  A    between atoms: C6_6  and  O7_7 
REMARK    3  A    between atoms: O7_7  and  C10_8 
REMARK       I    between atoms: C10_8  and  N11_10 
REMARK    4  A    between atoms: N11_10  and  C12_11 
REMARK    5  A    between atoms: C12_11  and  C13_12 
REMARK    6  A    between atoms: C12_11  and  C26_15 
REMARK    7  A    between atoms: C13_12  and  C14_13 
REMARK    8  A    between atoms: C14_13  and  C15_14 
REMARK    9  A    between atoms: C15_14  and  C44_23 
REMARK   10  A    between atoms: C15_14  and  N58_30 
REMARK   11  A    between atoms: C26_15  and  C28_16 
REMARK   12  A    between atoms: C44_23  and  C45_24 
REMARK       I    between atoms: N58_30  and  C18_33 
REMARK   13  A    between atoms: N20_31  and  C19_32 
REMARK       I    between atoms: N20_31  and  C21_38 
REMARK   14  A    between atoms: C19_32  and  C18_33 
REMARK   15  A    between atoms: C19_32  and  C62_35 
REMARK       I    between atoms: C21_38  and  N74_39 
REMARK   16  A    between atoms: N74_39  and  C75_40 
REMARK   17  A    between atoms: C75_40  and  C77_42 
REMARK   18  A    between atoms: C82_45  and  C85_47 
ROOT
HETATM    1  C15   D T 401      -0.254   7.823  -5.028  1.00 59.81     0.113 C 
ENDROOT
BRANCH   1   2
HETATM    2  C14   D T 401      -1.630   7.164  -4.864  1.00 58.93     0.060 C 
BRANCH   2   3
HETATM    3  C13   D T 401      -2.024   6.094  -5.909  1.00 59.07     0.177 C 
HETATM    4  O41   D T 401      -0.848   5.706  -6.610  1.00 58.43    -0.221 OA
BRANCH   3   5
HETATM    5  C12   D T 401      -3.058   6.543  -6.945  1.00 59.52     0.143 C 
BRANCH   5   6
HETATM    6  N11   D T 401      -2.329   7.106  -8.069  1.00 58.37    -0.211 NA
HETATM    7  C10   D T 401      -2.309   8.420  -8.219  1.00 59.08     0.384 C 
HETATM    8  O24   D T 401      -2.974   9.148  -7.482  1.00 59.19    -0.236 OA
BRANCH   7   9
HETATM    9  O7    D T 401      -1.475   9.016  -9.253  1.00 58.33    -0.278 OA
BRANCH   9  10
HETATM   10  C6    D T 401      -1.640   8.519 -10.567  1.00 59.85     0.188 C 
BRANCH  10  11
HETATM   11  C2    D T 401      -0.311   8.010 -11.021  1.00 62.87     0.058 A 
HETATM   12  C1    D T 401       0.917   7.826 -10.392  1.00 63.59     0.104 A 
HETATM   13  N5    D T 401       1.862   7.349 -11.279  1.00 65.21    -0.235 NA
HETATM   14  C4    D T 401       1.453   7.151 -12.566  1.00 64.03     0.134 A 
HETATM   15  S3    D T 401      -0.207   7.598 -12.703  1.00 63.44    -0.066 SA
ENDBRANCH  10  11
ENDBRANCH   9  10
ENDBRANCH   7   9
ENDBRANCH   5   6
BRANCH   5  16
HETATM   16  C26   D T 401      -4.048   5.459  -7.426  1.00 59.99     0.053 C 
BRANCH  16  17
HETATM   17  C28   D T 401      -4.874   4.892  -6.276  1.00 61.27    -0.020 A 
HETATM   18  C31   D T 401      -5.936   5.634  -5.727  1.00 62.70    -0.004 A 
HETATM   19  C32   D T 401      -6.709   5.128  -4.663  1.00 62.25    -0.000 A 
HETATM   20  C33   D T 401      -6.446   3.865  -4.135  1.00 60.89    -0.000 A 
HETATM   21  C34   D T 401      -5.394   3.116  -4.670  1.00 61.83    -0.000 A 
HETATM   22  C35   D T 401      -4.606   3.627  -5.732  1.00 61.69    -0.004 A 
ENDBRANCH  16  17
ENDBRANCH   5  16
ENDBRANCH   3   5
ENDBRANCH   2   3
ENDBRANCH   1   2
BRANCH   1  23
HETATM   23  C44   D T 401       0.575   7.650  -3.743  1.00 61.03     0.051 C 
BRANCH  23  24
HETATM   24  C45   D T 401      -0.201   7.657  -2.430  1.00 62.14    -0.020 A 
HETATM   25  C48   D T 401      -0.569   6.407  -1.933  1.00 62.95    -0.004 A 
HETATM   26  C49   D T 401      -1.255   6.257  -0.718  1.00 63.23    -0.000 A 
HETATM   27  C50   D T 401      -1.576   7.388   0.030  1.00 64.66    -0.000 A 
HETATM   28  C51   D T 401      -1.211   8.654  -0.452  1.00 64.50    -0.000 A 
HETATM   29  C52   D T 401      -0.522   8.797  -1.668  1.00 63.39    -0.004 A 
ENDBRANCH  23  24
ENDBRANCH   1  23
BRANCH   1  30
HETATM   30  N58   D T 401      -0.333   9.248  -5.202  1.00 60.63    -0.238 NA
HETATM   31  C18   D T 401       0.282   9.990  -6.108  1.00 62.24     0.274 C 
HETATM   32  O61   D T 401       1.008   9.627  -7.034  1.00 61.50    -0.268 OA
BRANCH  31  33
HETATM   33  C19   D T 401       0.001  11.430  -5.849  1.00 64.75     0.188 C 
BRANCH  33  34
HETATM   34  N20   D T 401      -1.232  11.547  -5.097  1.00 65.69    -0.211 NA
HETATM   35  C21   D T 401      -2.117  12.455  -5.415  1.00 66.79     0.343 C 
HETATM   36  N74   D T 401      -2.824  13.032  -4.458  1.00 71.41    -0.294 N 
HETATM   37  O76   D T 401      -2.190  12.879  -6.540  1.00 67.85    -0.245 OA
HETATM   38  C95   D T 401      -2.328  13.294  -3.103  1.00 70.78     0.131 C 
BRANCH  36  39
HETATM   39  C75   D T 401      -4.167  13.525  -4.715  1.00 74.33     0.152 C 
BRANCH  39  40
HETATM   40  C77   D T 401      -5.109  12.445  -4.290  1.00 76.44     0.088 A 
HETATM   41  C80   D T 401      -4.976  11.097  -4.641  1.00 78.25     0.053 A 
HETATM   42  S81   D T 401      -6.261  10.181  -3.935  1.00 82.00    -0.070 SA
HETATM   43  C82   D T 401      -6.937  11.608  -3.183  1.00 80.73     0.088 A 
HETATM   44  N83   D T 401      -6.186  12.706  -3.483  1.00 78.96    -0.245 NA
BRANCH  43  45
HETATM   45  C85   D T 401      -8.162  11.444  -2.357  1.00 81.61     0.047 C 
HETATM   46  C86   D T 401      -9.218  10.594  -3.076  1.00 81.16     0.007 C 
HETATM   47  C90   D T 401      -8.688  12.832  -1.958  1.00 82.31     0.007 C 
ENDBRANCH  43  45
ENDBRANCH  39  40
ENDBRANCH  36  39
ENDBRANCH  33  34
BRANCH  33  48
HETATM   48  C62   D T 401       1.141  12.087  -5.044  1.00 64.68     0.032 C 
HETATM   49  C64   D T 401       1.321  13.552  -5.408  1.00 64.29     0.003 C 
HETATM   50  C68   D T 401       0.952  11.919  -3.539  1.00 63.77     0.003 C 
ENDBRANCH  33  48
ENDBRANCH  31  33
ENDBRANCH   1  30
TORSDOF 18
ENDMDL
