MODEL 1
REMARK VINA RESULT:    -8.208      0.000      0.000
REMARK INTER + INTRA:         -20.369
REMARK INTER:                 -16.845
REMARK INTRA:                  -3.524
REMARK UNBOUND:                -3.524
REMARK  18 active torsions:
REMARK  status: ('A' for Active; 'I' for Inactive)
REMARK    1  A    between atoms: C2_2  and  C6_6 
REMARK    2  A    between atoms: C6_6  and  O7_7 
REMARK    3  A    between atoms: O7_7  and  C10_8 
REMARK       I    between atoms: C10_8  and  N11_10 
REMARK    4  A    between atoms: N11_10  and  C12_11 
REMARK    5  A    between atoms: C12_11  and  C13_12 
REMARK    6  A    between atoms: C12_11  and  C26_15 
REMARK    7  A    between atoms: C13_12  and  C14_13 
REMARK    8  A    between atoms: C14_13  and  C15_14 
REMARK    9  A    between atoms: C15_14  and  C44_23 
REMARK   10  A    between atoms: C15_14  and  N58_30 
REMARK   11  A    between atoms: C26_15  and  C28_16 
REMARK   12  A    between atoms: C44_23  and  C45_24 
REMARK       I    between atoms: N58_30  and  C18_33 
REMARK   13  A    between atoms: N20_31  and  C19_32 
REMARK       I    between atoms: N20_31  and  C21_38 
REMARK   14  A    between atoms: C19_32  and  C18_33 
REMARK   15  A    between atoms: C19_32  and  C62_35 
REMARK       I    between atoms: C21_38  and  N74_39 
REMARK   16  A    between atoms: N74_39  and  C75_40 
REMARK   17  A    between atoms: C75_40  and  C77_42 
REMARK   18  A    between atoms: C82_45  and  C85_47 
ROOT
HETATM    1  C15   D T 401       0.711   0.995   7.602  1.00 59.81     0.113 C 
ENDROOT
BRANCH   1   2
HETATM    2  C14   D T 401      -0.196   2.178   7.235  1.00 58.93     0.060 C 
BRANCH   2   3
HETATM    3  C13   D T 401      -1.690   2.059   7.618  1.00 59.07     0.177 C 
HETATM    4  O41   D T 401      -2.370   3.197   7.101  1.00 58.43    -0.221 OA
BRANCH   3   5
HETATM    5  C12   D T 401      -1.975   1.986   9.121  1.00 59.52     0.143 C 
BRANCH   5   6
HETATM    6  N11   D T 401      -1.947   0.582   9.500  1.00 58.37    -0.211 NA
HETATM    7  C10   D T 401      -3.093  -0.039   9.719  1.00 59.08     0.384 C 
HETATM    8  O24   D T 401      -4.157   0.578   9.699  1.00 59.19    -0.236 OA
BRANCH   7   9
HETATM    9  O7    D T 401      -3.100  -1.474   9.964  1.00 58.33    -0.278 OA
BRANCH   9  10
HETATM   10  C6    D T 401      -2.901  -2.312   8.841  1.00 59.85     0.188 C 
BRANCH  10  11
HETATM   11  C2    D T 401      -2.335  -3.600   9.342  1.00 62.87     0.058 A 
HETATM   12  C1    D T 401      -2.785  -4.917   9.338  1.00 63.59     0.104 A 
HETATM   13  N5    D T 401      -1.885  -5.751   9.972  1.00 65.21    -0.235 NA
HETATM   14  C4    D T 401      -0.757  -5.170  10.475  1.00 64.03     0.134 A 
HETATM   15  S3    D T 401      -0.814  -3.473  10.165  1.00 63.44    -0.066 SA
ENDBRANCH  10  11
ENDBRANCH   9  10
ENDBRANCH   7   9
ENDBRANCH   5   6
BRANCH   5  16
HETATM   16  C26   D T 401      -1.039   2.814  10.028  1.00 59.99     0.053 C 
BRANCH  16  17
HETATM   17  C28   D T 401      -1.785   3.425  11.209  1.00 61.27    -0.020 A 
HETATM   18  C31   D T 401      -1.831   4.820  11.378  1.00 62.70    -0.004 A 
HETATM   19  C32   D T 401      -2.516   5.405  12.463  1.00 62.25    -0.000 A 
HETATM   20  C33   D T 401      -3.178   4.605  13.396  1.00 60.89    -0.000 A 
HETATM   21  C34   D T 401      -3.140   3.217  13.240  1.00 61.83    -0.000 A 
HETATM   22  C35   D T 401      -2.444   2.626  12.156  1.00 61.69    -0.004 A 
ENDBRANCH  16  17
ENDBRANCH   5  16
ENDBRANCH   3   5
ENDBRANCH   2   3
ENDBRANCH   1   2
BRANCH   1  23
HETATM   23  C44   D T 401       2.097   1.168   6.956  1.00 61.03     0.051 C 
BRANCH  23  24
HETATM   24  C45   D T 401       2.990   2.254   7.548  1.00 62.14    -0.020 A 
HETATM   25  C48   D T 401       3.441   3.224   6.654  1.00 62.95    -0.004 A 
HETATM   26  C49   D T 401       4.241   4.302   7.064  1.00 63.23    -0.000 A 
HETATM   27  C50   D T 401       4.595   4.421   8.405  1.00 64.66    -0.000 A 
HETATM   28  C51   D T 401       4.147   3.457   9.319  1.00 64.50    -0.000 A 
HETATM   29  C52   D T 401       3.344   2.382   8.905  1.00 63.39    -0.004 A 
ENDBRANCH  23  24
ENDBRANCH   1  23
BRANCH   1  30
HETATM   30  N58   D T 401       0.236  -0.257   7.080  1.00 60.63    -0.238 NA
HETATM   31  C18   D T 401       0.716  -1.467   7.313  1.00 62.24     0.274 C 
HETATM   32  O61   D T 401       1.631  -1.799   8.067  1.00 61.50    -0.268 OA
BRANCH  31  33
HETATM   33  C19   D T 401      -0.010  -2.463   6.474  1.00 64.75     0.188 C 
BRANCH  33  34
HETATM   34  N20   D T 401       0.070  -2.063   5.085  1.00 65.69    -0.211 NA
HETATM   35  C21   D T 401      -1.013  -1.972   4.358  1.00 66.79     0.343 C 
HETATM   36  N74   D T 401      -0.961  -2.293   3.077  1.00 71.41    -0.294 N 
HETATM   37  O76   D T 401      -2.080  -1.749   4.869  1.00 67.85    -0.245 OA
HETATM   38  C95   D T 401      -0.088  -3.329   2.515  1.00 70.78     0.131 C 
BRANCH  36  39
HETATM   39  C75   D T 401      -1.848  -1.662   2.113  1.00 74.33     0.152 C 
BRANCH  39  40
HETATM   40  C77   D T 401      -1.345  -0.270   1.913  1.00 76.44     0.088 A 
HETATM   41  C80   D T 401      -2.068   0.885   2.234  1.00 78.25     0.053 A 
HETATM   42  S81   D T 401      -1.123   2.284   1.862  1.00 82.00    -0.070 SA
HETATM   43  C82   D T 401       0.209   1.305   1.299  1.00 80.73     0.088 A 
HETATM   44  N83   D T 401      -0.095  -0.022   1.408  1.00 78.96    -0.245 NA
BRANCH  43  45
HETATM   45  C85   D T 401       1.429   2.002   0.813  1.00 81.61     0.047 C 
HETATM   46  C86   D T 401       1.922   3.044   1.826  1.00 81.16     0.007 C 
HETATM   47  C90   D T 401       1.144   2.607  -0.572  1.00 82.31     0.007 C 
ENDBRANCH  43  45
ENDBRANCH  39  40
ENDBRANCH  36  39
ENDBRANCH  33  34
BRANCH  33  48
HETATM   48  C62   D T 401       0.596  -3.872   6.626  1.00 64.68     0.032 C 
HETATM   49  C64   D T 401      -0.460  -4.959   6.526  1.00 64.29     0.003 C 
HETATM   50  C68   D T 401       1.728  -4.120   5.631  1.00 63.77     0.003 C 
ENDBRANCH  33  48
ENDBRANCH  31  33
ENDBRANCH   1  30
TORSDOF 18
ENDMDL
MODEL 2
REMARK VINA RESULT:    -7.766      2.527      5.005
REMARK INTER + INTRA:         -19.462
REMARK INTER:                 -15.903
REMARK INTRA:                  -3.559
REMARK UNBOUND:                -3.524
REMARK  18 active torsions:
REMARK  status: ('A' for Active; 'I' for Inactive)
REMARK    1  A    between atoms: C2_2  and  C6_6 
REMARK    2  A    between atoms: C6_6  and  O7_7 
REMARK    3  A    between atoms: O7_7  and  C10_8 
REMARK       I    between atoms: C10_8  and  N11_10 
REMARK    4  A    between atoms: N11_10  and  C12_11 
REMARK    5  A    between atoms: C12_11  and  C13_12 
REMARK    6  A    between atoms: C12_11  and  C26_15 
REMARK    7  A    between atoms: C13_12  and  C14_13 
REMARK    8  A    between atoms: C14_13  and  C15_14 
REMARK    9  A    between atoms: C15_14  and  C44_23 
REMARK   10  A    between atoms: C15_14  and  N58_30 
REMARK   11  A    between atoms: C26_15  and  C28_16 
REMARK   12  A    between atoms: C44_23  and  C45_24 
REMARK       I    between atoms: N58_30  and  C18_33 
REMARK   13  A    between atoms: N20_31  and  C19_32 
REMARK       I    between atoms: N20_31  and  C21_38 
REMARK   14  A    between atoms: C19_32  and  C18_33 
REMARK   15  A    between atoms: C19_32  and  C62_35 
REMARK       I    between atoms: C21_38  and  N74_39 
REMARK   16  A    between atoms: N74_39  and  C75_40 
REMARK   17  A    between atoms: C75_40  and  C77_42 
REMARK   18  A    between atoms: C82_45  and  C85_47 
ROOT
HETATM    1  C15   D T 401      -0.048   2.273   5.529  1.00 59.81     0.113 C 
ENDROOT
BRANCH   1   2
HETATM    2  C14   D T 401      -0.198   2.772   6.972  1.00 58.93     0.060 C 
BRANCH   2   3
HETATM    3  C13   D T 401      -1.636   2.871   7.533  1.00 59.07     0.177 C 
HETATM    4  O41   D T 401      -1.998   4.247   7.581  1.00 58.43    -0.221 OA
BRANCH   3   5
HETATM    5  C12   D T 401      -1.832   2.286   8.935  1.00 59.52     0.143 C 
BRANCH   5   6
HETATM    6  N11   D T 401      -1.701   0.842   8.824  1.00 58.37    -0.211 NA
HETATM    7  C10   D T 401      -2.774   0.091   9.000  1.00 59.08     0.384 C 
HETATM    8  O24   D T 401      -3.843   0.593   9.347  1.00 59.19    -0.236 OA
BRANCH   7   9
HETATM    9  O7    D T 401      -2.698  -1.343   8.760  1.00 58.33    -0.278 OA
BRANCH   9  10
HETATM   10  C6    D T 401      -2.920  -2.187   9.874  1.00 59.85     0.188 C 
BRANCH  10  11
HETATM   11  C2    D T 401      -1.745  -3.103   9.978  1.00 62.87     0.058 A 
HETATM   12  C1    D T 401      -0.380  -2.948   9.761  1.00 63.59     0.104 A 
HETATM   13  N5    D T 401       0.295  -4.136   9.965  1.00 65.21    -0.235 NA
HETATM   14  C4    D T 401      -0.459  -5.215  10.328  1.00 64.03     0.134 A 
HETATM   15  S3    D T 401      -2.117  -4.742  10.405  1.00 63.44    -0.066 SA
ENDBRANCH  10  11
ENDBRANCH   9  10
ENDBRANCH   7   9
ENDBRANCH   5   6
BRANCH   5  16
HETATM   16  C26   D T 401      -0.897   2.835  10.034  1.00 59.99     0.053 C 
BRANCH  16  17
HETATM   17  C28   D T 401      -1.678   3.380  11.225  1.00 61.27    -0.020 A 
HETATM   18  C31   D T 401      -2.442   2.516  12.031  1.00 62.70    -0.004 A 
HETATM   19  C32   D T 401      -3.171   2.999  13.137  1.00 62.25    -0.000 A 
HETATM   20  C33   D T 401      -3.143   4.355  13.465  1.00 60.89    -0.000 A 
HETATM   21  C34   D T 401      -2.389   5.225  12.673  1.00 61.83    -0.000 A 
HETATM   22  C35   D T 401      -1.663   4.743  11.555  1.00 61.69    -0.004 A 
ENDBRANCH  16  17
ENDBRANCH   5  16
ENDBRANCH   3   5
ENDBRANCH   2   3
ENDBRANCH   1   2
BRANCH   1  23
HETATM   23  C44   D T 401      -0.985   1.077   5.280  1.00 61.03     0.051 C 
BRANCH  23  24
HETATM   24  C45   D T 401      -1.750   1.078   3.961  1.00 62.14    -0.020 A 
HETATM   25  C48   D T 401      -1.737  -0.120   3.249  1.00 62.95    -0.004 A 
HETATM   26  C49   D T 401      -2.426  -0.276   2.036  1.00 63.23    -0.000 A 
HETATM   27  C50   D T 401      -3.159   0.791   1.523  1.00 64.66    -0.000 A 
HETATM   28  C51   D T 401      -3.188   2.003   2.229  1.00 64.50    -0.000 A 
HETATM   29  C52   D T 401      -2.498   2.153   3.442  1.00 63.39    -0.004 A 
ENDBRANCH  23  24
ENDBRANCH   1  23
BRANCH   1  30
HETATM   30  N58   D T 401       1.262   1.753   5.250  1.00 60.63    -0.238 NA
HETATM   31  C18   D T 401       2.000   1.951   4.170  1.00 62.24     0.274 C 
HETATM   32  O61   D T 401       1.761   2.664   3.195  1.00 61.50    -0.268 OA
BRANCH  31  33
HETATM   33  C19   D T 401       3.241   1.129   4.256  1.00 64.75     0.188 C 
BRANCH  33  34
HETATM   34  N20   D T 401       3.007  -0.152   3.622  1.00 65.69    -0.211 NA
HETATM   35  C21   D T 401       2.941  -1.244   4.340  1.00 66.79     0.343 C 
HETATM   36  N74   D T 401       3.409  -2.374   3.840  1.00 71.41    -0.294 N 
HETATM   37  O76   D T 401       2.605  -1.202   5.494  1.00 67.85    -0.245 OA
HETATM   38  C95   D T 401       4.548  -2.469   2.920  1.00 70.78     0.131 C 
BRANCH  36  39
HETATM   39  C75   D T 401       2.846  -3.655   4.236  1.00 74.33     0.152 C 
BRANCH  39  40
HETATM   40  C77   D T 401       1.455  -3.699   3.694  1.00 76.44     0.088 A 
HETATM   41  C80   D T 401       0.308  -3.882   4.475  1.00 78.25     0.053 A 
HETATM   42  S81   D T 401      -1.094  -3.855   3.464  1.00 82.00    -0.070 SA
HETATM   43  C82   D T 401      -0.127  -3.593   2.033  1.00 80.73     0.088 A 
HETATM   44  N83   D T 401       1.198  -3.534   2.358  1.00 78.96    -0.245 NA
BRANCH  43  45
HETATM   45  C85   D T 401      -0.832  -3.466   0.731  1.00 81.61     0.047 C 
HETATM   46  C86   D T 401      -2.328  -3.776   0.867  1.00 81.16     0.007 C 
HETATM   47  C90   D T 401      -0.132  -4.358  -0.308  1.00 82.31     0.007 C 
ENDBRANCH  43  45
ENDBRANCH  39  40
ENDBRANCH  36  39
ENDBRANCH  33  34
BRANCH  33  48
HETATM   48  C62   D T 401       4.425   1.826   3.555  1.00 64.68     0.032 C 
HETATM   49  C64   D T 401       5.060   2.888   4.436  1.00 64.29     0.003 C 
HETATM   50  C68   D T 401       5.471   0.827   3.066  1.00 63.77     0.003 C 
ENDBRANCH  33  48
ENDBRANCH  31  33
ENDBRANCH   1  30
TORSDOF 18
ENDMDL
MODEL 3
REMARK VINA RESULT:    -7.615      2.673      5.732
REMARK INTER + INTRA:         -19.152
REMARK INTER:                 -15.215
REMARK INTRA:                  -3.937
REMARK UNBOUND:                -3.524
REMARK  18 active torsions:
REMARK  status: ('A' for Active; 'I' for Inactive)
REMARK    1  A    between atoms: C2_2  and  C6_6 
REMARK    2  A    between atoms: C6_6  and  O7_7 
REMARK    3  A    between atoms: O7_7  and  C10_8 
REMARK       I    between atoms: C10_8  and  N11_10 
REMARK    4  A    between atoms: N11_10  and  C12_11 
REMARK    5  A    between atoms: C12_11  and  C13_12 
REMARK    6  A    between atoms: C12_11  and  C26_15 
REMARK    7  A    between atoms: C13_12  and  C14_13 
REMARK    8  A    between atoms: C14_13  and  C15_14 
REMARK    9  A    between atoms: C15_14  and  C44_23 
REMARK   10  A    between atoms: C15_14  and  N58_30 
REMARK   11  A    between atoms: C26_15  and  C28_16 
REMARK   12  A    between atoms: C44_23  and  C45_24 
REMARK       I    between atoms: N58_30  and  C18_33 
REMARK   13  A    between atoms: N20_31  and  C19_32 
REMARK       I    between atoms: N20_31  and  C21_38 
REMARK   14  A    between atoms: C19_32  and  C18_33 
REMARK   15  A    between atoms: C19_32  and  C62_35 
REMARK       I    between atoms: C21_38  and  N74_39 
REMARK   16  A    between atoms: N74_39  and  C75_40 
REMARK   17  A    between atoms: C75_40  and  C77_42 
REMARK   18  A    between atoms: C82_45  and  C85_47 
ROOT
HETATM    1  C15   D T 401      -1.069   1.284   4.964  1.00 59.81     0.113 C 
ENDROOT
BRANCH   1   2
HETATM    2  C14   D T 401      -0.650   1.934   6.290  1.00 58.93     0.060 C 
BRANCH   2   3
HETATM    3  C13   D T 401      -1.785   2.446   7.208  1.00 59.07     0.177 C 
HETATM    4  O41   D T 401      -1.735   3.868   7.222  1.00 58.43    -0.221 OA
BRANCH   3   5
HETATM    5  C12   D T 401      -1.719   1.961   8.659  1.00 59.52     0.143 C 
BRANCH   5   6
HETATM    6  N11   D T 401      -1.257   0.582   8.635  1.00 58.37    -0.211 NA
HETATM    7  C10   D T 401      -2.130  -0.385   8.860  1.00 59.08     0.384 C 
HETATM    8  O24   D T 401      -3.289  -0.124   9.181  1.00 59.19    -0.236 OA
BRANCH   7   9
HETATM    9  O7    D T 401      -1.723  -1.774   8.707  1.00 58.33    -0.278 OA
BRANCH   9  10
HETATM   10  C6    D T 401      -2.711  -2.757   8.955  1.00 59.85     0.188 C 
BRANCH  10  11
HETATM   11  C2    D T 401      -2.000  -4.048   9.201  1.00 62.87     0.058 A 
HETATM   12  C1    D T 401      -1.249  -4.902   8.400  1.00 63.59     0.104 A 
HETATM   13  N5    D T 401      -0.830  -6.009   9.110  1.00 65.21    -0.235 NA
HETATM   14  C4    D T 401      -1.208  -6.078  10.420  1.00 64.03     0.134 A 
HETATM   15  S3    D T 401      -2.163  -4.692  10.802  1.00 63.44    -0.066 SA
ENDBRANCH  10  11
ENDBRANCH   9  10
ENDBRANCH   7   9
ENDBRANCH   5   6
BRANCH   5  16
HETATM   16  C26   D T 401      -0.855   2.808   9.617  1.00 59.99     0.053 C 
BRANCH  16  17
HETATM   17  C28   D T 401      -1.634   3.238  10.856  1.00 61.27    -0.020 A 
HETATM   18  C31   D T 401      -1.630   4.582  11.269  1.00 62.70    -0.004 A 
HETATM   19  C32   D T 401      -2.343   5.000  12.411  1.00 62.25    -0.000 A 
HETATM   20  C33   D T 401      -3.084   4.083  13.157  1.00 60.89    -0.000 A 
HETATM   21  C34   D T 401      -3.097   2.744  12.758  1.00 61.83    -0.000 A 
HETATM   22  C35   D T 401      -2.373   2.319  11.617  1.00 61.69    -0.004 A 
ENDBRANCH  16  17
ENDBRANCH   5  16
ENDBRANCH   3   5
ENDBRANCH   2   3
ENDBRANCH   1   2
BRANCH   1  23
HETATM   23  C44   D T 401      -1.745  -0.073   5.227  1.00 61.03     0.051 C 
BRANCH  23  24
HETATM   24  C45   D T 401      -1.731  -1.072   4.076  1.00 62.14    -0.020 A 
HETATM   25  C48   D T 401      -1.123  -2.298   4.342  1.00 62.95    -0.004 A 
HETATM   26  C49   D T 401      -1.066  -3.327   3.388  1.00 63.23    -0.000 A 
HETATM   27  C50   D T 401      -1.641  -3.131   2.135  1.00 64.66    -0.000 A 
HETATM   28  C51   D T 401      -2.261  -1.905   1.851  1.00 64.50    -0.000 A 
HETATM   29  C52   D T 401      -2.317  -0.880   2.809  1.00 63.39    -0.004 A 
ENDBRANCH  23  24
ENDBRANCH   1  23
BRANCH   1  30
HETATM   30  N58   D T 401       0.050   0.959   4.123  1.00 60.63    -0.238 NA
HETATM   31  C18   D T 401       0.414   1.545   2.995  1.00 62.24     0.274 C 
HETATM   32  O61   D T 401      -0.081   2.529   2.445  1.00 61.50    -0.268 OA
BRANCH  31  33
HETATM   33  C19   D T 401       1.566   0.809   2.398  1.00 64.75     0.188 C 
BRANCH  33  34
HETATM   34  N20   D T 401       2.673   0.822   3.332  1.00 65.69    -0.211 NA
HETATM   35  C21   D T 401       3.677   1.642   3.157  1.00 66.79     0.343 C 
HETATM   36  N74   D T 401       4.895   1.253   3.492  1.00 71.41    -0.294 N 
HETATM   37  O76   D T 401       3.530   2.677   2.561  1.00 67.85    -0.245 OA
HETATM   38  C95   D T 401       5.379  -0.129   3.404  1.00 70.78     0.131 C 
BRANCH  36  39
HETATM   39  C75   D T 401       5.895   2.216   3.921  1.00 74.33     0.152 C 
BRANCH  39  40
HETATM   40  C77   D T 401       5.462   2.715   5.261  1.00 76.44     0.088 A 
HETATM   41  C80   D T 401       5.609   4.037   5.697  1.00 78.25     0.053 A 
HETATM   42  S81   D T 401       4.969   4.197   7.295  1.00 82.00    -0.070 SA
HETATM   43  C82   D T 401       4.515   2.511   7.343  1.00 80.73     0.088 A 
HETATM   44  N83   D T 401       4.853   1.893   6.173  1.00 78.96    -0.245 NA
BRANCH  43  45
HETATM   45  C85   D T 401       3.851   2.004   8.572  1.00 81.61     0.047 C 
HETATM   46  C86   D T 401       2.402   1.581   8.295  1.00 81.16     0.007 C 
HETATM   47  C90   D T 401       3.958   3.069   9.677  1.00 82.31     0.007 C 
ENDBRANCH  43  45
ENDBRANCH  39  40
ENDBRANCH  36  39
ENDBRANCH  33  34
BRANCH  33  48
HETATM   48  C62   D T 401       1.194  -0.653   2.082  1.00 64.68     0.032 C 
HETATM   49  C64   D T 401       0.928  -0.864   0.601  1.00 64.29     0.003 C 
HETATM   50  C68   D T 401       2.246  -1.635   2.591  1.00 63.77     0.003 C 
ENDBRANCH  33  48
ENDBRANCH  31  33
ENDBRANCH   1  30
TORSDOF 18
ENDMDL
MODEL 4
REMARK VINA RESULT:    -7.553      1.998      3.448
REMARK INTER + INTRA:         -19.026
REMARK INTER:                 -15.182
REMARK INTRA:                  -3.844
REMARK UNBOUND:                -3.524
REMARK  18 active torsions:
REMARK  status: ('A' for Active; 'I' for Inactive)
REMARK    1  A    between atoms: C2_2  and  C6_6 
REMARK    2  A    between atoms: C6_6  and  O7_7 
REMARK    3  A    between atoms: O7_7  and  C10_8 
REMARK       I    between atoms: C10_8  and  N11_10 
REMARK    4  A    between atoms: N11_10  and  C12_11 
REMARK    5  A    between atoms: C12_11  and  C13_12 
REMARK    6  A    between atoms: C12_11  and  C26_15 
REMARK    7  A    between atoms: C13_12  and  C14_13 
REMARK    8  A    between atoms: C14_13  and  C15_14 
REMARK    9  A    between atoms: C15_14  and  C44_23 
REMARK   10  A    between atoms: C15_14  and  N58_30 
REMARK   11  A    between atoms: C26_15  and  C28_16 
REMARK   12  A    between atoms: C44_23  and  C45_24 
REMARK       I    between atoms: N58_30  and  C18_33 
REMARK   13  A    between atoms: N20_31  and  C19_32 
REMARK       I    between atoms: N20_31  and  C21_38 
REMARK   14  A    between atoms: C19_32  and  C18_33 
REMARK   15  A    between atoms: C19_32  and  C62_35 
REMARK       I    between atoms: C21_38  and  N74_39 
REMARK   16  A    between atoms: N74_39  and  C75_40 
REMARK   17  A    between atoms: C75_40  and  C77_42 
REMARK   18  A    between atoms: C82_45  and  C85_47 
ROOT
HETATM    1  C15   D T 401       0.162   2.315   6.362  1.00 59.81     0.113 C 
ENDROOT
BRANCH   1   2
HETATM    2  C14   D T 401      -1.344   2.020   6.390  1.00 58.93     0.060 C 
BRANCH   2   3
HETATM    3  C13   D T 401      -2.179   2.742   7.474  1.00 59.07     0.177 C 
HETATM    4  O41   D T 401      -1.712   4.083   7.570  1.00 58.43    -0.221 OA
BRANCH   3   5
HETATM    5  C12   D T 401      -2.110   2.122   8.872  1.00 59.52     0.143 C 
BRANCH   5   6
HETATM    6  N11   D T 401      -1.843   0.702   8.704  1.00 58.37    -0.211 NA
HETATM    7  C10   D T 401      -2.762  -0.167   9.086  1.00 59.08     0.384 C 
HETATM    8  O24   D T 401      -3.782   0.208   9.662  1.00 59.19    -0.236 OA
BRANCH   7   9
HETATM    9  O7    D T 401      -2.577  -1.583   8.803  1.00 58.33    -0.278 OA
BRANCH   9  10
HETATM   10  C6    D T 401      -3.213  -2.495   9.680  1.00 59.85     0.188 C 
BRANCH  10  11
HETATM   11  C2    D T 401      -2.352  -3.714   9.754  1.00 62.87     0.058 A 
HETATM   12  C1    D T 401      -2.535  -5.045   9.395  1.00 63.59     0.104 A 
HETATM   13  N5    D T 401      -1.422  -5.801   9.707  1.00 65.21    -0.235 NA
HETATM   14  C4    D T 401      -0.377  -5.144  10.291  1.00 64.03     0.134 A 
HETATM   15  S3    D T 401      -0.799  -3.483  10.488  1.00 63.44    -0.066 SA
ENDBRANCH  10  11
ENDBRANCH   9  10
ENDBRANCH   7   9
ENDBRANCH   5   6
BRANCH   5  16
HETATM   16  C26   D T 401      -1.092   2.756   9.845  1.00 59.99     0.053 C 
BRANCH  16  17
HETATM   17  C28   D T 401      -1.768   3.307  11.096  1.00 61.27    -0.020 A 
HETATM   18  C31   D T 401      -1.710   4.681  11.391  1.00 62.70    -0.004 A 
HETATM   19  C32   D T 401      -2.328   5.210  12.542  1.00 62.25    -0.000 A 
HETATM   20  C33   D T 401      -3.027   4.377  13.416  1.00 60.89    -0.000 A 
HETATM   21  C34   D T 401      -3.093   3.010  13.136  1.00 61.83    -0.000 A 
HETATM   22  C35   D T 401      -2.464   2.473  11.985  1.00 61.69    -0.004 A 
ENDBRANCH  16  17
ENDBRANCH   5  16
ENDBRANCH   3   5
ENDBRANCH   2   3
ENDBRANCH   1   2
BRANCH   1  23
HETATM   23  C44   D T 401       0.590   2.762   4.953  1.00 61.03     0.051 C 
BRANCH  23  24
HETATM   24  C45   D T 401       2.090   2.893   4.710  1.00 62.14    -0.020 A 
HETATM   25  C48   D T 401       2.788   3.678   5.625  1.00 62.95    -0.004 A 
HETATM   26  C49   D T 401       4.177   3.860   5.547  1.00 63.23    -0.000 A 
HETATM   27  C50   D T 401       4.893   3.233   4.531  1.00 64.66    -0.000 A 
HETATM   28  C51   D T 401       4.208   2.435   3.603  1.00 64.50    -0.000 A 
HETATM   29  C52   D T 401       2.818   2.255   3.687  1.00 63.39    -0.004 A 
ENDBRANCH  23  24
ENDBRANCH   1  23
BRANCH   1  30
HETATM   30  N58   D T 401       0.964   1.150   6.617  1.00 60.63    -0.238 NA
HETATM   31  C18   D T 401       1.784   0.936   7.633  1.00 62.24     0.274 C 
HETATM   32  O61   D T 401       1.999   1.653   8.611  1.00 61.50    -0.268 OA
BRANCH  31  33
HETATM   33  C19   D T 401       2.497  -0.358   7.436  1.00 64.75     0.188 C 
BRANCH  33  34
HETATM   34  N20   D T 401       1.896  -1.067   6.325  1.00 65.69    -0.211 NA
HETATM   35  C21   D T 401       1.115  -2.094   6.540  1.00 66.79     0.343 C 
HETATM   36  N74   D T 401       1.128  -3.104   5.687  1.00 71.41    -0.294 N 
HETATM   37  O76   D T 401       0.506  -2.199   7.572  1.00 67.85    -0.245 OA
HETATM   38  C95   D T 401       2.308  -3.544   4.936  1.00 70.78     0.131 C 
BRANCH  36  39
HETATM   39  C75   D T 401      -0.057  -3.920   5.480  1.00 74.33     0.152 C 
BRANCH  39  40
HETATM   40  C77   D T 401      -0.641  -3.505   4.169  1.00 76.44     0.088 A 
HETATM   41  C80   D T 401      -1.017  -2.194   3.852  1.00 78.25     0.053 A 
HETATM   42  S81   D T 401      -1.631  -2.140   2.237  1.00 82.00    -0.070 SA
HETATM   43  C82   D T 401      -1.366  -3.853   2.019  1.00 80.73     0.088 A 
HETATM   44  N83   D T 401      -0.832  -4.400   3.150  1.00 78.96    -0.245 NA
BRANCH  43  45
HETATM   45  C85   D T 401      -1.725  -4.451   0.706  1.00 81.61     0.047 C 
HETATM   46  C86   D T 401      -0.873  -3.870  -0.429  1.00 81.16     0.007 C 
HETATM   47  C90   D T 401      -3.234  -4.271   0.468  1.00 82.31     0.007 C 
ENDBRANCH  43  45
ENDBRANCH  39  40
ENDBRANCH  36  39
ENDBRANCH  33  34
BRANCH  33  48
HETATM   48  C62   D T 401       3.993  -0.134   7.138  1.00 64.68     0.032 C 
HETATM   49  C64   D T 401       4.885  -0.862   8.128  1.00 64.29     0.003 C 
HETATM   50  C68   D T 401       4.354  -0.509   5.702  1.00 63.77     0.003 C 
ENDBRANCH  33  48
ENDBRANCH  31  33
ENDBRANCH   1  30
TORSDOF 18
ENDMDL
MODEL 5
REMARK VINA RESULT:    -7.508      1.995      3.927
REMARK INTER + INTRA:         -18.933
REMARK INTER:                 -14.981
REMARK INTRA:                  -3.952
REMARK UNBOUND:                -3.524
REMARK  18 active torsions:
REMARK  status: ('A' for Active; 'I' for Inactive)
REMARK    1  A    between atoms: C2_2  and  C6_6 
REMARK    2  A    between atoms: C6_6  and  O7_7 
REMARK    3  A    between atoms: O7_7  and  C10_8 
REMARK       I    between atoms: C10_8  and  N11_10 
REMARK    4  A    between atoms: N11_10  and  C12_11 
REMARK    5  A    between atoms: C12_11  and  C13_12 
REMARK    6  A    between atoms: C12_11  and  C26_15 
REMARK    7  A    between atoms: C13_12  and  C14_13 
REMARK    8  A    between atoms: C14_13  and  C15_14 
REMARK    9  A    between atoms: C15_14  and  C44_23 
REMARK   10  A    between atoms: C15_14  and  N58_30 
REMARK   11  A    between atoms: C26_15  and  C28_16 
REMARK   12  A    between atoms: C44_23  and  C45_24 
REMARK       I    between atoms: N58_30  and  C18_33 
REMARK   13  A    between atoms: N20_31  and  C19_32 
REMARK       I    between atoms: N20_31  and  C21_38 
REMARK   14  A    between atoms: C19_32  and  C18_33 
REMARK   15  A    between atoms: C19_32  and  C62_35 
REMARK       I    between atoms: C21_38  and  N74_39 
REMARK   16  A    between atoms: N74_39  and  C75_40 
REMARK   17  A    between atoms: C75_40  and  C77_42 
REMARK   18  A    between atoms: C82_45  and  C85_47 
ROOT
HETATM    1  C15   D T 401       0.817   1.953   6.151  1.00 59.81     0.113 C 
ENDROOT
BRANCH   1   2
HETATM    2  C14   D T 401       0.150   2.743   7.285  1.00 58.93     0.060 C 
BRANCH   2   3
HETATM    3  C13   D T 401      -1.365   2.514   7.500  1.00 59.07     0.177 C 
HETATM    4  O41   D T 401      -2.048   3.708   7.136  1.00 58.43    -0.221 OA
BRANCH   3   5
HETATM    5  C12   D T 401      -1.774   2.159   8.933  1.00 59.52     0.143 C 
BRANCH   5   6
HETATM    6  N11   D T 401      -1.828   0.708   9.021  1.00 58.37    -0.211 NA
HETATM    7  C10   D T 401      -3.005   0.125   9.173  1.00 59.08     0.384 C 
HETATM    8  O24   D T 401      -4.023   0.795   9.335  1.00 59.19    -0.236 OA
BRANCH   7   9
HETATM    9  O7    D T 401      -3.101  -1.327   9.126  1.00 58.33    -0.278 OA
BRANCH   9  10
HETATM   10  C6    D T 401      -2.012  -2.018   8.542  1.00 59.85     0.188 C 
BRANCH  10  11
HETATM   11  C2    D T 401      -1.634  -3.121   9.475  1.00 62.87     0.058 A 
HETATM   12  C1    D T 401      -0.602  -3.297  10.391  1.00 63.59     0.104 A 
HETATM   13  N5    D T 401      -0.678  -4.538  10.993  1.00 65.21    -0.235 NA
HETATM   14  C4    D T 401      -1.707  -5.347  10.604  1.00 64.03     0.134 A 
HETATM   15  S3    D T 401      -2.636  -4.535   9.399  1.00 63.44    -0.066 SA
ENDBRANCH  10  11
ENDBRANCH   9  10
ENDBRANCH   7   9
ENDBRANCH   5   6
BRANCH   5  16
HETATM   16  C26   D T 401      -0.885   2.740  10.054  1.00 59.99     0.053 C 
BRANCH  16  17
HETATM   17  C28   D T 401      -1.715   3.293  11.208  1.00 61.27    -0.020 A 
HETATM   18  C31   D T 401      -1.731   4.674  11.477  1.00 62.70    -0.004 A 
HETATM   19  C32   D T 401      -2.491   5.205  12.538  1.00 62.25    -0.000 A 
HETATM   20  C33   D T 401      -3.260   4.367  13.347  1.00 60.89    -0.000 A 
HETATM   21  C34   D T 401      -3.254   2.993  13.091  1.00 61.83    -0.000 A 
HETATM   22  C35   D T 401      -2.483   2.455  12.031  1.00 61.69    -0.004 A 
ENDBRANCH  16  17
ENDBRANCH   5  16
ENDBRANCH   3   5
ENDBRANCH   2   3
ENDBRANCH   1   2
BRANCH   1  23
HETATM   23  C44   D T 401      -0.250   1.380   5.201  1.00 61.03     0.051 C 
BRANCH  23  24
HETATM   24  C45   D T 401      -0.090   1.712   3.722  1.00 62.14    -0.020 A 
HETATM   25  C48   D T 401       1.205   2.016   3.304  1.00 62.95    -0.004 A 
HETATM   26  C49   D T 401       1.508   2.306   1.964  1.00 63.23    -0.000 A 
HETATM   27  C50   D T 401       0.493   2.284   1.012  1.00 64.66    -0.000 A 
HETATM   28  C51   D T 401      -0.815   1.975   1.413  1.00 64.50    -0.000 A 
HETATM   29  C52   D T 401      -1.113   1.683   2.754  1.00 63.39    -0.004 A 
ENDBRANCH  23  24
ENDBRANCH   1  23
BRANCH   1  30
HETATM   30  N58   D T 401       1.526   0.794   6.619  1.00 60.63    -0.238 NA
HETATM   31  C18   D T 401       2.778   0.722   7.038  1.00 62.24     0.274 C 
HETATM   32  O61   D T 401       3.595   1.633   7.177  1.00 61.50    -0.268 OA
BRANCH  31  33
HETATM   33  C19   D T 401       3.131  -0.698   7.320  1.00 64.75     0.188 C 
BRANCH  33  34
HETATM   34  N20   D T 401       2.767  -1.514   6.180  1.00 65.69    -0.211 NA
HETATM   35  C21   D T 401       1.976  -2.544   6.328  1.00 66.79     0.343 C 
HETATM   36  N74   D T 401       2.169  -3.619   5.583  1.00 71.41    -0.294 N 
HETATM   37  O76   D T 401       1.180  -2.585   7.229  1.00 67.85    -0.245 OA
HETATM   38  C95   D T 401       3.479  -4.080   5.112  1.00 70.78     0.131 C 
BRANCH  36  39
HETATM   39  C75   D T 401       1.059  -4.487   5.223  1.00 74.33     0.152 C 
BRANCH  39  40
HETATM   40  C77   D T 401       0.382  -3.854   4.051  1.00 76.44     0.088 A 
HETATM   41  C80   D T 401      -0.886  -3.264   4.095  1.00 78.25     0.053 A 
HETATM   42  S81   D T 401      -1.291  -2.640   2.534  1.00 82.00    -0.070 SA
HETATM   43  C82   D T 401       0.233  -3.169   1.865  1.00 80.73     0.088 A 
HETATM   44  N83   D T 401       0.986  -3.786   2.822  1.00 78.96    -0.245 NA
BRANCH  43  45
HETATM   45  C85   D T 401       0.499  -2.884   0.430  1.00 81.61     0.047 C 
HETATM   46  C86   D T 401       0.519  -1.376   0.150  1.00 81.16     0.007 C 
HETATM   47  C90   D T 401      -0.531  -3.635  -0.430  1.00 82.31     0.007 C 
ENDBRANCH  43  45
ENDBRANCH  39  40
ENDBRANCH  36  39
ENDBRANCH  33  34
BRANCH  33  48
HETATM   48  C62   D T 401       4.640  -0.858   7.591  1.00 64.68     0.032 C 
HETATM   49  C64   D T 401       4.920  -1.922   8.638  1.00 64.29     0.003 C 
HETATM   50  C68   D T 401       5.426  -1.134   6.311  1.00 63.77     0.003 C 
ENDBRANCH  33  48
ENDBRANCH  31  33
ENDBRANCH   1  30
TORSDOF 18
ENDMDL
MODEL 6
REMARK VINA RESULT:    -7.500      3.038      8.076
REMARK INTER + INTRA:         -18.915
REMARK INTER:                 -14.278
REMARK INTRA:                  -4.637
REMARK UNBOUND:                -3.524
REMARK  18 active torsions:
REMARK  status: ('A' for Active; 'I' for Inactive)
REMARK    1  A    between atoms: C2_2  and  C6_6 
REMARK    2  A    between atoms: C6_6  and  O7_7 
REMARK    3  A    between atoms: O7_7  and  C10_8 
REMARK       I    between atoms: C10_8  and  N11_10 
REMARK    4  A    between atoms: N11_10  and  C12_11 
REMARK    5  A    between atoms: C12_11  and  C13_12 
REMARK    6  A    between atoms: C12_11  and  C26_15 
REMARK    7  A    between atoms: C13_12  and  C14_13 
REMARK    8  A    between atoms: C14_13  and  C15_14 
REMARK    9  A    between atoms: C15_14  and  C44_23 
REMARK   10  A    between atoms: C15_14  and  N58_30 
REMARK   11  A    between atoms: C26_15  and  C28_16 
REMARK   12  A    between atoms: C44_23  and  C45_24 
REMARK       I    between atoms: N58_30  and  C18_33 
REMARK   13  A    between atoms: N20_31  and  C19_32 
REMARK       I    between atoms: N20_31  and  C21_38 
REMARK   14  A    between atoms: C19_32  and  C18_33 
REMARK   15  A    between atoms: C19_32  and  C62_35 
REMARK       I    between atoms: C21_38  and  N74_39 
REMARK   16  A    between atoms: N74_39  and  C75_40 
REMARK   17  A    between atoms: C75_40  and  C77_42 
REMARK   18  A    between atoms: C82_45  and  C85_47 
ROOT
HETATM    1  C15   D T 401       1.152  -5.493   4.458  1.00 59.81     0.113 C 
ENDROOT
BRANCH   1   2
HETATM    2  C14   D T 401       1.405  -4.688   5.740  1.00 58.93     0.060 C 
BRANCH   2   3
HETATM    3  C13   D T 401       2.443  -3.544   5.655  1.00 59.07     0.177 C 
HETATM    4  O41   D T 401       2.975  -3.332   6.958  1.00 58.43    -0.221 OA
BRANCH   3   5
HETATM    5  C12   D T 401       1.898  -2.206   5.149  1.00 59.52     0.143 C 
BRANCH   5   6
HETATM    6  N11   D T 401       1.417  -1.467   6.306  1.00 58.37    -0.211 NA
HETATM    7  C10   D T 401       0.121  -1.238   6.419  1.00 59.08     0.384 C 
HETATM    8  O24   D T 401      -0.655  -1.555   5.518  1.00 59.19    -0.236 OA
BRANCH   7   9
HETATM    9  O7    D T 401      -0.400  -0.623   7.632  1.00 58.33    -0.278 OA
BRANCH   9  10
HETATM   10  C6    D T 401      -1.613   0.095   7.510  1.00 59.85     0.188 C 
BRANCH  10  11
HETATM   11  C2    D T 401      -2.422  -0.190   8.733  1.00 62.87     0.058 A 
HETATM   12  C1    D T 401      -3.144   0.605   9.617  1.00 63.59     0.104 A 
HETATM   13  N5    D T 401      -3.698  -0.154  10.629  1.00 65.21    -0.235 NA
HETATM   14  C4    D T 401      -3.453  -1.496  10.595  1.00 64.03     0.134 A 
HETATM   15  S3    D T 401      -2.455  -1.850   9.232  1.00 63.44    -0.066 SA
ENDBRANCH  10  11
ENDBRANCH   9  10
ENDBRANCH   7   9
ENDBRANCH   5   6
BRANCH   5  16
HETATM   16  C26   D T 401       2.879  -1.346   4.323  1.00 59.99     0.053 C 
BRANCH  16  17
HETATM   17  C28   D T 401       3.620  -2.173   3.277  1.00 61.27    -0.020 A 
HETATM   18  C31   D T 401       5.018  -2.311   3.338  1.00 62.70    -0.004 A 
HETATM   19  C32   D T 401       5.722  -3.072   2.382  1.00 62.25    -0.000 A 
HETATM   20  C33   D T 401       5.039  -3.719   1.351  1.00 60.89    -0.000 A 
HETATM   21  C34   D T 401       3.650  -3.590   1.278  1.00 61.83    -0.000 A 
HETATM   22  C35   D T 401       2.941  -2.818   2.232  1.00 61.69    -0.004 A 
ENDBRANCH  16  17
ENDBRANCH   5  16
ENDBRANCH   3   5
ENDBRANCH   2   3
ENDBRANCH   1   2
BRANCH   1  23
HETATM   23  C44   D T 401       2.489  -5.877   3.799  1.00 61.03     0.051 C 
BRANCH  23  24
HETATM   24  C45   D T 401       2.514  -7.197   3.035  1.00 62.14    -0.020 A 
HETATM   25  C48   D T 401       3.293  -8.209   3.595  1.00 62.95    -0.004 A 
HETATM   26  C49   D T 401       3.382  -9.486   3.021  1.00 63.23    -0.000 A 
HETATM   27  C50   D T 401       2.666  -9.767   1.860  1.00 64.66    -0.000 A 
HETATM   28  C51   D T 401       1.874  -8.763   1.285  1.00 64.50    -0.000 A 
HETATM   29  C52   D T 401       1.786  -7.487   1.865  1.00 63.39    -0.004 A 
ENDBRANCH  23  24
ENDBRANCH   1  23
BRANCH   1  30
HETATM   30  N58   D T 401       0.470  -4.734   3.447  1.00 60.63    -0.238 NA
HETATM   31  C18   D T 401      -0.825  -4.483   3.357  1.00 62.24     0.274 C 
HETATM   32  O61   D T 401      -1.724  -4.789   4.141  1.00 61.50    -0.268 OA
BRANCH  31  33
HETATM   33  C19   D T 401      -1.106  -3.754   2.087  1.00 64.75     0.188 C 
BRANCH  33  34
HETATM   34  N20   D T 401      -0.555  -2.418   2.173  1.00 65.69    -0.211 NA
HETATM   35  C21   D T 401      -1.286  -1.379   1.864  1.00 66.79     0.343 C 
HETATM   36  N74   D T 401      -0.715  -0.337   1.283  1.00 71.41    -0.294 N 
HETATM   37  O76   D T 401      -2.485  -1.419   1.960  1.00 67.85    -0.245 OA
HETATM   38  C95   D T 401       0.422  -0.420   0.361  1.00 70.78     0.131 C 
BRANCH  36  39
HETATM   39  C75   D T 401      -1.240   1.005   1.475  1.00 74.33     0.152 C 
BRANCH  39  40
HETATM   40  C77   D T 401      -0.480   1.604   2.613  1.00 76.44     0.088 A 
HETATM   41  C80   D T 401      -0.907   1.585   3.946  1.00 78.25     0.053 A 
HETATM   42  S81   D T 401       0.265   2.371   4.944  1.00 82.00    -0.070 SA
HETATM   43  C82   D T 401       1.296   2.697   3.572  1.00 80.73     0.088 A 
HETATM   44  N83   D T 401       0.734   2.211   2.426  1.00 78.96    -0.245 NA
BRANCH  43  45
HETATM   45  C85   D T 401       2.578   3.409   3.819  1.00 81.61     0.047 C 
HETATM   46  C86   D T 401       3.752   2.712   3.120  1.00 81.16     0.007 C 
HETATM   47  C90   D T 401       2.789   3.552   5.336  1.00 82.31     0.007 C 
ENDBRANCH  43  45
ENDBRANCH  39  40
ENDBRANCH  36  39
ENDBRANCH  33  34
BRANCH  33  48
HETATM   48  C62   D T 401      -0.482  -4.477   0.876  1.00 64.68     0.032 C 
HETATM   49  C64   D T 401      -1.010  -5.893   0.726  1.00 64.29     0.003 C 
HETATM   50  C68   D T 401      -0.664  -3.688  -0.419  1.00 63.77     0.003 C 
ENDBRANCH  33  48
ENDBRANCH  31  33
ENDBRANCH   1  30
TORSDOF 18
ENDMDL
MODEL 7
REMARK VINA RESULT:    -7.453      2.325      7.127
REMARK INTER + INTRA:         -18.819
REMARK INTER:                 -14.507
REMARK INTRA:                  -4.312
REMARK UNBOUND:                -3.524
REMARK  18 active torsions:
REMARK  status: ('A' for Active; 'I' for Inactive)
REMARK    1  A    between atoms: C2_2  and  C6_6 
REMARK    2  A    between atoms: C6_6  and  O7_7 
REMARK    3  A    between atoms: O7_7  and  C10_8 
REMARK       I    between atoms: C10_8  and  N11_10 
REMARK    4  A    between atoms: N11_10  and  C12_11 
REMARK    5  A    between atoms: C12_11  and  C13_12 
REMARK    6  A    between atoms: C12_11  and  C26_15 
REMARK    7  A    between atoms: C13_12  and  C14_13 
REMARK    8  A    between atoms: C14_13  and  C15_14 
REMARK    9  A    between atoms: C15_14  and  C44_23 
REMARK   10  A    between atoms: C15_14  and  N58_30 
REMARK   11  A    between atoms: C26_15  and  C28_16 
REMARK   12  A    between atoms: C44_23  and  C45_24 
REMARK       I    between atoms: N58_30  and  C18_33 
REMARK   13  A    between atoms: N20_31  and  C19_32 
REMARK       I    between atoms: N20_31  and  C21_38 
REMARK   14  A    between atoms: C19_32  and  C18_33 
REMARK   15  A    between atoms: C19_32  and  C62_35 
REMARK       I    between atoms: C21_38  and  N74_39 
REMARK   16  A    between atoms: N74_39  and  C75_40 
REMARK   17  A    between atoms: C75_40  and  C77_42 
REMARK   18  A    between atoms: C82_45  and  C85_47 
ROOT
HETATM    1  C15   D T 401      -2.047   1.365   8.778  1.00 59.81     0.113 C 
ENDROOT
BRANCH   1   2
HETATM    2  C14   D T 401      -1.768   1.832   7.343  1.00 58.93     0.060 C 
BRANCH   2   3
HETATM    3  C13   D T 401      -0.391   2.483   7.074  1.00 59.07     0.177 C 
HETATM    4  O41   D T 401      -0.572   3.521   6.118  1.00 58.43    -0.221 OA
BRANCH   3   5
HETATM    5  C12   D T 401       0.686   1.535   6.537  1.00 59.52     0.143 C 
BRANCH   5   6
HETATM    6  N11   D T 401       0.072   0.728   5.494  1.00 58.37    -0.211 NA
HETATM    7  C10   D T 401       0.423  -0.541   5.383  1.00 59.08     0.384 C 
HETATM    8  O24   D T 401       1.321  -1.009   6.082  1.00 59.19    -0.236 OA
BRANCH   7   9
HETATM    9  O7    D T 401      -0.275  -1.403   4.440  1.00 58.33    -0.278 OA
BRANCH   9  10
HETATM   10  C6    D T 401       0.343  -1.602   3.182  1.00 59.85     0.188 C 
BRANCH  10  11
HETATM   11  C2    D T 401      -0.191  -0.560   2.255  1.00 62.87     0.058 A 
HETATM   12  C1    D T 401       0.390   0.276   1.307  1.00 63.59     0.104 A 
HETATM   13  N5    D T 401      -0.553   1.102   0.728  1.00 65.21    -0.235 NA
HETATM   14  C4    D T 401      -1.839   0.968   1.165  1.00 64.03     0.134 A 
HETATM   15  S3    D T 401      -1.892  -0.248   2.389  1.00 63.44    -0.066 SA
ENDBRANCH  10  11
ENDBRANCH   9  10
ENDBRANCH   7   9
ENDBRANCH   5   6
BRANCH   5  16
HETATM   16  C26   D T 401       1.978   2.202   6.019  1.00 59.99     0.053 C 
BRANCH  16  17
HETATM   17  C28   D T 401       2.839   2.734   7.160  1.00 61.27    -0.020 A 
HETATM   18  C31   D T 401       2.583   2.347   8.487  1.00 62.70    -0.004 A 
HETATM   19  C32   D T 401       3.367   2.827   9.556  1.00 62.25    -0.000 A 
HETATM   20  C33   D T 401       4.432   3.696   9.316  1.00 60.89    -0.000 A 
HETATM   21  C34   D T 401       4.698   4.090   8.002  1.00 61.83    -0.000 A 
HETATM   22  C35   D T 401       3.905   3.617   6.927  1.00 61.69    -0.004 A 
ENDBRANCH  16  17
ENDBRANCH   5  16
ENDBRANCH   3   5
ENDBRANCH   2   3
ENDBRANCH   1   2
BRANCH   1  23
HETATM   23  C44   D T 401      -1.112   2.089   9.764  1.00 61.03     0.051 C 
BRANCH  23  24
HETATM   24  C45   D T 401      -1.771   2.714  10.989  1.00 62.14    -0.020 A 
HETATM   25  C48   D T 401      -1.374   4.014  11.297  1.00 62.95    -0.004 A 
HETATM   26  C49   D T 401      -1.921   4.727  12.375  1.00 63.23    -0.000 A 
HETATM   27  C50   D T 401      -2.899   4.129  13.164  1.00 64.66    -0.000 A 
HETATM   28  C51   D T 401      -3.315   2.823  12.867  1.00 64.50    -0.000 A 
HETATM   29  C52   D T 401      -2.766   2.115  11.786  1.00 63.39    -0.004 A 
ENDBRANCH  23  24
ENDBRANCH   1  23
BRANCH   1  30
HETATM   30  N58   D T 401      -1.756  -0.027   8.980  1.00 60.63    -0.238 NA
HETATM   31  C18   D T 401      -2.174  -1.056   8.262  1.00 62.24     0.274 C 
HETATM   32  O61   D T 401      -2.851  -1.050   7.233  1.00 61.50    -0.268 OA
BRANCH  31  33
HETATM   33  C19   D T 401      -1.724  -2.327   8.898  1.00 64.75     0.188 C 
BRANCH  33  34
HETATM   34  N20   D T 401      -0.278  -2.336   8.971  1.00 65.69    -0.211 NA
HETATM   35  C21   D T 401       0.412  -3.243   8.329  1.00 66.79     0.343 C 
HETATM   36  N74   D T 401       1.527  -3.706   8.866  1.00 71.41    -0.294 N 
HETATM   37  O76   D T 401      -0.030  -3.766   7.339  1.00 67.85    -0.245 OA
HETATM   38  C95   D T 401       1.756  -3.855  10.307  1.00 70.78     0.131 C 
BRANCH  36  39
HETATM   39  C75   D T 401       2.617  -4.180   8.030  1.00 74.33     0.152 C 
BRANCH  39  40
HETATM   40  C77   D T 401       3.805  -3.333   8.352  1.00 76.44     0.088 A 
HETATM   41  C80   D T 401       4.999  -3.821   8.895  1.00 78.25     0.053 A 
HETATM   42  S81   D T 401       6.119  -2.520   9.100  1.00 82.00    -0.070 SA
HETATM   43  C82   D T 401       4.980  -1.364   8.453  1.00 80.73     0.088 A 
HETATM   44  N83   D T 401       3.814  -1.985   8.108  1.00 78.96    -0.245 NA
BRANCH  43  45
HETATM   45  C85   D T 401       5.409   0.057   8.359  1.00 81.61     0.047 C 
HETATM   46  C86   D T 401       5.842   0.420   6.933  1.00 81.16     0.007 C 
HETATM   47  C90   D T 401       6.511   0.319   9.400  1.00 82.31     0.007 C 
ENDBRANCH  43  45
ENDBRANCH  39  40
ENDBRANCH  36  39
ENDBRANCH  33  34
BRANCH  33  48
HETATM   48  C62   D T 401      -2.299  -2.475  10.321  1.00 64.68     0.032 C 
HETATM   49  C64   D T 401      -3.641  -1.779  10.468  1.00 64.29     0.003 C 
HETATM   50  C68   D T 401      -2.394  -3.937  10.752  1.00 63.77     0.003 C 
ENDBRANCH  33  48
ENDBRANCH  31  33
ENDBRANCH   1  30
TORSDOF 18
ENDMDL
MODEL 8
REMARK VINA RESULT:    -7.232      2.415      4.924
REMARK INTER + INTRA:         -18.366
REMARK INTER:                 -13.894
REMARK INTRA:                  -4.472
REMARK UNBOUND:                -3.524
REMARK  18 active torsions:
REMARK  status: ('A' for Active; 'I' for Inactive)
REMARK    1  A    between atoms: C2_2  and  C6_6 
REMARK    2  A    between atoms: C6_6  and  O7_7 
REMARK    3  A    between atoms: O7_7  and  C10_8 
REMARK       I    between atoms: C10_8  and  N11_10 
REMARK    4  A    between atoms: N11_10  and  C12_11 
REMARK    5  A    between atoms: C12_11  and  C13_12 
REMARK    6  A    between atoms: C12_11  and  C26_15 
REMARK    7  A    between atoms: C13_12  and  C14_13 
REMARK    8  A    between atoms: C14_13  and  C15_14 
REMARK    9  A    between atoms: C15_14  and  C44_23 
REMARK   10  A    between atoms: C15_14  and  N58_30 
REMARK   11  A    between atoms: C26_15  and  C28_16 
REMARK   12  A    between atoms: C44_23  and  C45_24 
REMARK       I    between atoms: N58_30  and  C18_33 
REMARK   13  A    between atoms: N20_31  and  C19_32 
REMARK       I    between atoms: N20_31  and  C21_38 
REMARK   14  A    between atoms: C19_32  and  C18_33 
REMARK   15  A    between atoms: C19_32  and  C62_35 
REMARK       I    between atoms: C21_38  and  N74_39 
REMARK   16  A    between atoms: N74_39  and  C75_40 
REMARK   17  A    between atoms: C75_40  and  C77_42 
REMARK   18  A    between atoms: C82_45  and  C85_47 
ROOT
HETATM    1  C15   D T 401       0.041   1.915   5.956  1.00 59.81     0.113 C 
ENDROOT
BRANCH   1   2
HETATM    2  C14   D T 401      -1.366   1.562   6.457  1.00 58.93     0.060 C 
BRANCH   2   3
HETATM    3  C13   D T 401      -2.013   2.536   7.469  1.00 59.07     0.177 C 
HETATM    4  O41   D T 401      -1.309   3.771   7.407  1.00 58.43    -0.221 OA
BRANCH   3   5
HETATM    5  C12   D T 401      -2.004   2.065   8.926  1.00 59.52     0.143 C 
BRANCH   5   6
HETATM    6  N11   D T 401      -1.729   0.637   8.919  1.00 58.37    -0.211 NA
HETATM    7  C10   D T 401      -2.699  -0.199   9.244  1.00 59.08     0.384 C 
HETATM    8  O24   D T 401      -3.785   0.221   9.640  1.00 59.19    -0.236 OA
BRANCH   7   9
HETATM    9  O7    D T 401      -2.489  -1.634   9.112  1.00 58.33    -0.278 OA
BRANCH   9  10
HETATM   10  C6    D T 401      -1.151  -2.070   8.962  1.00 59.85     0.188 C 
BRANCH  10  11
HETATM   11  C2    D T 401      -0.998  -2.562   7.560  1.00 62.87     0.058 A 
HETATM   12  C1    D T 401      -1.358  -2.054   6.316  1.00 63.59     0.104 A 
HETATM   13  N5    D T 401      -1.016  -2.929   5.304  1.00 65.21    -0.235 NA
HETATM   14  C4    D T 401      -0.411  -4.094   5.678  1.00 64.03     0.134 A 
HETATM   15  S3    D T 401      -0.269  -4.127   7.398  1.00 63.44    -0.066 SA
ENDBRANCH  10  11
ENDBRANCH   9  10
ENDBRANCH   7   9
ENDBRANCH   5   6
BRANCH   5  16
HETATM   16  C26   D T 401      -1.030   2.803   9.870  1.00 59.99     0.053 C 
BRANCH  16  17
HETATM   17  C28   D T 401      -1.740   3.357  11.100  1.00 61.27    -0.020 A 
HETATM   18  C31   D T 401      -2.452   2.500  11.959  1.00 62.70    -0.004 A 
HETATM   19  C32   D T 401      -3.115   2.993  13.101  1.00 62.25    -0.000 A 
HETATM   20  C33   D T 401      -3.071   4.352  13.414  1.00 60.89    -0.000 A 
HETATM   21  C34   D T 401      -2.369   5.216  12.569  1.00 61.83    -0.000 A 
HETATM   22  C35   D T 401      -1.709   4.725  11.414  1.00 61.69    -0.004 A 
ENDBRANCH  16  17
ENDBRANCH   5  16
ENDBRANCH   3   5
ENDBRANCH   2   3
ENDBRANCH   1   2
BRANCH   1  23
HETATM   23  C44   D T 401       0.407   1.044   4.741  1.00 61.03     0.051 C 
BRANCH  23  24
HETATM   24  C45   D T 401       1.681   1.425   3.993  1.00 62.14    -0.020 A 
HETATM   25  C48   D T 401       1.646   2.640   3.311  1.00 62.95    -0.004 A 
HETATM   26  C49   D T 401       2.756   3.134   2.609  1.00 63.23    -0.000 A 
HETATM   27  C50   D T 401       3.938   2.400   2.593  1.00 64.66    -0.000 A 
HETATM   28  C51   D T 401       3.994   1.177   3.278  1.00 64.50    -0.000 A 
HETATM   29  C52   D T 401       2.881   0.688   3.981  1.00 63.39    -0.004 A 
ENDBRANCH  23  24
ENDBRANCH   1  23
BRANCH   1  30
HETATM   30  N58   D T 401       1.068   1.620   6.918  1.00 60.63    -0.238 NA
HETATM   31  C18   D T 401       2.166   2.311   7.169  1.00 62.24     0.274 C 
HETATM   32  O61   D T 401       2.527   3.384   6.684  1.00 61.50    -0.268 OA
BRANCH  31  33
HETATM   33  C19   D T 401       3.002   1.579   8.164  1.00 64.75     0.188 C 
BRANCH  33  34
HETATM   34  N20   D T 401       3.758   0.549   7.482  1.00 65.69    -0.211 NA
HETATM   35  C21   D T 401       3.417  -0.708   7.596  1.00 66.79     0.343 C 
HETATM   36  N74   D T 401       4.360  -1.634   7.613  1.00 71.41    -0.294 N 
HETATM   37  O76   D T 401       2.280  -1.018   7.839  1.00 67.85    -0.245 OA
HETATM   38  C95   D T 401       5.702  -1.445   8.173  1.00 70.78     0.131 C 
BRANCH  36  39
HETATM   39  C75   D T 401       4.097  -2.976   7.117  1.00 74.33     0.152 C 
BRANCH  39  40
HETATM   40  C77   D T 401       4.079  -2.886   5.626  1.00 76.44     0.088 A 
HETATM   41  C80   D T 401       5.203  -2.617   4.837  1.00 78.25     0.053 A 
HETATM   42  S81   D T 401       4.755  -2.615   3.167  1.00 82.00    -0.070 SA
HETATM   43  C82   D T 401       3.091  -2.979   3.555  1.00 80.73     0.088 A 
HETATM   44  N83   D T 401       2.930  -3.090   4.907  1.00 78.96    -0.245 NA
BRANCH  43  45
HETATM   45  C85   D T 401       2.130  -3.123   2.431  1.00 81.61     0.047 C 
HETATM   46  C86   D T 401       1.055  -2.029   2.466  1.00 81.16     0.007 C 
HETATM   47  C90   D T 401       1.535  -4.541   2.457  1.00 82.31     0.007 C 
ENDBRANCH  43  45
ENDBRANCH  39  40
ENDBRANCH  36  39
ENDBRANCH  33  34
BRANCH  33  48
HETATM   48  C62   D T 401       3.982   2.529   8.881  1.00 64.68     0.032 C 
HETATM   49  C64   D T 401       3.376   3.127  10.138  1.00 64.29     0.003 C 
HETATM   50  C68   D T 401       5.316   1.852   9.188  1.00 63.77     0.003 C 
ENDBRANCH  33  48
ENDBRANCH  31  33
ENDBRANCH   1  30
TORSDOF 18
ENDMDL
MODEL 9
REMARK VINA RESULT:    -7.172      3.695      8.113
REMARK INTER + INTRA:         -18.243
REMARK INTER:                 -13.133
REMARK INTRA:                  -5.111
REMARK UNBOUND:                -3.524
REMARK  18 active torsions:
REMARK  status: ('A' for Active; 'I' for Inactive)
REMARK    1  A    between atoms: C2_2  and  C6_6 
REMARK    2  A    between atoms: C6_6  and  O7_7 
REMARK    3  A    between atoms: O7_7  and  C10_8 
REMARK       I    between atoms: C10_8  and  N11_10 
REMARK    4  A    between atoms: N11_10  and  C12_11 
REMARK    5  A    between atoms: C12_11  and  C13_12 
REMARK    6  A    between atoms: C12_11  and  C26_15 
REMARK    7  A    between atoms: C13_12  and  C14_13 
REMARK    8  A    between atoms: C14_13  and  C15_14 
REMARK    9  A    between atoms: C15_14  and  C44_23 
REMARK   10  A    between atoms: C15_14  and  N58_30 
REMARK   11  A    between atoms: C26_15  and  C28_16 
REMARK   12  A    between atoms: C44_23  and  C45_24 
REMARK       I    between atoms: N58_30  and  C18_33 
REMARK   13  A    between atoms: N20_31  and  C19_32 
REMARK       I    between atoms: N20_31  and  C21_38 
REMARK   14  A    between atoms: C19_32  and  C18_33 
REMARK   15  A    between atoms: C19_32  and  C62_35 
REMARK       I    between atoms: C21_38  and  N74_39 
REMARK   16  A    between atoms: N74_39  and  C75_40 
REMARK   17  A    between atoms: C75_40  and  C77_42 
REMARK   18  A    between atoms: C82_45  and  C85_47 
ROOT
HETATM    1  C15   D T 401       4.748   0.524   5.343  1.00 59.81     0.113 C 
ENDROOT
BRANCH   1   2
HETATM    2  C14   D T 401       5.184  -0.634   4.435  1.00 58.93     0.060 C 
BRANCH   2   3
HETATM    3  C13   D T 401       5.204  -2.047   5.063  1.00 59.07     0.177 C 
HETATM    4  O41   D T 401       6.553  -2.499   5.093  1.00 58.43    -0.221 OA
BRANCH   3   5
HETATM    5  C12   D T 401       4.373  -3.101   4.326  1.00 59.52     0.143 C 
BRANCH   5   6
HETATM    6  N11   D T 401       3.004  -2.986   4.802  1.00 58.37    -0.211 NA
HETATM    7  C10   D T 401       2.362  -4.084   5.161  1.00 59.08     0.384 C 
HETATM    8  O24   D T 401       2.873  -5.192   5.005  1.00 59.19    -0.236 OA
BRANCH   7   9
HETATM    9  O7    D T 401       1.043  -3.981   5.769  1.00 58.33    -0.278 OA
BRANCH   9  10
HETATM   10  C6    D T 401       0.945  -3.206   6.949  1.00 59.85     0.188 C 
BRANCH  10  11
HETATM   11  C2    D T 401      -0.181  -2.244   6.757  1.00 62.87     0.058 A 
HETATM   12  C1    D T 401      -1.546  -2.293   7.021  1.00 63.59     0.104 A 
HETATM   13  N5    D T 401      -2.173  -1.130   6.618  1.00 65.21    -0.235 NA
HETATM   14  C4    D T 401      -1.383  -0.171   6.052  1.00 64.03     0.134 A 
HETATM   15  S3    D T 401       0.243  -0.746   5.993  1.00 63.44    -0.066 SA
ENDBRANCH  10  11
ENDBRANCH   9  10
ENDBRANCH   7   9
ENDBRANCH   5   6
BRANCH   5  16
HETATM   16  C26   D T 401       4.420  -3.042   2.784  1.00 59.99     0.053 C 
BRANCH  16  17
HETATM   17  C28   D T 401       5.536  -3.912   2.215  1.00 61.27    -0.020 A 
HETATM   18  C31   D T 401       6.249  -3.501   1.074  1.00 62.70    -0.004 A 
HETATM   19  C32   D T 401       7.284  -4.290   0.533  1.00 62.25    -0.000 A 
HETATM   20  C33   D T 401       7.634  -5.503   1.128  1.00 60.89    -0.000 A 
HETATM   21  C34   D T 401       6.934  -5.924   2.261  1.00 61.83    -0.000 A 
HETATM   22  C35   D T 401       5.886  -5.138   2.802  1.00 61.69    -0.004 A 
ENDBRANCH  16  17
ENDBRANCH   5  16
ENDBRANCH   3   5
ENDBRANCH   2   3
ENDBRANCH   1   2
BRANCH   1  23
HETATM   23  C44   D T 401       4.069  -0.022   6.612  1.00 61.03     0.051 C 
BRANCH  23  24
HETATM   24  C45   D T 401       3.764   0.993   7.708  1.00 62.14    -0.020 A 
HETATM   25  C48   D T 401       4.870   1.603   8.297  1.00 62.95    -0.004 A 
HETATM   26  C49   D T 401       4.740   2.583   9.294  1.00 63.23    -0.000 A 
HETATM   27  C50   D T 401       3.469   2.972   9.710  1.00 64.66    -0.000 A 
HETATM   28  C51   D T 401       2.344   2.372   9.125  1.00 64.50    -0.000 A 
HETATM   29  C52   D T 401       2.480   1.395   8.126  1.00 63.39    -0.004 A 
ENDBRANCH  23  24
ENDBRANCH   1  23
BRANCH   1  30
HETATM   30  N58   D T 401       3.744   1.358   4.742  1.00 60.63    -0.238 NA
HETATM   31  C18   D T 401       3.908   2.278   3.806  1.00 62.24     0.274 C 
HETATM   32  O61   D T 401       4.936   2.584   3.201  1.00 61.50    -0.268 OA
BRANCH  31  33
HETATM   33  C19   D T 401       2.615   2.979   3.563  1.00 64.75     0.188 C 
BRANCH  33  34
HETATM   34  N20   D T 401       1.557   1.998   3.444  1.00 65.69    -0.211 NA
HETATM   35  C21   D T 401       1.025   1.735   2.278  1.00 66.79     0.343 C 
HETATM   36  N74   D T 401      -0.262   1.445   2.207  1.00 71.41    -0.294 N 
HETATM   37  O76   D T 401       1.651   1.902   1.264  1.00 67.85    -0.245 OA
HETATM   38  C95   D T 401      -1.290   2.001   3.093  1.00 70.78     0.131 C 
BRANCH  36  39
HETATM   39  C75   D T 401      -0.774   0.573   1.162  1.00 74.33     0.152 C 
BRANCH  39  40
HETATM   40  C77   D T 401      -0.667  -0.825   1.678  1.00 76.44     0.088 A 
HETATM   41  C80   D T 401      -1.527  -1.383   2.631  1.00 78.25     0.053 A 
HETATM   42  S81   D T 401      -1.069  -3.020   2.941  1.00 82.00    -0.070 SA
HETATM   43  C82   D T 401       0.246  -2.928   1.794  1.00 80.73     0.088 A 
HETATM   44  N83   D T 401       0.295  -1.688   1.224  1.00 78.96    -0.245 NA
BRANCH  43  45
HETATM   45  C85   D T 401       1.081  -4.141   1.594  1.00 81.61     0.047 C 
HETATM   46  C86   D T 401       2.035  -3.978   0.403  1.00 81.16     0.007 C 
HETATM   47  C90   D T 401       0.161  -5.366   1.455  1.00 82.31     0.007 C 
ENDBRANCH  43  45
ENDBRANCH  39  40
ENDBRANCH  36  39
ENDBRANCH  33  34
BRANCH  33  48
HETATM   48  C62   D T 401       2.276   3.946   4.715  1.00 64.68     0.032 C 
HETATM   49  C64   D T 401       1.074   3.476   5.515  1.00 64.29     0.003 C 
HETATM   50  C68   D T 401       3.475   4.193   5.628  1.00 63.77     0.003 C 
ENDBRANCH  33  48
ENDBRANCH  31  33
ENDBRANCH   1  30
TORSDOF 18
ENDMDL
