MODEL 1
REMARK VINA RESULT:    -8.879      0.000      0.000
REMARK INTER + INTRA:         -10.856
REMARK INTER:                 -10.436
REMARK INTRA:                  -0.420
REMARK UNBOUND:                -0.420
REMARK  3 active torsions:
REMARK  status: ('A' for Active; 'I' for Inactive)
REMARK    1  A    between atoms: C4_1  and  C7_4 
REMARK    2  A    between atoms: C22_10  and  C2_13 
REMARK    3  A    between atoms: N8_15  and  C12_19 
ROOT
HETATM    1  C7    D T   1      25.817  -0.880 -27.950  1.00 10.24     0.174 A 
HETATM    2  N8    D T   1      26.869  -0.232 -28.523  1.00 12.35    -0.253 N 
HETATM    3  C9    D T   1      26.331   0.382 -29.598  1.00 12.30     0.305 A 
HETATM    4  N10   D T   1      25.002   0.161 -29.656  1.00  9.49    -0.101 NA
HETATM    5  N11   D T   1      24.675  -0.617 -28.619  1.00  9.08    -0.126 NA
HETATM    6  O27   D T   1      27.074   1.090 -30.435  1.00 11.66    -0.147 OA
ENDROOT
BRANCH   1   7
HETATM    7  C4    D T   1      25.966  -1.649 -26.692  1.00 10.31     0.061 A 
HETATM    8  C5    D T   1      26.098  -1.056 -25.432  1.00 10.61     0.136 A 
HETATM    9  C6    D T   1      26.314  -1.830 -24.277  1.00 10.34     0.054 A 
HETATM   10  O26   D T   1      26.017   0.279 -25.362  1.00 10.14    -0.190 OA
HETATM   11  C1    D T   1      26.395  -3.235 -24.328  1.00  9.23     0.129 A 
HETATM   12  C2    D T   1      26.265  -3.819 -25.593  1.00  9.69     0.003 A 
HETATM   13  O25   D T   1      26.610  -3.936 -23.217  1.00  9.75    -0.190 OA
HETATM   14  C3    D T   1      26.057  -3.045 -26.728  1.00 10.15     0.003 A 
BRANCH  12  15
HETATM   15  C22   D T   1      26.309  -5.334 -25.748  1.00  9.53     0.024 C 
HETATM   16  C24   D T   1      26.849  -5.894 -27.087  1.00 10.85     0.005 C 
HETATM   17  C23   D T   1      24.871  -5.843 -25.493  1.00  9.87     0.005 C 
ENDBRANCH  12  15
ENDBRANCH   1   7
BRANCH   2  18
HETATM   18  C12   D T   1      28.176  -0.242 -28.118  1.00 13.09     0.069 A 
HETATM   19  C13   D T   1      28.814  -1.445 -27.762  1.00 12.86     0.019 A 
HETATM   20  C15   D T   1      30.157  -1.533 -27.371  1.00 13.97     0.019 A 
HETATM   21  C16   D T   1      30.901  -0.332 -27.359  1.00 13.12     0.060 A 
HETATM   22  C17   D T   1      30.284   0.874 -27.727  1.00 12.73     0.019 A 
HETATM   23  N19   D T   1      32.200  -0.083 -27.038  1.00 12.86    -0.324 N 
HETATM   24  C14   D T   1      28.937   0.939 -28.109  1.00 13.51     0.019 A 
HETATM   25  C18   D T   1      31.267   1.859 -27.601  1.00 14.21     0.020 A 
HETATM   26  C20   D T   1      32.441   1.242 -27.182  1.00 12.85     0.076 A 
HETATM   27  C21   D T   1      33.201  -1.059 -26.600  1.00 13.42     0.131 C 
ENDBRANCH   2  18
TORSDOF 3
ENDMDL
MODEL 2
REMARK VINA RESULT:    -8.696      2.643      5.767
REMARK INTER + INTRA:         -10.641
REMARK INTER:                 -10.129
REMARK INTRA:                  -0.512
REMARK UNBOUND:                -0.420
REMARK  3 active torsions:
REMARK  status: ('A' for Active; 'I' for Inactive)
REMARK    1  A    between atoms: C4_1  and  C7_4 
REMARK    2  A    between atoms: C22_10  and  C2_13 
REMARK    3  A    between atoms: N8_15  and  C12_19 
ROOT
HETATM    1  C7    D T   1      28.103  -0.767 -28.152  1.00 10.24     0.174 A 
HETATM    2  N8    D T   1      28.589  -1.680 -27.266  1.00 12.35    -0.253 N 
HETATM    3  C9    D T   1      29.901  -1.380 -27.170  1.00 12.30     0.305 A 
HETATM    4  N10   D T   1      30.199  -0.302 -27.926  1.00  9.49    -0.101 NA
HETATM    5  N11   D T   1      29.073   0.092 -28.531  1.00  9.08    -0.126 NA
HETATM    6  O27   D T   1      30.722  -2.093 -26.414  1.00 11.66    -0.147 OA
ENDROOT
BRANCH   1   7
HETATM    7  C4    D T   1      26.665  -0.712 -28.506  1.00 10.31     0.061 A 
HETATM    8  C5    D T   1      25.935   0.477 -28.599  1.00 10.61     0.136 A 
HETATM    9  C6    D T   1      24.553   0.470 -28.863  1.00 10.34     0.054 A 
HETATM   10  O26   D T   1      26.596   1.628 -28.423  1.00 10.14    -0.190 OA
HETATM   11  C1    D T   1      23.840  -0.730 -29.058  1.00  9.23     0.129 A 
HETATM   12  C2    D T   1      24.578  -1.914 -28.960  1.00  9.69     0.003 A 
HETATM   13  O25   D T   1      22.530  -0.701 -29.296  1.00  9.75    -0.190 OA
HETATM   14  C3    D T   1      25.941  -1.895 -28.693  1.00 10.15     0.003 A 
BRANCH  12  15
HETATM   15  C22   D T   1      23.903  -3.261 -29.183  1.00  9.53     0.024 C 
HETATM   16  C24   D T   1      24.376  -4.446 -28.307  1.00 10.85     0.005 C 
HETATM   17  C23   D T   1      24.079  -3.597 -30.683  1.00  9.87     0.005 C 
ENDBRANCH  12  15
ENDBRANCH   1   7
BRANCH   2  18
HETATM   18  C12   D T   1      27.904  -2.693 -26.652  1.00 13.09     0.069 A 
HETATM   19  C13   D T   1      27.020  -2.430 -25.590  1.00 12.86     0.019 A 
HETATM   20  C15   D T   1      26.263  -3.414 -24.938  1.00 13.97     0.019 A 
HETATM   21  C16   D T   1      26.399  -4.740 -25.406  1.00 13.12     0.060 A 
HETATM   22  C17   D T   1      27.267  -5.018 -26.474  1.00 12.73     0.019 A 
HETATM   23  N19   D T   1      25.815  -5.900 -24.998  1.00 12.86    -0.324 N 
HETATM   24  C14   D T   1      28.018  -4.018 -27.106  1.00 13.51     0.019 A 
HETATM   25  C18   D T   1      27.184  -6.397 -26.682  1.00 14.21     0.020 A 
HETATM   26  C20   D T   1      26.278  -6.917 -25.764  1.00 12.85     0.076 A 
HETATM   27  C21   D T   1      24.845  -6.063 -23.913  1.00 13.42     0.131 C 
ENDBRANCH   2  18
TORSDOF 3
ENDMDL
MODEL 3
REMARK VINA RESULT:    -8.267      2.451      5.639
REMARK INTER + INTRA:         -10.137
REMARK INTER:                 -10.974
REMARK INTRA:                   0.837
REMARK UNBOUND:                -0.420
REMARK  3 active torsions:
REMARK  status: ('A' for Active; 'I' for Inactive)
REMARK    1  A    between atoms: C4_1  and  C7_4 
REMARK    2  A    between atoms: C22_10  and  C2_13 
REMARK    3  A    between atoms: N8_15  and  C12_19 
ROOT
HETATM    1  C7    D T   1      28.941  -2.756 -26.855  1.00 10.24     0.174 A 
HETATM    2  N8    D T   1      28.362  -1.704 -27.497  1.00 12.35    -0.253 N 
HETATM    3  C9    D T   1      29.370  -0.823 -27.662  1.00 12.30     0.305 A 
HETATM    4  N10   D T   1      30.527  -1.330 -27.188  1.00  9.49    -0.101 NA
HETATM    5  N11   D T   1      30.265  -2.545 -26.695  1.00  9.08    -0.126 NA
HETATM    6  O27   D T   1      29.172   0.359 -28.225  1.00 11.66    -0.147 OA
ENDROOT
BRANCH   1   7
HETATM    7  C4    D T   1      28.180  -3.984 -26.524  1.00 10.31     0.061 A 
HETATM    8  C5    D T   1      27.985  -5.040 -27.420  1.00 10.61     0.136 A 
HETATM    9  C6    D T   1      27.189  -6.150 -27.082  1.00 10.34     0.054 A 
HETATM   10  O26   D T   1      28.580  -4.959 -28.617  1.00 10.14    -0.190 OA
HETATM   11  C1    D T   1      26.560  -6.259 -25.825  1.00  9.23     0.129 A 
HETATM   12  C2    D T   1      26.758  -5.196 -24.938  1.00  9.69     0.003 A 
HETATM   13  O25   D T   1      25.805  -7.318 -25.542  1.00  9.75    -0.190 OA
HETATM   14  C3    D T   1      27.542  -4.102 -25.284  1.00 10.15     0.003 A 
BRANCH  12  15
HETATM   15  C22   D T   1      26.144  -5.234 -23.545  1.00  9.53     0.024 C 
HETATM   16  C24   D T   1      24.730  -5.850 -23.409  1.00 10.85     0.005 C 
HETATM   17  C23   D T   1      26.147  -3.777 -23.024  1.00  9.87     0.005 C 
ENDBRANCH  12  15
ENDBRANCH   1   7
BRANCH   2  18
HETATM   18  C12   D T   1      27.047  -1.563 -27.849  1.00 13.09     0.069 A 
HETATM   19  C13   D T   1      26.435  -0.296 -27.869  1.00 12.86     0.019 A 
HETATM   20  C15   D T   1      25.104  -0.076 -28.250  1.00 13.97     0.019 A 
HETATM   21  C16   D T   1      24.357  -1.205 -28.653  1.00 13.12     0.060 A 
HETATM   22  C17   D T   1      24.958  -2.474 -28.654  1.00 12.73     0.019 A 
HETATM   23  N19   D T   1      23.068  -1.326 -29.075  1.00 12.86    -0.324 N 
HETATM   24  C14   D T   1      26.289  -2.672 -28.262  1.00 13.51     0.019 A 
HETATM   25  C18   D T   1      23.969  -3.363 -29.084  1.00 14.21     0.020 A 
HETATM   26  C20   D T   1      22.816  -2.629 -29.344  1.00 12.85     0.076 A 
HETATM   27  C21   D T   1      22.086  -0.250 -29.222  1.00 13.42     0.131 C 
ENDBRANCH   2  18
TORSDOF 3
ENDMDL
MODEL 4
REMARK VINA RESULT:    -8.214      2.733      5.444
REMARK INTER + INTRA:         -10.076
REMARK INTER:                 -10.016
REMARK INTRA:                  -0.060
REMARK UNBOUND:                -0.420
REMARK  3 active torsions:
REMARK  status: ('A' for Active; 'I' for Inactive)
REMARK    1  A    between atoms: C4_1  and  C7_4 
REMARK    2  A    between atoms: C22_10  and  C2_13 
REMARK    3  A    between atoms: N8_15  and  C12_19 
ROOT
HETATM    1  C7    D T   1      25.429  -0.501 -29.217  1.00 10.24     0.174 A 
HETATM    2  N8    D T   1      24.893  -1.688 -28.819  1.00 12.35    -0.253 N 
HETATM    3  C9    D T   1      23.683  -1.720 -29.416  1.00 12.30     0.305 A 
HETATM    4  N10   D T   1      23.503  -0.626 -30.185  1.00  9.49    -0.101 NA
HETATM    5  N11   D T   1      24.600   0.132 -30.074  1.00  9.08    -0.126 NA
HETATM    6  O27   D T   1      22.843  -2.726 -29.225  1.00 11.66    -0.147 OA
ENDROOT
BRANCH   1   7
HETATM    7  C4    D T   1      26.796  -0.089 -28.821  1.00 10.31     0.061 A 
HETATM    8  C5    D T   1      27.406   1.093 -29.253  1.00 10.61     0.136 A 
HETATM    9  C6    D T   1      28.735   1.400 -28.909  1.00 10.34     0.054 A 
HETATM   10  O26   D T   1      26.680   1.926 -30.011  1.00 10.14    -0.190 OA
HETATM   11  C1    D T   1      29.513   0.542 -28.107  1.00  9.23     0.129 A 
HETATM   12  C2    D T   1      28.896  -0.640 -27.684  1.00  9.69     0.003 A 
HETATM   13  O25   D T   1      30.771   0.858 -27.810  1.00  9.75    -0.190 OA
HETATM   14  C3    D T   1      27.584  -0.936 -28.033  1.00 10.15     0.003 A 
BRANCH  12  15
HETATM   15  C22   D T   1      29.645  -1.619 -26.788  1.00  9.53     0.024 C 
HETATM   16  C24   D T   1      30.003  -3.000 -27.391  1.00 10.85     0.005 C 
HETATM   17  C23   D T   1      28.785  -1.794 -25.515  1.00  9.87     0.005 C 
ENDBRANCH  12  15
ENDBRANCH   1   7
BRANCH   2  18
HETATM   18  C12   D T   1      25.445  -2.610 -27.971  1.00 13.09     0.069 A 
HETATM   19  C13   D T   1      25.248  -2.523 -26.581  1.00 12.86     0.019 A 
HETATM   20  C15   D T   1      25.755  -3.450 -25.659  1.00 13.97     0.019 A 
HETATM   21  C16   D T   1      26.489  -4.537 -26.182  1.00 13.12     0.060 A 
HETATM   22  C17   D T   1      26.682  -4.646 -27.568  1.00 12.73     0.019 A 
HETATM   23  N19   D T   1      27.100  -5.587 -25.566  1.00 12.86    -0.324 N 
HETATM   24  C14   D T   1      26.170  -3.704 -28.471  1.00 13.51     0.019 A 
HETATM   25  C18   D T   1      27.444  -5.803 -27.756  1.00 14.21     0.020 A 
HETATM   26  C20   D T   1      27.682  -6.368 -26.508  1.00 12.85     0.076 A 
HETATM   27  C21   D T   1      27.144  -5.860 -24.128  1.00 13.42     0.131 C 
ENDBRANCH   2  18
TORSDOF 3
ENDMDL
MODEL 5
REMARK VINA RESULT:    -7.921      1.676      2.826
REMARK INTER + INTRA:          -9.731
REMARK INTER:                 -10.597
REMARK INTRA:                   0.866
REMARK UNBOUND:                -0.420
REMARK  3 active torsions:
REMARK  status: ('A' for Active; 'I' for Inactive)
REMARK    1  A    between atoms: C4_1  and  C7_4 
REMARK    2  A    between atoms: C22_10  and  C2_13 
REMARK    3  A    between atoms: N8_15  and  C12_19 
ROOT
HETATM    1  C7    D T   1      25.084  -2.035 -28.158  1.00 10.24     0.174 A 
HETATM    2  N8    D T   1      25.699  -0.886 -28.555  1.00 12.35    -0.253 N 
HETATM    3  C9    D T   1      24.735  -0.207 -29.212  1.00 12.30     0.305 A 
HETATM    4  N10   D T   1      23.569  -0.884 -29.179  1.00  9.49    -0.101 NA
HETATM    5  N11   D T   1      23.780  -2.022 -28.509  1.00  9.08    -0.126 NA
HETATM    6  O27   D T   1      24.980   0.963 -29.784  1.00 11.66    -0.147 OA
ENDROOT
BRANCH   1   7
HETATM    7  C4    D T   1      25.786  -3.056 -27.346  1.00 10.31     0.061 A 
HETATM    8  C5    D T   1      26.425  -4.174 -27.891  1.00 10.61     0.136 A 
HETATM    9  C6    D T   1      27.011  -5.155 -27.071  1.00 10.34     0.054 A 
HETATM   10  O26   D T   1      26.457  -4.284 -29.226  1.00 10.14    -0.190 OA
HETATM   11  C1    D T   1      26.994  -5.056 -25.665  1.00  9.23     0.129 A 
HETATM   12  C2    D T   1      26.350  -3.937 -25.130  1.00  9.69     0.003 A 
HETATM   13  O25   D T   1      27.549  -6.008 -24.918  1.00  9.75    -0.190 OA
HETATM   14  C3    D T   1      25.770  -2.976 -25.949  1.00 10.15     0.003 A 
BRANCH  12  15
HETATM   15  C22   D T   1      26.304  -3.724 -23.622  1.00  9.53     0.024 C 
HETATM   16  C24   D T   1      25.582  -4.801 -22.775  1.00 10.85     0.005 C 
HETATM   17  C23   D T   1      25.658  -2.338 -23.393  1.00  9.87     0.005 C 
ENDBRANCH  12  15
ENDBRANCH   1   7
BRANCH   2  18
HETATM   18  C12   D T   1      27.007  -0.531 -28.364  1.00 13.09     0.069 A 
HETATM   19  C13   D T   1      27.464   0.756 -28.702  1.00 12.86     0.019 A 
HETATM   20  C15   D T   1      28.780   1.196 -28.503  1.00 13.97     0.019 A 
HETATM   21  C16   D T   1      29.679   0.282 -27.911  1.00 13.12     0.060 A 
HETATM   22  C17   D T   1      29.235  -1.002 -27.554  1.00 12.73     0.019 A 
HETATM   23  N19   D T   1      30.996   0.399 -27.588  1.00 12.86    -0.324 N 
HETATM   24  C14   D T   1      27.915  -1.422 -27.768  1.00 13.51     0.019 A 
HETATM   25  C18   D T   1      30.347  -1.653 -27.014  1.00 14.21     0.020 A 
HETATM   26  C20   D T   1      31.418  -0.766 -27.040  1.00 12.85     0.076 A 
HETATM   27  C21   D T   1      31.851   1.571 -27.789  1.00 13.42     0.131 C 
ENDBRANCH   2  18
TORSDOF 3
ENDMDL
MODEL 6
REMARK VINA RESULT:    -7.724      2.824      4.982
REMARK INTER + INTRA:          -9.499
REMARK INTER:                  -8.600
REMARK INTRA:                  -0.899
REMARK UNBOUND:                -0.420
REMARK  3 active torsions:
REMARK  status: ('A' for Active; 'I' for Inactive)
REMARK    1  A    between atoms: C4_1  and  C7_4 
REMARK    2  A    between atoms: C22_10  and  C2_13 
REMARK    3  A    between atoms: N8_15  and  C12_19 
ROOT
HETATM    1  C7    D T   1      25.728  -3.683 -26.111  1.00 10.24     0.174 A 
HETATM    2  N8    D T   1      26.918  -3.199 -25.659  1.00 12.35    -0.253 N 
HETATM    3  C9    D T   1      27.011  -3.675 -24.399  1.00 12.30     0.305 A 
HETATM    4  N10   D T   1      25.949  -4.455 -24.107  1.00  9.49    -0.101 NA
HETATM    5  N11   D T   1      25.152  -4.473 -25.180  1.00  9.08    -0.126 NA
HETATM    6  O27   D T   1      28.037  -3.374 -23.618  1.00 11.66    -0.147 OA
ENDROOT
BRANCH   1   7
HETATM    7  C4    D T   1      25.258  -3.433 -27.494  1.00 10.31     0.061 A 
HETATM    8  C5    D T   1      25.233  -4.411 -28.492  1.00 10.61     0.136 A 
HETATM    9  C6    D T   1      24.850  -4.103 -29.810  1.00 10.34     0.054 A 
HETATM   10  O26   D T   1      25.590  -5.656 -28.152  1.00 10.14    -0.190 OA
HETATM   11  C1    D T   1      24.463  -2.801 -30.187  1.00  9.23     0.129 A 
HETATM   12  C2    D T   1      24.496  -1.829 -29.182  1.00  9.69     0.003 A 
HETATM   13  O25   D T   1      24.117  -2.541 -31.446  1.00  9.75    -0.190 OA
HETATM   14  C3    D T   1      24.880  -2.143 -27.885  1.00 10.15     0.003 A 
BRANCH  12  15
HETATM   15  C22   D T   1      24.068  -0.398 -29.483  1.00  9.53     0.024 C 
HETATM   16  C24   D T   1      24.789   0.735 -28.713  1.00 10.85     0.005 C 
HETATM   17  C23   D T   1      22.543  -0.334 -29.231  1.00  9.87     0.005 C 
ENDBRANCH  12  15
ENDBRANCH   1   7
BRANCH   2  18
HETATM   18  C12   D T   1      27.793  -2.381 -26.322  1.00 13.09     0.069 A 
HETATM   19  C13   D T   1      29.025  -2.869 -26.792  1.00 12.86     0.019 A 
HETATM   20  C15   D T   1      29.952  -2.097 -27.506  1.00 13.97     0.019 A 
HETATM   21  C16   D T   1      29.597  -0.756 -27.774  1.00 13.12     0.060 A 
HETATM   22  C17   D T   1      28.364  -0.258 -27.325  1.00 12.73     0.019 A 
HETATM   23  N19   D T   1      30.261   0.234 -28.432  1.00 12.86    -0.324 N 
HETATM   24  C14   D T   1      27.456  -1.047 -26.607  1.00 13.51     0.019 A 
HETATM   25  C18   D T   1      28.322   1.078 -27.733  1.00 14.21     0.020 A 
HETATM   26  C20   D T   1      29.500   1.354 -28.420  1.00 12.85     0.076 A 
HETATM   27  C21   D T   1      31.581   0.142 -29.059  1.00 13.42     0.131 C 
ENDBRANCH   2  18
TORSDOF 3
ENDMDL
MODEL 7
REMARK VINA RESULT:    -6.149      2.689      4.971
REMARK INTER + INTRA:          -7.648
REMARK INTER:                  -7.430
REMARK INTRA:                  -0.218
REMARK UNBOUND:                -0.420
REMARK  3 active torsions:
REMARK  status: ('A' for Active; 'I' for Inactive)
REMARK    1  A    between atoms: C4_1  and  C7_4 
REMARK    2  A    between atoms: C22_10  and  C2_13 
REMARK    3  A    between atoms: N8_15  and  C12_19 
ROOT
HETATM    1  C7    D T   1      25.852  -4.125 -26.972  1.00 10.24     0.174 A 
HETATM    2  N8    D T   1      27.135  -4.244 -26.531  1.00 12.35    -0.253 N 
HETATM    3  C9    D T   1      27.170  -5.458 -25.941  1.00 12.30     0.305 A 
HETATM    4  N10   D T   1      25.977  -6.077 -26.057  1.00  9.49    -0.101 NA
HETATM    5  N11   D T   1      25.154  -5.252 -26.714  1.00  9.08    -0.126 NA
HETATM    6  O27   D T   1      28.266  -5.910 -25.351  1.00 11.66    -0.147 OA
ENDROOT
BRANCH   1   7
HETATM    7  C4    D T   1      25.395  -2.940 -27.735  1.00 10.31     0.061 A 
HETATM    8  C5    D T   1      24.321  -2.961 -28.629  1.00 10.61     0.136 A 
HETATM    9  C6    D T   1      23.975  -1.827 -29.387  1.00 10.34     0.054 A 
HETATM   10  O26   D T   1      23.629  -4.103 -28.745  1.00 10.14    -0.190 OA
HETATM   11  C1    D T   1      24.685  -0.615 -29.276  1.00  9.23     0.129 A 
HETATM   12  C2    D T   1      25.760  -0.605 -28.382  1.00  9.69     0.003 A 
HETATM   13  O25   D T   1      24.338   0.436 -30.016  1.00  9.75    -0.190 OA
HETATM   14  C3    D T   1      26.096  -1.732 -27.642  1.00 10.15     0.003 A 
BRANCH  12  15
HETATM   15  C22   D T   1      26.571   0.667 -28.169  1.00  9.53     0.024 C 
HETATM   16  C24   D T   1      27.817   0.873 -29.065  1.00 10.85     0.005 C 
HETATM   17  C23   D T   1      26.973   0.687 -26.676  1.00  9.87     0.005 C 
ENDBRANCH  12  15
ENDBRANCH   1   7
BRANCH   2  18
HETATM   18  C12   D T   1      28.140  -3.320 -26.628  1.00 13.09     0.069 A 
HETATM   19  C13   D T   1      28.486  -2.509 -25.532  1.00 12.86     0.019 A 
HETATM   20  C15   D T   1      29.524  -1.567 -25.552  1.00 13.97     0.019 A 
HETATM   21  C16   D T   1      30.265  -1.455 -26.749  1.00 13.12     0.060 A 
HETATM   22  C17   D T   1      29.942  -2.268 -27.847  1.00 12.73     0.019 A 
HETATM   23  N19   D T   1      31.314  -0.655 -27.085  1.00 12.86    -0.324 N 
HETATM   24  C14   D T   1      28.896  -3.199 -27.806  1.00 13.51     0.019 A 
HETATM   25  C18   D T   1      30.837  -1.912 -28.860  1.00 14.21     0.020 A 
HETATM   26  C20   D T   1      31.676  -0.922 -28.363  1.00 12.85     0.076 A 
HETATM   27  C21   D T   1      31.967   0.342 -26.235  1.00 13.42     0.131 C 
ENDBRANCH   2  18
TORSDOF 3
ENDMDL
MODEL 8
REMARK VINA RESULT:    -5.959      2.811      3.952
REMARK INTER + INTRA:          -7.425
REMARK INTER:                  -6.626
REMARK INTRA:                  -0.799
REMARK UNBOUND:                -0.420
REMARK  3 active torsions:
REMARK  status: ('A' for Active; 'I' for Inactive)
REMARK    1  A    between atoms: C4_1  and  C7_4 
REMARK    2  A    between atoms: C22_10  and  C2_13 
REMARK    3  A    between atoms: N8_15  and  C12_19 
ROOT
HETATM    1  C7    D T   1      24.215  -3.635 -28.197  1.00 10.24     0.174 A 
HETATM    2  N8    D T   1      24.139  -2.308 -28.498  1.00 12.35    -0.253 N 
HETATM    3  C9    D T   1      22.911  -2.163 -29.038  1.00 12.30     0.305 A 
HETATM    4  N10   D T   1      22.244  -3.336 -29.026  1.00  9.49    -0.101 NA
HETATM    5  N11   D T   1      23.052  -4.256 -28.488  1.00  9.08    -0.126 NA
HETATM    6  O27   D T   1      22.489  -0.994 -29.494  1.00 11.66    -0.147 OA
ENDROOT
BRANCH   1   7
HETATM    7  C4    D T   1      25.402  -4.216 -27.527  1.00 10.31     0.061 A 
HETATM    8  C5    D T   1      26.608  -4.485 -28.182  1.00 10.61     0.136 A 
HETATM    9  C6    D T   1      27.680  -5.109 -27.519  1.00 10.34     0.054 A 
HETATM   10  O26   D T   1      26.709  -4.129 -29.470  1.00 10.14    -0.190 OA
HETATM   11  C1    D T   1      27.597  -5.484 -26.163  1.00  9.23     0.129 A 
HETATM   12  C2    D T   1      26.386  -5.216 -25.517  1.00  9.69     0.003 A 
HETATM   13  O25   D T   1      28.626  -6.083 -25.568  1.00  9.75    -0.190 OA
HETATM   14  C3    D T   1      25.332  -4.603 -26.184  1.00 10.15     0.003 A 
BRANCH  12  15
HETATM   15  C22   D T   1      26.209  -5.557 -24.043  1.00  9.53     0.024 C 
HETATM   16  C24   D T   1      24.926  -6.326 -23.642  1.00 10.85     0.005 C 
HETATM   17  C23   D T   1      26.299  -4.221 -23.270  1.00  9.87     0.005 C 
ENDBRANCH  12  15
ENDBRANCH   1   7
BRANCH   2  18
HETATM   18  C12   D T   1      25.108  -1.357 -28.328  1.00 13.09     0.069 A 
HETATM   19  C13   D T   1      25.663  -1.107 -27.060  1.00 12.86     0.019 A 
HETATM   20  C15   D T   1      26.680  -0.173 -26.820  1.00 13.97     0.019 A 
HETATM   21  C16   D T   1      27.175   0.536 -27.937  1.00 13.12     0.060 A 
HETATM   22  C17   D T   1      26.642   0.288 -29.212  1.00 12.73     0.019 A 
HETATM   23  N19   D T   1      28.141   1.489 -28.039  1.00 12.86    -0.324 N 
HETATM   24  C14   D T   1      25.621  -0.648 -29.427  1.00 13.51     0.019 A 
HETATM   25  C18   D T   1      27.325   1.142 -30.082  1.00 14.21     0.020 A 
HETATM   26  C20   D T   1      28.248   1.867 -29.336  1.00 12.85     0.076 A 
HETATM   27  C21   D T   1      28.949   2.043 -26.951  1.00 13.42     0.131 C 
ENDBRANCH   2  18
TORSDOF 3
ENDMDL
