MODEL 1
REMARK VINA RESULT:    -8.689      0.000      0.000
REMARK INTER + INTRA:         -10.937
REMARK INTER:                 -10.213
REMARK INTRA:                  -0.724
REMARK UNBOUND:                -0.724
REMARK  3 active torsions:
REMARK  status: ('A' for Active; 'I' for Inactive)
REMARK    1  A    between atoms: C4_1  and  C7_4 
REMARK    2  A    between atoms: C22_10  and  C2_13 
REMARK    3  A    between atoms: N8_15  and  C12_19 
ROOT
HETATM    1  C7    D T   1      26.134  -0.492 -28.086  1.00 10.24     0.174 A 
HETATM    2  N8    D T   1      27.147   0.197 -28.681  1.00 12.35    -0.253 N 
HETATM    3  C9    D T   1      26.591   0.693 -29.807  1.00 12.30     0.305 A 
HETATM    4  N10   D T   1      25.283   0.363 -29.877  1.00  9.49    -0.101 NA
HETATM    5  N11   D T   1      24.992  -0.365 -28.795  1.00  9.08    -0.126 NA
HETATM    6  O27   D T   1      27.297   1.398 -30.676  1.00 11.66    -0.147 OA
ENDROOT
BRANCH   1   7
HETATM    7  C4    D T   1      26.308  -1.160 -26.775  1.00 10.31     0.061 A 
HETATM    8  C5    D T   1      26.362  -0.477 -25.557  1.00 10.61     0.136 A 
HETATM    9  C6    D T   1      26.607  -1.152 -24.348  1.00 10.34     0.054 A 
HETATM   10  O26   D T   1      26.174   0.849 -25.579  1.00 10.14    -0.190 OA
HETATM   11  C1    D T   1      26.799  -2.547 -24.301  1.00  9.23     0.129 A 
HETATM   12  C2    D T   1      26.749  -3.221 -25.525  1.00  9.69     0.003 A 
HETATM   13  O25   D T   1      27.040  -3.152 -23.140  1.00  9.75    -0.190 OA
HETATM   14  C3    D T   1      26.511  -2.544 -26.715  1.00 10.15     0.003 A 
BRANCH  12  15
HETATM   15  C22   D T   1      26.916  -4.735 -25.575  1.00  9.53     0.024 C 
HETATM   16  C24   D T   1      27.559  -5.335 -26.849  1.00 10.85     0.005 C 
HETATM   17  C23   D T   1      25.511  -5.339 -25.346  1.00  9.87     0.005 C 
ENDBRANCH  12  15
ENDBRANCH   1   7
BRANCH   2  18
HETATM   18  C12   D T   1      28.440   0.316 -28.252  1.00 13.09     0.069 A 
HETATM   19  C13   D T   1      29.213  -0.823 -27.962  1.00 12.86     0.019 A 
HETATM   20  C15   D T   1      30.553  -0.778 -27.550  1.00 13.97     0.019 A 
HETATM   21  C16   D T   1      31.146   0.501 -27.443  1.00 13.12     0.060 A 
HETATM   22  C17   D T   1      30.393   1.647 -27.746  1.00 12.73     0.019 A 
HETATM   23  N19   D T   1      32.402   0.880 -27.081  1.00 12.86    -0.324 N 
HETATM   24  C14   D T   1      29.052   1.576 -28.149  1.00 13.51     0.019 A 
HETATM   25  C18   D T   1      31.250   2.731 -27.536  1.00 14.21     0.020 A 
HETATM   26  C20   D T   1      32.483   2.231 -27.133  1.00 12.85     0.076 A 
HETATM   27  C21   D T   1      33.507   0.003 -26.688  1.00 13.42     0.131 C 
ENDBRANCH   2  18
TORSDOF 3
ENDMDL
MODEL 2
REMARK VINA RESULT:    -8.553      2.668      5.857
REMARK INTER + INTRA:         -10.778
REMARK INTER:                 -10.195
REMARK INTRA:                  -0.582
REMARK UNBOUND:                -0.724
REMARK  3 active torsions:
REMARK  status: ('A' for Active; 'I' for Inactive)
REMARK    1  A    between atoms: C4_1  and  C7_4 
REMARK    2  A    between atoms: C22_10  and  C2_13 
REMARK    3  A    between atoms: N8_15  and  C12_19 
ROOT
HETATM    1  C7    D T   1      28.352  -0.355 -28.293  1.00 10.24     0.174 A 
HETATM    2  N8    D T   1      28.876  -1.218 -27.379  1.00 12.35    -0.253 N 
HETATM    3  C9    D T   1      30.174  -0.858 -27.292  1.00 12.30     0.305 A 
HETATM    4  N10   D T   1      30.425   0.209 -28.081  1.00  9.49    -0.101 NA
HETATM    5  N11   D T   1      29.285   0.534 -28.697  1.00  9.08    -0.126 NA
HETATM    6  O27   D T   1      31.023  -1.510 -26.515  1.00 11.66    -0.147 OA
ENDROOT
BRANCH   1   7
HETATM    7  C4    D T   1      26.915  -0.373 -28.650  1.00 10.31     0.061 A 
HETATM    8  C5    D T   1      26.128   0.777 -28.760  1.00 10.61     0.136 A 
HETATM    9  C6    D T   1      24.749   0.699 -29.026  1.00 10.34     0.054 A 
HETATM   10  O26   D T   1      26.732   1.961 -28.600  1.00 10.14    -0.190 OA
HETATM   11  C1    D T   1      24.094  -0.535 -29.205  1.00  9.23     0.129 A 
HETATM   12  C2    D T   1      24.888  -1.681 -29.090  1.00  9.69     0.003 A 
HETATM   13  O25   D T   1      22.785  -0.572 -29.445  1.00  9.75    -0.190 OA
HETATM   14  C3    D T   1      26.249  -1.594 -28.822  1.00 10.15     0.003 A 
BRANCH  12  15
HETATM   15  C22   D T   1      24.279  -3.062 -29.296  1.00  9.53     0.024 C 
HETATM   16  C24   D T   1      24.660  -4.164 -28.277  1.00 10.85     0.005 C 
HETATM   17  C23   D T   1      24.659  -3.499 -30.729  1.00  9.87     0.005 C 
ENDBRANCH  12  15
ENDBRANCH   1   7
BRANCH   2  18
HETATM   18  C12   D T   1      28.236  -2.242 -26.736  1.00 13.09     0.069 A 
HETATM   19  C13   D T   1      27.329  -1.985 -25.692  1.00 12.86     0.019 A 
HETATM   20  C15   D T   1      26.614  -2.982 -25.011  1.00 13.97     0.019 A 
HETATM   21  C16   D T   1      26.821  -4.316 -25.430  1.00 13.12     0.060 A 
HETATM   22  C17   D T   1      27.710  -4.587 -26.482  1.00 12.73     0.019 A 
HETATM   23  N19   D T   1      26.288  -5.488 -24.987  1.00 12.86    -0.324 N 
HETATM   24  C14   D T   1      28.419  -3.574 -27.142  1.00 13.51     0.019 A 
HETATM   25  C18   D T   1      27.697  -5.976 -26.642  1.00 14.21     0.020 A 
HETATM   26  C20   D T   1      26.808  -6.507 -25.714  1.00 12.85     0.076 A 
HETATM   27  C21   D T   1      25.317  -5.660 -23.906  1.00 13.42     0.131 C 
ENDBRANCH   2  18
TORSDOF 3
ENDMDL
MODEL 3
REMARK VINA RESULT:    -8.128      2.722      5.476
REMARK INTER + INTRA:         -10.278
REMARK INTER:                 -10.203
REMARK INTRA:                  -0.075
REMARK UNBOUND:                -0.724
REMARK  3 active torsions:
REMARK  status: ('A' for Active; 'I' for Inactive)
REMARK    1  A    between atoms: C4_1  and  C7_4 
REMARK    2  A    between atoms: C22_10  and  C2_13 
REMARK    3  A    between atoms: N8_15  and  C12_19 
ROOT
HETATM    1  C7    D T   1      25.665  -0.231 -29.290  1.00 10.24     0.174 A 
HETATM    2  N8    D T   1      25.206  -1.407 -28.781  1.00 12.35    -0.253 N 
HETATM    3  C9    D T   1      23.989  -1.557 -29.345  1.00 12.30     0.305 A 
HETATM    4  N10   D T   1      23.732  -0.544 -30.199  1.00  9.49    -0.101 NA
HETATM    5  N11   D T   1      24.785   0.280 -30.177  1.00  9.08    -0.126 NA
HETATM    6  O27   D T   1      23.212  -2.587 -29.051  1.00 11.66    -0.147 OA
ENDROOT
BRANCH   1   7
HETATM    7  C4    D T   1      27.013   0.290 -28.962  1.00 10.31     0.061 A 
HETATM    8  C5    D T   1      27.546   1.461 -29.507  1.00 10.61     0.136 A 
HETATM    9  C6    D T   1      28.861   1.870 -29.222  1.00 10.34     0.054 A 
HETATM   10  O26   D T   1      26.760   2.185 -30.315  1.00 10.14    -0.190 OA
HETATM   11  C1    D T   1      29.702   1.128 -28.368  1.00  9.23     0.129 A 
HETATM   12  C2    D T   1      29.162  -0.045 -27.832  1.00  9.69     0.003 A 
HETATM   13  O25   D T   1      30.946   1.539 -28.129  1.00  9.75    -0.190 OA
HETATM   14  C3    D T   1      27.863  -0.442 -28.123  1.00 10.15     0.003 A 
BRANCH  12  15
HETATM   15  C22   D T   1      29.983  -0.900 -26.875  1.00  9.53     0.024 C 
HETATM   16  C24   D T   1      30.347  -2.332 -27.338  1.00 10.85     0.005 C 
HETATM   17  C23   D T   1      29.195  -0.950 -25.545  1.00  9.87     0.005 C 
ENDBRANCH  12  15
ENDBRANCH   1   7
BRANCH   2  18
HETATM   18  C12   D T   1      25.824  -2.221 -27.871  1.00 13.09     0.069 A 
HETATM   19  C13   D T   1      25.670  -2.009 -26.489  1.00 12.86     0.019 A 
HETATM   20  C15   D T   1      26.246  -2.821 -25.502  1.00 13.97     0.019 A 
HETATM   21  C16   D T   1      27.011  -3.923 -25.947  1.00 13.12     0.060 A 
HETATM   22  C17   D T   1      27.161  -4.158 -27.324  1.00 12.73     0.019 A 
HETATM   23  N19   D T   1      27.685  -4.885 -25.258  1.00 12.86    -0.324 N 
HETATM   24  C14   D T   1      26.581  -3.327 -28.292  1.00 13.51     0.019 A 
HETATM   25  C18   D T   1      27.967  -5.295 -27.429  1.00 14.21     0.020 A 
HETATM   26  C20   D T   1      28.270  -5.728 -26.143  1.00 12.85     0.076 A 
HETATM   27  C21   D T   1      27.787  -5.016 -23.804  1.00 13.42     0.131 C 
ENDBRANCH   2  18
TORSDOF 3
ENDMDL
MODEL 4
REMARK VINA RESULT:    -8.074      2.721      5.120
REMARK INTER + INTRA:         -10.215
REMARK INTER:                  -9.551
REMARK INTRA:                  -0.664
REMARK UNBOUND:                -0.724
REMARK  3 active torsions:
REMARK  status: ('A' for Active; 'I' for Inactive)
REMARK    1  A    between atoms: C4_1  and  C7_4 
REMARK    2  A    between atoms: C22_10  and  C2_13 
REMARK    3  A    between atoms: N8_15  and  C12_19 
ROOT
HETATM    1  C7    D T   1      27.395   0.550 -29.000  1.00 10.24     0.174 A 
HETATM    2  N8    D T   1      28.239  -0.004 -28.087  1.00 12.35    -0.253 N 
HETATM    3  C9    D T   1      29.371   0.722 -28.202  1.00 12.30     0.305 A 
HETATM    4  N10   D T   1      29.214   1.708 -29.110  1.00  9.49    -0.101 NA
HETATM    5  N11   D T   1      27.974   1.612 -29.601  1.00  9.08    -0.126 NA
HETATM    6  O27   D T   1      30.449   0.444 -27.486  1.00 11.66    -0.147 OA
ENDROOT
BRANCH   1   7
HETATM    7  C4    D T   1      26.001   0.075 -29.166  1.00 10.31     0.061 A 
HETATM    8  C5    D T   1      24.900   0.928 -29.284  1.00 10.61     0.136 A 
HETATM    9  C6    D T   1      23.589   0.425 -29.361  1.00 10.34     0.054 A 
HETATM   10  O26   D T   1      25.135   2.246 -29.320  1.00 10.14    -0.190 OA
HETATM   11  C1    D T   1      23.319  -0.957 -29.332  1.00  9.23     0.129 A 
HETATM   12  C2    D T   1      24.427  -1.802 -29.209  1.00  9.69     0.003 A 
HETATM   13  O25   D T   1      22.065  -1.398 -29.396  1.00  9.75    -0.190 OA
HETATM   14  C3    D T   1      25.718  -1.296 -29.129  1.00 10.15     0.003 A 
BRANCH  12  15
HETATM   15  C22   D T   1      24.241  -3.315 -29.199  1.00  9.53     0.024 C 
HETATM   16  C24   D T   1      24.942  -4.107 -28.067  1.00 10.85     0.005 C 
HETATM   17  C23   D T   1      24.711  -3.823 -30.581  1.00  9.87     0.005 C 
ENDBRANCH  12  15
ENDBRANCH   1   7
BRANCH   2  18
HETATM   18  C12   D T   1      28.001  -1.080 -27.276  1.00 13.09     0.069 A 
HETATM   19  C13   D T   1      28.470  -2.361 -27.618  1.00 12.86     0.019 A 
HETATM   20  C15   D T   1      28.292  -3.500 -26.820  1.00 13.97     0.019 A 
HETATM   21  C16   D T   1      27.612  -3.322 -25.594  1.00 13.12     0.060 A 
HETATM   22  C17   D T   1      27.151  -2.046 -25.231  1.00 12.73     0.019 A 
HETATM   23  N19   D T   1      27.286  -4.206 -24.612  1.00 12.86    -0.324 N 
HETATM   24  C14   D T   1      27.336  -0.923 -26.049  1.00 13.51     0.019 A 
HETATM   25  C18   D T   1      26.524  -2.207 -23.992  1.00 14.21     0.020 A 
HETATM   26  C20   D T   1      26.627  -3.546 -23.630  1.00 12.85     0.076 A 
HETATM   27  C21   D T   1      27.578  -5.640 -24.587  1.00 13.42     0.131 C 
ENDBRANCH   2  18
TORSDOF 3
ENDMDL
MODEL 5
REMARK VINA RESULT:    -8.053      2.423      5.615
REMARK INTER + INTRA:         -10.190
REMARK INTER:                 -10.893
REMARK INTRA:                   0.703
REMARK UNBOUND:                -0.724
REMARK  3 active torsions:
REMARK  status: ('A' for Active; 'I' for Inactive)
REMARK    1  A    between atoms: C4_1  and  C7_4 
REMARK    2  A    between atoms: C22_10  and  C2_13 
REMARK    3  A    between atoms: N8_15  and  C12_19 
ROOT
HETATM    1  C7    D T   1      29.383  -1.831 -26.876  1.00 10.24     0.174 A 
HETATM    2  N8    D T   1      28.694  -0.909 -27.602  1.00 12.35    -0.253 N 
HETATM    3  C9    D T   1      29.599   0.063 -27.844  1.00 12.30     0.305 A 
HETATM    4  N10   D T   1      30.802  -0.269 -27.331  1.00  9.49    -0.101 NA
HETATM    5  N11   D T   1      30.675  -1.460 -26.737  1.00  9.08    -0.126 NA
HETATM    6  O27   D T   1      29.274   1.164 -28.503  1.00 11.66    -0.147 OA
ENDROOT
BRANCH   1   7
HETATM    7  C4    D T   1      28.764  -3.105 -26.440  1.00 10.31     0.061 A 
HETATM    8  C5    D T   1      28.726  -4.259 -27.227  1.00 10.61     0.136 A 
HETATM    9  C6    D T   1      28.056  -5.418 -26.796  1.00 10.34     0.054 A 
HETATM   10  O26   D T   1      29.348  -4.223 -28.413  1.00 10.14    -0.190 OA
HETATM   11  C1    D T   1      27.402  -5.480 -25.550  1.00  9.23     0.129 A 
HETATM   12  C2    D T   1      27.442  -4.319 -24.771  1.00  9.69     0.003 A 
HETATM   13  O25   D T   1      26.769  -6.591 -25.178  1.00  9.75    -0.190 OA
HETATM   14  C3    D T   1      28.102  -3.177 -25.208  1.00 10.15     0.003 A 
BRANCH  12  15
HETATM   15  C22   D T   1      26.789  -4.296 -23.395  1.00  9.53     0.024 C 
HETATM   16  C24   D T   1      25.466  -5.082 -23.224  1.00 10.85     0.005 C 
HETATM   17  C23   D T   1      26.580  -2.807 -23.034  1.00  9.87     0.005 C 
ENDBRANCH  12  15
ENDBRANCH   1   7
BRANCH   2  18
HETATM   18  C12   D T   1      27.374  -0.946 -27.960  1.00 13.09     0.069 A 
HETATM   19  C13   D T   1      26.613   0.235 -28.039  1.00 12.86     0.019 A 
HETATM   20  C15   D T   1      25.267   0.275 -28.431  1.00 13.97     0.019 A 
HETATM   21  C16   D T   1      24.665  -0.956 -28.778  1.00 13.12     0.060 A 
HETATM   22  C17   D T   1      25.416  -2.141 -28.719  1.00 12.73     0.019 A 
HETATM   23  N19   D T   1      23.403  -1.252 -29.194  1.00 12.86    -0.324 N 
HETATM   24  C14   D T   1      26.759  -2.157 -28.318  1.00 13.51     0.019 A 
HETATM   25  C18   D T   1      24.544  -3.163 -29.106  1.00 14.21     0.020 A 
HETATM   26  C20   D T   1      23.312  -2.588 -29.400  1.00 12.85     0.076 A 
HETATM   27  C21   D T   1      22.299  -0.311 -29.392  1.00 13.42     0.131 C 
ENDBRANCH   2  18
TORSDOF 3
ENDMDL
MODEL 6
REMARK VINA RESULT:    -7.537      1.762      2.870
REMARK INTER + INTRA:          -9.584
REMARK INTER:                 -10.386
REMARK INTRA:                   0.802
REMARK UNBOUND:                -0.724
REMARK  3 active torsions:
REMARK  status: ('A' for Active; 'I' for Inactive)
REMARK    1  A    between atoms: C4_1  and  C7_4 
REMARK    2  A    between atoms: C22_10  and  C2_13 
REMARK    3  A    between atoms: N8_15  and  C12_19 
ROOT
HETATM    1  C7    D T   1      25.533  -1.932 -28.127  1.00 10.24     0.174 A 
HETATM    2  N8    D T   1      26.016  -0.738 -28.566  1.00 12.35    -0.253 N 
HETATM    3  C9    D T   1      24.983  -0.193 -29.243  1.00 12.30     0.305 A 
HETATM    4  N10   D T   1      23.899  -0.996 -29.182  1.00  9.49    -0.101 NA
HETATM    5  N11   D T   1      24.236  -2.077 -28.473  1.00  9.08    -0.126 NA
HETATM    6  O27   D T   1      25.095   0.974 -29.856  1.00 11.66    -0.147 OA
ENDROOT
BRANCH   1   7
HETATM    7  C4    D T   1      26.344  -2.841 -27.283  1.00 10.31     0.061 A 
HETATM    8  C5    D T   1      27.196  -3.823 -27.796  1.00 10.61     0.136 A 
HETATM    9  C6    D T   1      27.884  -4.711 -26.950  1.00 10.34     0.054 A 
HETATM   10  O26   D T   1      27.335  -3.892 -29.126  1.00 10.14    -0.190 OA
HETATM   11  C1    D T   1      27.758  -4.651 -25.548  1.00  9.23     0.129 A 
HETATM   12  C2    D T   1      26.900  -3.669 -25.044  1.00  9.69     0.003 A 
HETATM   13  O25   D T   1      28.416  -5.515 -24.778  1.00  9.75    -0.190 OA
HETATM   14  C3    D T   1      26.221  -2.799 -25.889  1.00 10.15     0.003 A 
BRANCH  12  15
HETATM   15  C22   D T   1      26.720  -3.505 -23.540  1.00  9.53     0.024 C 
HETATM   16  C24   D T   1      25.809  -4.528 -22.819  1.00 10.85     0.005 C 
HETATM   17  C23   D T   1      26.196  -2.067 -23.316  1.00  9.87     0.005 C 
ENDBRANCH  12  15
ENDBRANCH   1   7
BRANCH   2  18
HETATM   18  C12   D T   1      27.276  -0.233 -28.394  1.00 13.09     0.069 A 
HETATM   19  C13   D T   1      27.614   1.047 -28.870  1.00 12.86     0.019 A 
HETATM   20  C15   D T   1      28.874   1.639 -28.700  1.00 13.97     0.019 A 
HETATM   21  C16   D T   1      29.841   0.892 -27.990  1.00 13.12     0.060 A 
HETATM   22  C17   D T   1      29.515  -0.380 -27.495  1.00 12.73     0.019 A 
HETATM   23  N19   D T   1      31.130   1.179 -27.659  1.00 12.86    -0.324 N 
HETATM   24  C14   D T   1      28.250  -0.954 -27.683  1.00 13.51     0.019 A 
HETATM   25  C18   D T   1      30.670  -0.850 -26.864  1.00 14.21     0.020 A 
HETATM   26  C20   D T   1      31.648   0.132 -26.972  1.00 12.85     0.076 A 
HETATM   27  C21   D T   1      31.870   2.401 -27.978  1.00 13.42     0.131 C 
ENDBRANCH   2  18
TORSDOF 3
ENDMDL
MODEL 7
REMARK VINA RESULT:    -7.520      2.818      5.028
REMARK INTER + INTRA:          -9.563
REMARK INTER:                  -9.262
REMARK INTRA:                  -0.301
REMARK UNBOUND:                -0.724
REMARK  3 active torsions:
REMARK  status: ('A' for Active; 'I' for Inactive)
REMARK    1  A    between atoms: C4_1  and  C7_4 
REMARK    2  A    between atoms: C22_10  and  C2_13 
REMARK    3  A    between atoms: N8_15  and  C12_19 
ROOT
HETATM    1  C7    D T   1      26.276  -3.157 -25.859  1.00 10.24     0.174 A 
HETATM    2  N8    D T   1      27.466  -2.625 -25.466  1.00 12.35    -0.253 N 
HETATM    3  C9    D T   1      27.635  -3.089 -24.210  1.00 12.30     0.305 A 
HETATM    4  N10   D T   1      26.618  -3.907 -23.864  1.00  9.49    -0.101 NA
HETATM    5  N11   D T   1      25.773  -3.962 -24.898  1.00  9.08    -0.126 NA
HETATM    6  O27   D T   1      28.683  -2.744 -23.479  1.00 11.66    -0.147 OA
ENDROOT
BRANCH   1   7
HETATM    7  C4    D T   1      25.732  -2.935 -27.219  1.00 10.31     0.061 A 
HETATM    8  C5    D T   1      25.802  -3.880 -28.247  1.00 10.61     0.136 A 
HETATM    9  C6    D T   1      25.339  -3.590 -29.543  1.00 10.34     0.054 A 
HETATM   10  O26   D T   1      26.329  -5.076 -27.956  1.00 10.14    -0.190 OA
HETATM   11  C1    D T   1      24.774  -2.341 -29.869  1.00  9.23     0.129 A 
HETATM   12  C2    D T   1      24.712  -1.400 -28.836  1.00  9.69     0.003 A 
HETATM   13  O25   D T   1      24.356  -2.096 -31.109  1.00  9.75    -0.190 OA
HETATM   14  C3    D T   1      25.177  -1.695 -27.559  1.00 10.15     0.003 A 
BRANCH  12  15
HETATM   15  C22   D T   1      24.092  -0.030 -29.081  1.00  9.53     0.024 C 
HETATM   16  C24   D T   1      22.644   0.004 -29.631  1.00 10.85     0.005 C 
HETATM   17  C23   D T   1      25.048   0.719 -30.037  1.00  9.87     0.005 C 
ENDBRANCH  12  15
ENDBRANCH   1   7
BRANCH   2  18
HETATM   18  C12   D T   1      28.276  -1.779 -26.173  1.00 13.09     0.069 A 
HETATM   19  C13   D T   1      29.562  -2.180 -26.578  1.00 12.86     0.019 A 
HETATM   20  C15   D T   1      30.432  -1.379 -27.332  1.00 13.97     0.019 A 
HETATM   21  C16   D T   1      29.959  -0.102 -27.710  1.00 13.12     0.060 A 
HETATM   22  C17   D T   1      28.671   0.307 -27.327  1.00 12.73     0.019 A 
HETATM   23  N19   D T   1      30.543   0.894 -28.430  1.00 12.86    -0.324 N 
HETATM   24  C14   D T   1      27.822  -0.510 -26.567  1.00 13.51     0.019 A 
HETATM   25  C18   D T   1      28.515   1.598 -27.839  1.00 14.21     0.020 A 
HETATM   26  C20   D T   1      29.679   1.934 -28.520  1.00 12.85     0.076 A 
HETATM   27  C21   D T   1      31.882   0.883 -29.022  1.00 13.42     0.131 C 
ENDBRANCH   2  18
TORSDOF 3
ENDMDL
MODEL 8
REMARK VINA RESULT:    -7.197      2.350      5.448
REMARK INTER + INTRA:          -9.183
REMARK INTER:                  -8.256
REMARK INTRA:                  -0.927
REMARK UNBOUND:                -0.724
REMARK  3 active torsions:
REMARK  status: ('A' for Active; 'I' for Inactive)
REMARK    1  A    between atoms: C4_1  and  C7_4 
REMARK    2  A    between atoms: C22_10  and  C2_13 
REMARK    3  A    between atoms: N8_15  and  C12_19 
ROOT
HETATM    1  C7    D T   1      28.850  -2.418 -26.219  1.00 10.24     0.174 A 
HETATM    2  N8    D T   1      28.447  -1.554 -27.191  1.00 12.35    -0.253 N 
HETATM    3  C9    D T   1      29.570  -0.880 -27.518  1.00 12.30     0.305 A 
HETATM    4  N10   D T   1      30.624  -1.341 -26.813  1.00  9.49    -0.101 NA
HETATM    5  N11   D T   1      30.180  -2.313 -26.010  1.00  9.08    -0.126 NA
HETATM    6  O27   D T   1      29.558   0.089 -28.419  1.00 11.66    -0.147 OA
ENDROOT
BRANCH   1   7
HETATM    7  C4    D T   1      27.920  -3.397 -25.609  1.00 10.31     0.061 A 
HETATM    8  C5    D T   1      27.079  -3.102 -24.532  1.00 10.61     0.136 A 
HETATM    9  C6    D T   1      26.273  -4.090 -23.940  1.00 10.34     0.054 A 
HETATM   10  O26   D T   1      27.070  -1.842 -24.078  1.00 10.14    -0.190 OA
HETATM   11  C1    D T   1      26.262  -5.420 -24.406  1.00  9.23     0.129 A 
HETATM   12  C2    D T   1      27.109  -5.707 -25.481  1.00  9.69     0.003 A 
HETATM   13  O25   D T   1      25.493  -6.332 -23.815  1.00  9.75    -0.190 OA
HETATM   14  C3    D T   1      27.907  -4.724 -26.056  1.00 10.15     0.003 A 
BRANCH  12  15
HETATM   15  C22   D T   1      27.147  -7.109 -26.076  1.00  9.53     0.024 C 
HETATM   16  C24   D T   1      28.285  -8.048 -25.604  1.00 10.85     0.005 C 
HETATM   17  C23   D T   1      27.197  -6.933 -27.611  1.00  9.87     0.005 C 
ENDBRANCH  12  15
ENDBRANCH   1   7
BRANCH   2  18
HETATM   18  C12   D T   1      27.183  -1.384 -27.685  1.00 13.09     0.069 A 
HETATM   19  C13   D T   1      26.546  -0.131 -27.625  1.00 12.86     0.019 A 
HETATM   20  C15   D T   1      25.266   0.123 -28.140  1.00 13.97     0.019 A 
HETATM   21  C16   D T   1      24.603  -0.957 -28.766  1.00 13.12     0.060 A 
HETATM   22  C17   D T   1      25.232  -2.210 -28.848  1.00 12.73     0.019 A 
HETATM   23  N19   D T   1      23.379  -1.037 -29.358  1.00 12.86    -0.324 N 
HETATM   24  C14   D T   1      26.509  -2.441 -28.320  1.00 13.51     0.019 A 
HETATM   25  C18   D T   1      24.325  -3.047 -29.503  1.00 14.21     0.020 A 
HETATM   26  C20   D T   1      23.195  -2.299 -29.813  1.00 12.85     0.076 A 
HETATM   27  C21   D T   1      22.396   0.039 -29.494  1.00 13.42     0.131 C 
ENDBRANCH   2  18
TORSDOF 3
ENDMDL
MODEL 9
REMARK VINA RESULT:    -6.913      2.149      5.303
REMARK INTER + INTRA:          -8.850
REMARK INTER:                  -8.294
REMARK INTRA:                  -0.556
REMARK UNBOUND:                -0.724
REMARK  3 active torsions:
REMARK  status: ('A' for Active; 'I' for Inactive)
REMARK    1  A    between atoms: C4_1  and  C7_4 
REMARK    2  A    between atoms: C22_10  and  C2_13 
REMARK    3  A    between atoms: N8_15  and  C12_19 
ROOT
HETATM    1  C7    D T   1      28.373  -0.312 -27.123  1.00 10.24     0.174 A 
HETATM    2  N8    D T   1      27.677   0.147 -28.200  1.00 12.35    -0.253 N 
HETATM    3  C9    D T   1      28.579   0.880 -28.886  1.00 12.30     0.305 A 
HETATM    4  N10   D T   1      29.786   0.835 -28.284  1.00  9.49    -0.101 NA
HETATM    5  N11   D T   1      29.664   0.078 -27.189  1.00  9.08    -0.126 NA
HETATM    6  O27   D T   1      28.248   1.527 -29.992  1.00 11.66    -0.147 OA
ENDROOT
BRANCH   1   7
HETATM    7  C4    D T   1      27.759  -1.216 -26.123  1.00 10.31     0.061 A 
HETATM    8  C5    D T   1      26.868  -0.789 -25.134  1.00 10.61     0.136 A 
HETATM    9  C6    D T   1      26.374  -1.675 -24.160  1.00 10.34     0.054 A 
HETATM   10  O26   D T   1      26.500   0.499 -25.143  1.00 10.14    -0.190 OA
HETATM   11  C1    D T   1      26.741  -3.034 -24.136  1.00  9.23     0.129 A 
HETATM   12  C2    D T   1      27.636  -3.452 -25.126  1.00  9.69     0.003 A 
HETATM   13  O25   D T   1      26.262  -3.843 -23.193  1.00  9.75    -0.190 OA
HETATM   14  C3    D T   1      28.123  -2.568 -26.081  1.00 10.15     0.003 A 
BRANCH  12  15
HETATM   15  C22   D T   1      28.071  -4.910 -25.202  1.00  9.53     0.024 C 
HETATM   16  C24   D T   1      29.518  -5.195 -25.677  1.00 10.85     0.005 C 
HETATM   17  C23   D T   1      27.053  -5.624 -26.121  1.00  9.87     0.005 C 
ENDBRANCH  12  15
ENDBRANCH   1   7
BRANCH   2  18
HETATM   18  C12   D T   1      26.355  -0.057 -28.487  1.00 13.09     0.069 A 
HETATM   19  C13   D T   1      25.512   1.021 -28.810  1.00 12.86     0.019 A 
HETATM   20  C15   D T   1      24.157   0.883 -29.147  1.00 13.97     0.019 A 
HETATM   21  C16   D T   1      23.636  -0.430 -29.173  1.00 13.12     0.060 A 
HETATM   22  C17   D T   1      24.469  -1.518 -28.869  1.00 12.73     0.019 A 
HETATM   23  N19   D T   1      22.388  -0.895 -29.459  1.00 12.86    -0.324 N 
HETATM   24  C14   D T   1      25.819  -1.354 -28.529  1.00 13.51     0.019 A 
HETATM   25  C18   D T   1      23.663  -2.655 -28.973  1.00 14.21     0.020 A 
HETATM   26  C20   D T   1      22.387  -2.244 -29.344  1.00 12.85     0.076 A 
HETATM   27  C21   D T   1      21.216  -0.099 -29.828  1.00 13.42     0.131 C 
ENDBRANCH   2  18
TORSDOF 3
ENDMDL
