MODEL 1
REMARK VINA RESULT:    -7.662      0.000      0.000
REMARK INTER + INTRA:         -13.022
REMARK INTER:                 -11.693
REMARK INTRA:                  -1.329
REMARK UNBOUND:                -1.329
REMARK  9 active torsions:
REMARK  status: ('A' for Active; 'I' for Inactive)
REMARK    1  A    between atoms: O02_2  and  CAX_24 
REMARK    2  A    between atoms: CAC_3  and  CAM_13 
REMARK    3  A    between atoms: CAC_3  and  NBH_34 
REMARK    4  A    between atoms: CAM_13  and  CAN_14 
REMARK    5  A    between atoms: CAN_14  and  OAW_23 
REMARK    6  A    between atoms: NAU_21  and  CBB_28 
REMARK    7  A    between atoms: NAU_21  and  CBE_31 
REMARK    8  A    between atoms: OAV_22  and  CBC_29 
REMARK    9  A    between atoms: OAW_23  and  CBD_30 
ROOT
HETATM    1  NAD   D T 601       0.843  14.330   0.425  1.00 32.70    -0.191 NA
HETATM    2  CAG   D T 601       1.544  14.770  -0.342  1.00 31.24     0.100 C 
HETATM    3  CAH   D T 601       2.261  16.758  -1.810  1.00 28.83     0.163 A 
HETATM    4  CAK   D T 601       5.131  17.346  -4.356  1.00 26.08     0.098 A 
HETATM    5  CAL   D T 601       5.668  14.480  -3.543  1.00 26.85     0.082 A 
HETATM    6  NAT   D T 601       3.121  17.381  -2.775  1.00 34.24    -0.269 NA
HETATM    7  CBA   D T 601       2.470  15.346  -1.363  1.00 30.42     0.088 A 
HETATM    8  CBC   D T 601       6.549  15.168  -4.536  1.00 23.70     0.095 A 
HETATM    9  CBD   D T 601       6.269  16.578  -4.937  1.00 25.38     0.096 A 
HETATM   10  CBE   D T 601       3.630  14.541  -1.925  1.00 37.17     0.086 A 
HETATM   11  CBF   D T 601       4.231  16.671  -3.347  1.00 28.08     0.059 A 
HETATM   12  CBG   D T 601       4.518  15.237  -2.951  1.00 29.83     0.016 A 
ENDROOT
BRANCH  10  13
HETATM   13  NAU   D T 601       3.930  13.148  -1.566  1.00 42.81    -0.249 NA
BRANCH  13  14
HETATM   14  CBB   D T 601       4.697  12.891  -0.363  1.00 45.16     0.072 A 
HETATM   15  CAJ   D T 601       6.103  13.410  -0.260  1.00 44.00     0.098 A 
HETATM   16  CAX   D T 601       6.906  13.127   0.969  1.00 48.51     0.085 A 
HETATM   17  CAY   D T 601       6.296  12.330   2.089  1.00 53.02     0.059 A 
HETATM   18 CL1    D T 601       7.220  12.003   3.511  1.00 53.68    -0.085 Cl
HETATM   19  CAI   D T 601       4.899  11.817   1.984  1.00 46.30     0.079 A 
HETATM   20  CAZ   D T 601       4.091  12.091   0.759  1.00 49.16     0.055 A 
HETATM   21 CL2    D T 601       2.467  11.493   0.624  1.00 67.83    -0.085 Cl
BRANCH  16  22
HETATM   22  O02   D T 601       8.193  13.606   1.071  1.00 43.57    -0.331 OA
HETATM   23  C01   D T 601       8.597  14.689   0.303  1.00 43.07     0.181 C 
ENDBRANCH  16  22
ENDBRANCH  13  14
ENDBRANCH  10  13
BRANCH   8  24
HETATM   24  OAV   D T 601       7.601  14.444  -5.050  1.00 30.98    -0.330 OA
HETATM   25  CAA   D T 601       8.896  14.654  -4.580  1.00 22.69     0.181 C 
ENDBRANCH   8  24
BRANCH   9  26
HETATM   26  OAW   D T 601       7.056  17.253  -5.860  1.00 39.27    -0.333 OA
BRANCH  26  27
HETATM   27  CAN   D T 601       6.498  17.664  -7.074  1.00 36.89     0.150 C 
BRANCH  27  28
HETATM   28  CAM   D T 601       7.603  18.357  -7.870  1.00 37.41     0.056 C 
BRANCH  28  29
HETATM   29  CAC   D T 601       8.288  17.330  -8.759  1.00 48.04     0.100 C 
BRANCH  29  30
HETATM   30  NBH   D T 601       9.673  17.099  -8.239  1.00 56.69    -0.365 N 
HETATM   31  CAP   D T 601      10.163  15.802  -7.774  1.00 58.94     0.121 C 
HETATM   32  CAR   D T 601      11.699  15.808  -7.857  1.00 60.67     0.121 C 
HETATM   33  NBI   D T 601      12.209  16.932  -7.118  1.00 64.46    -0.364 N 
HETATM   34  CAO   D T 601      12.750  16.683  -5.789  1.00 72.62     0.121 C 
HETATM   35  CAS   D T 601      11.686  18.201  -7.524  1.00 59.00     0.121 C 
HETATM   36  CAQ   D T 601      10.195  18.165  -7.423  1.00 59.44     0.121 C 
ENDBRANCH  29  30
ENDBRANCH  28  29
ENDBRANCH  27  28
ENDBRANCH  26  27
ENDBRANCH   9  26
TORSDOF 9
ENDMDL
MODEL 2
REMARK VINA RESULT:    -7.620      4.018      8.905
REMARK INTER + INTRA:         -12.959
REMARK INTER:                 -11.589
REMARK INTRA:                  -1.370
REMARK UNBOUND:                -1.329
REMARK  9 active torsions:
REMARK  status: ('A' for Active; 'I' for Inactive)
REMARK    1  A    between atoms: O02_2  and  CAX_24 
REMARK    2  A    between atoms: CAC_3  and  CAM_13 
REMARK    3  A    between atoms: CAC_3  and  NBH_34 
REMARK    4  A    between atoms: CAM_13  and  CAN_14 
REMARK    5  A    between atoms: CAN_14  and  OAW_23 
REMARK    6  A    between atoms: NAU_21  and  CBB_28 
REMARK    7  A    between atoms: NAU_21  and  CBE_31 
REMARK    8  A    between atoms: OAV_22  and  CBC_29 
REMARK    9  A    between atoms: OAW_23  and  CBD_30 
ROOT
HETATM    1  NAD   D T 601       2.187  18.240  -3.404  1.00 32.70    -0.191 NA
HETATM    2  CAG   D T 601       2.528  17.392  -2.742  1.00 31.24     0.100 C 
HETATM    3  CAH   D T 601       1.969  15.296  -1.357  1.00 28.83     0.163 A 
HETATM    4  CAK   D T 601       4.071  12.797   0.739  1.00 26.08     0.098 A 
HETATM    5  CAL   D T 601       6.225  14.702  -0.206  1.00 26.85     0.082 A 
HETATM    6  NAT   D T 601       2.335  14.191  -0.520  1.00 34.24    -0.269 NA
HETATM    7  CBA   D T 601       2.982  16.274  -1.861  1.00 30.42     0.088 A 
HETATM    8  CBC   D T 601       6.569  13.531   0.657  1.00 23.70     0.095 A 
HETATM    9  CBD   D T 601       5.498  12.604   1.126  1.00 25.38     0.096 A 
HETATM   10  CBE   D T 601       4.446  16.097  -1.497  1.00 37.17     0.086 A 
HETATM   11  CBF   D T 601       3.702  13.973  -0.137  1.00 28.08     0.059 A 
HETATM   12  CBG   D T 601       4.795  14.912  -0.602  1.00 29.83     0.016 A 
ENDROOT
BRANCH  10  13
HETATM   13  NAU   D T 601       5.527  16.995  -1.926  1.00 42.81    -0.249 NA
BRANCH  13  14
HETATM   14  CBB   D T 601       6.236  16.691  -3.153  1.00 45.16     0.072 A 
HETATM   15  CAJ   D T 601       5.456  16.407  -4.406  1.00 44.00     0.098 A 
HETATM   16  CAX   D T 601       6.182  16.070  -5.668  1.00 48.51     0.085 A 
HETATM   17  CAY   D T 601       7.685  16.023  -5.671  1.00 53.02     0.059 A 
HETATM   18 CL1    D T 601       8.528  15.635  -7.128  1.00 53.68    -0.085 Cl
HETATM   19  CAI   D T 601       8.458  16.306  -4.426  1.00 46.30     0.079 A 
HETATM   20  CAZ   D T 601       7.740  16.640  -3.160  1.00 49.16     0.055 A 
HETATM   21 CL2    D T 601       8.629  16.965  -1.704  1.00 67.83    -0.085 Cl
BRANCH  16  22
HETATM   22  O02   D T 601       5.472  15.815  -6.819  1.00 43.57    -0.331 OA
HETATM   23  C01   D T 601       4.570  16.753  -7.305  1.00 43.07     0.181 C 
ENDBRANCH  16  22
ENDBRANCH  13  14
ENDBRANCH  10  13
BRANCH   8  24
HETATM   24  OAV   D T 601       7.895  13.365   0.992  1.00 30.98    -0.330 OA
HETATM   25  CAA   D T 601       8.832  14.336   0.648  1.00 22.69     0.181 C 
ENDBRANCH   8  24
BRANCH   9  26
HETATM   26  OAW   D T 601       5.771  11.509   1.934  1.00 39.27    -0.333 OA
BRANCH  26  27
HETATM   27  CAN   D T 601       5.946  11.692   3.309  1.00 36.89     0.150 C 
BRANCH  27  28
HETATM   28  CAM   D T 601       6.851  10.564   3.805  1.00 37.41     0.056 C 
BRANCH  28  29
HETATM   29  CAC   D T 601       7.881  10.251   2.729  1.00 48.04     0.100 C 
BRANCH  29  30
HETATM   30  NBH   D T 601       9.219  10.097   3.383  1.00 56.69    -0.365 N 
HETATM   31  CAP   D T 601       9.405   9.682   4.773  1.00 58.94     0.121 C 
HETATM   32  CAR   D T 601      10.823   9.105   4.918  1.00 60.67     0.121 C 
HETATM   33  NBI   D T 601      11.780  10.077   4.460  1.00 64.46    -0.364 N 
HETATM   34  CAO   D T 601      12.497  10.851   5.463  1.00 72.62     0.121 C 
HETATM   35  CAS   D T 601      11.567  10.539   3.121  1.00 59.00     0.121 C 
HETATM   36  CAQ   D T 601      10.187  11.100   3.015  1.00 59.44     0.121 C 
ENDBRANCH  29  30
ENDBRANCH  28  29
ENDBRANCH  27  28
ENDBRANCH  26  27
ENDBRANCH   9  26
TORSDOF 9
ENDMDL
MODEL 3
REMARK VINA RESULT:    -7.608      2.509      4.308
REMARK INTER + INTRA:         -12.940
REMARK INTER:                 -10.953
REMARK INTRA:                  -1.987
REMARK UNBOUND:                -1.329
REMARK  9 active torsions:
REMARK  status: ('A' for Active; 'I' for Inactive)
REMARK    1  A    between atoms: O02_2  and  CAX_24 
REMARK    2  A    between atoms: CAC_3  and  CAM_13 
REMARK    3  A    between atoms: CAC_3  and  NBH_34 
REMARK    4  A    between atoms: CAM_13  and  CAN_14 
REMARK    5  A    between atoms: CAN_14  and  OAW_23 
REMARK    6  A    between atoms: NAU_21  and  CBB_28 
REMARK    7  A    between atoms: NAU_21  and  CBE_31 
REMARK    8  A    between atoms: OAV_22  and  CBC_29 
REMARK    9  A    between atoms: OAW_23  and  CBD_30 
ROOT
HETATM    1  NAD   D T 601       1.984  19.200  -2.884  1.00 32.70    -0.191 NA
HETATM    2  CAG   D T 601       2.809  18.775  -3.526  1.00 31.24     0.100 C 
HETATM    3  CAH   D T 601       3.804  18.340  -5.859  1.00 28.83     0.163 A 
HETATM    4  CAK   D T 601       7.054  16.652  -7.143  1.00 26.08     0.098 A 
HETATM    5  CAL   D T 601       7.376  16.308  -4.154  1.00 26.85     0.082 A 
HETATM    6  NAT   D T 601       4.822  17.831  -6.732  1.00 34.24    -0.269 NA
HETATM    7  CBA   D T 601       3.900  18.205  -4.373  1.00 30.42     0.088 A 
HETATM    8  CBC   D T 601       8.422  15.803  -5.095  1.00 23.70     0.095 A 
HETATM    9  CBD   D T 601       8.247  15.968  -6.568  1.00 25.38     0.096 A 
HETATM   10  CBE   D T 601       5.111  17.527  -3.754  1.00 37.17     0.086 A 
HETATM   11  CBF   D T 601       5.987  17.175  -6.209  1.00 28.08     0.059 A 
HETATM   12  CBG   D T 601       6.169  16.996  -4.715  1.00 29.83     0.016 A 
ENDROOT
BRANCH  10  13
HETATM   13  NAU   D T 601       5.311  17.332  -2.311  1.00 42.81    -0.249 NA
BRANCH  13  14
HETATM   14  CBB   D T 601       4.904  16.073  -1.719  1.00 45.16     0.072 A 
HETATM   15  CAJ   D T 601       3.529  15.536  -2.000  1.00 44.00     0.098 A 
HETATM   16  CAX   D T 601       3.096  14.250  -1.372  1.00 48.51     0.085 A 
HETATM   17  CAY   D T 601       4.043  13.507  -0.470  1.00 53.02     0.059 A 
HETATM   18 CL1    D T 601       3.547  12.021   0.255  1.00 53.68    -0.085 Cl
HETATM   19  CAI   D T 601       5.408  14.043  -0.194  1.00 46.30     0.079 A 
HETATM   20  CAZ   D T 601       5.847  15.328  -0.813  1.00 49.16     0.055 A 
HETATM   21 CL2    D T 601       7.431  15.963  -0.493  1.00 67.83    -0.085 Cl
BRANCH  16  22
HETATM   22  O02   D T 601       1.840  13.751  -1.632  1.00 43.57    -0.331 OA
HETATM   23  C01   D T 601       0.795  13.995  -0.750  1.00 43.07     0.181 C 
ENDBRANCH  16  22
ENDBRANCH  13  14
ENDBRANCH  10  13
BRANCH   8  24
HETATM   24  OAV   D T 601       9.520  15.185  -4.541  1.00 30.98    -0.330 OA
HETATM   25  CAA   D T 601      10.214  15.791  -3.496  1.00 22.69     0.181 C 
ENDBRANCH   8  24
BRANCH   9  26
HETATM   26  OAW   D T 601       9.189  15.508  -7.479  1.00 39.27    -0.333 OA
BRANCH  26  27
HETATM   27  CAN   D T 601      10.025  16.422  -8.128  1.00 36.89     0.150 C 
BRANCH  27  28
HETATM   28  CAM   D T 601      11.410  16.296  -7.495  1.00 37.41     0.056 C 
BRANCH  28  29
HETATM   29  CAC   D T 601      12.100  17.651  -7.546  1.00 48.04     0.100 C 
BRANCH  29  30
HETATM   30  NBH   D T 601      11.170  18.680  -6.982  1.00 56.69    -0.365 N 
HETATM   31  CAP   D T 601      11.015  20.027  -7.530  1.00 58.94     0.121 C 
HETATM   32  CAR   D T 601       9.645  20.572  -7.092  1.00 60.67     0.121 C 
HETATM   33  NBI   D T 601       9.544  20.503  -5.658  1.00 64.46    -0.364 N 
HETATM   34  CAO   D T 601       9.751  21.729  -4.901  1.00 72.62     0.121 C 
HETATM   35  CAS   D T 601       9.759  19.199  -5.107  1.00 59.00     0.121 C 
HETATM   36  CAQ   D T 601      11.099  18.702  -5.543  1.00 59.44     0.121 C 
ENDBRANCH  29  30
ENDBRANCH  28  29
ENDBRANCH  27  28
ENDBRANCH  26  27
ENDBRANCH   9  26
TORSDOF 9
ENDMDL
MODEL 4
REMARK VINA RESULT:    -7.481      1.655      2.328
REMARK INTER + INTRA:         -12.747
REMARK INTER:                 -12.208
REMARK INTRA:                  -0.539
REMARK UNBOUND:                -1.329
REMARK  9 active torsions:
REMARK  status: ('A' for Active; 'I' for Inactive)
REMARK    1  A    between atoms: O02_2  and  CAX_24 
REMARK    2  A    between atoms: CAC_3  and  CAM_13 
REMARK    3  A    between atoms: CAC_3  and  NBH_34 
REMARK    4  A    between atoms: CAM_13  and  CAN_14 
REMARK    5  A    between atoms: CAN_14  and  OAW_23 
REMARK    6  A    between atoms: NAU_21  and  CBB_28 
REMARK    7  A    between atoms: NAU_21  and  CBE_31 
REMARK    8  A    between atoms: OAV_22  and  CBC_29 
REMARK    9  A    between atoms: OAW_23  and  CBD_30 
ROOT
HETATM    1  NAD   D T 601       0.842  14.342   0.126  1.00 32.70    -0.191 NA
HETATM    2  CAG   D T 601       1.565  14.800  -0.609  1.00 31.24     0.100 C 
HETATM    3  CAH   D T 601       2.361  16.840  -1.961  1.00 28.83     0.163 A 
HETATM    4  CAK   D T 601       5.276  17.471  -4.443  1.00 26.08     0.098 A 
HETATM    5  CAL   D T 601       5.714  14.551  -3.781  1.00 26.85     0.082 A 
HETATM    6  NAT   D T 601       3.251  17.486  -2.882  1.00 34.24    -0.269 NA
HETATM    7  CBA   D T 601       2.521  15.400  -1.588  1.00 30.42     0.088 A 
HETATM    8  CBC   D T 601       6.628  15.262  -4.727  1.00 23.70     0.095 A 
HETATM    9  CBD   D T 601       6.396  16.699  -5.055  1.00 25.38     0.096 A 
HETATM   10  CBE   D T 601       3.661  14.590  -2.181  1.00 37.17     0.086 A 
HETATM   11  CBF   D T 601       4.344  16.772  -3.481  1.00 28.08     0.059 A 
HETATM   12  CBG   D T 601       4.582  15.311  -3.160  1.00 29.83     0.016 A 
ENDROOT
BRANCH  10  13
HETATM   13  NAU   D T 601       3.912  13.171  -1.895  1.00 42.81    -0.249 NA
BRANCH  13  14
HETATM   14  CBB   D T 601       4.188  12.777  -0.528  1.00 45.16     0.072 A 
HETATM   15  CAJ   D T 601       3.079  12.215   0.316  1.00 44.00     0.098 A 
HETATM   16  CAX   D T 601       3.353  11.830   1.735  1.00 48.51     0.085 A 
HETATM   17  CAY   D T 601       4.736  12.005   2.299  1.00 53.02     0.059 A 
HETATM   18 CL1    D T 601       5.056  11.559   3.936  1.00 53.68    -0.085 Cl
HETATM   19  CAI   D T 601       5.836  12.562   1.458  1.00 46.30     0.079 A 
HETATM   20  CAZ   D T 601       5.570  12.953   0.042  1.00 49.16     0.055 A 
HETATM   21 CL2    D T 601       6.841  13.607  -0.944  1.00 67.83    -0.085 Cl
BRANCH  16  22
HETATM   22  O02   D T 601       2.341  11.310   2.510  1.00 43.57    -0.331 OA
HETATM   23  C01   D T 601       2.098   9.943   2.514  1.00 43.07     0.181 C 
ENDBRANCH  16  22
ENDBRANCH  13  14
ENDBRANCH  10  13
BRANCH   8  24
HETATM   24  OAV   D T 601       7.662  14.533  -5.269  1.00 30.98    -0.330 OA
HETATM   25  CAA   D T 601       8.944  14.625  -4.731  1.00 22.69     0.181 C 
ENDBRANCH   8  24
BRANCH   9  26
HETATM   26  OAW   D T 601       7.215  17.397  -5.932  1.00 39.27    -0.333 OA
BRANCH  26  27
HETATM   27  CAN   D T 601       6.782  17.632  -7.241  1.00 36.89     0.150 C 
BRANCH  27  28
HETATM   28  CAM   D T 601       8.023  17.644  -8.133  1.00 37.41     0.056 C 
BRANCH  28  29
HETATM   29  CAC   D T 601       9.133  18.405  -7.422  1.00 48.04     0.100 C 
BRANCH  29  30
HETATM   30  NBH   D T 601      10.315  17.497  -7.277  1.00 56.69    -0.365 N 
HETATM   31  CAP   D T 601      10.378  16.145  -7.831  1.00 58.94     0.121 C 
HETATM   32  CAR   D T 601      11.857  15.754  -7.983  1.00 60.67     0.121 C 
HETATM   33  NBI   D T 601      12.519  15.903  -6.714  1.00 64.46    -0.364 N 
HETATM   34  CAO   D T 601      12.767  14.701  -5.930  1.00 72.62     0.121 C 
HETATM   35  CAS   D T 601      12.408  17.207  -6.132  1.00 59.00     0.121 C 
HETATM   36  CAQ   D T 601      10.962  17.553  -5.990  1.00 59.44     0.121 C 
ENDBRANCH  29  30
ENDBRANCH  28  29
ENDBRANCH  27  28
ENDBRANCH  26  27
ENDBRANCH   9  26
TORSDOF 9
ENDMDL
MODEL 5
REMARK VINA RESULT:    -7.450      2.426      3.807
REMARK INTER + INTRA:         -12.700
REMARK INTER:                 -11.426
REMARK INTRA:                  -1.274
REMARK UNBOUND:                -1.329
REMARK  9 active torsions:
REMARK  status: ('A' for Active; 'I' for Inactive)
REMARK    1  A    between atoms: O02_2  and  CAX_24 
REMARK    2  A    between atoms: CAC_3  and  CAM_13 
REMARK    3  A    between atoms: CAC_3  and  NBH_34 
REMARK    4  A    between atoms: CAM_13  and  CAN_14 
REMARK    5  A    between atoms: CAN_14  and  OAW_23 
REMARK    6  A    between atoms: NAU_21  and  CBB_28 
REMARK    7  A    between atoms: NAU_21  and  CBE_31 
REMARK    8  A    between atoms: OAV_22  and  CBC_29 
REMARK    9  A    between atoms: OAW_23  and  CBD_30 
ROOT
HETATM    1  NAD   D T 601       2.126  10.585   1.521  1.00 32.70    -0.191 NA
HETATM    2  CAG   D T 601       2.206  11.557   0.952  1.00 31.24     0.100 C 
HETATM    3  CAH   D T 601       1.196  13.829   0.290  1.00 28.83     0.163 A 
HETATM    4  CAK   D T 601       2.397  16.783  -1.921  1.00 26.08     0.098 A 
HETATM    5  CAL   D T 601       4.727  14.873  -2.207  1.00 26.85     0.082 A 
HETATM    6  NAT   D T 601       1.237  15.086  -0.399  1.00 34.24    -0.269 NA
HETATM    7  CBA   D T 601       2.313  12.839   0.193  1.00 30.42     0.088 A 
HETATM    8  CBC   D T 601       4.739  16.198  -2.900  1.00 23.70     0.095 A 
HETATM    9  CBD   D T 601       3.580  17.127  -2.761  1.00 25.38     0.096 A 
HETATM   10  CBE   D T 601       3.539  13.166  -0.641  1.00 37.17     0.086 A 
HETATM   11  CBF   D T 601       2.366  15.451  -1.209  1.00 28.08     0.059 A 
HETATM   12  CBG   D T 601       3.544  14.510  -1.362  1.00 29.83     0.016 A 
ENDROOT
BRANCH  10  13
HETATM   13  NAU   D T 601       4.692  12.272  -0.816  1.00 42.81    -0.249 NA
BRANCH  13  14
HETATM   14  CBB   D T 601       5.742  12.290   0.184  1.00 45.16     0.072 A 
HETATM   15  CAJ   D T 601       5.454  11.772   1.565  1.00 44.00     0.098 A 
HETATM   16  CAX   D T 601       6.527  11.811   2.606  1.00 48.51     0.085 A 
HETATM   17  CAY   D T 601       7.881  12.364   2.259  1.00 53.02     0.059 A 
HETATM   18 CL1    D T 601       9.122  12.408   3.458  1.00 53.68    -0.085 Cl
HETATM   19  CAI   D T 601       8.164  12.877   0.886  1.00 46.30     0.079 A 
HETATM   20  CAZ   D T 601       7.098  12.845  -0.158  1.00 49.16     0.055 A 
HETATM   21 CL2    D T 601       7.414  13.446  -1.757  1.00 67.83    -0.085 Cl
BRANCH  16  22
HETATM   22  O02   D T 601       6.270  11.331   3.871  1.00 43.57    -0.331 OA
HETATM   23  C01   D T 601       5.316  10.341   4.062  1.00 43.07     0.181 C 
ENDBRANCH  16  22
ENDBRANCH  13  14
ENDBRANCH  10  13
BRANCH   8  24
HETATM   24  OAV   D T 601       5.847  16.500  -3.660  1.00 30.98    -0.330 OA
HETATM   25  CAA   D T 601       7.009  16.970  -3.051  1.00 22.69     0.181 C 
ENDBRANCH   8  24
BRANCH   9  26
HETATM   26  OAW   D T 601       3.546  18.364  -3.391  1.00 39.27    -0.333 OA
BRANCH  26  27
HETATM   27  CAN   D T 601       2.666  18.571  -4.458  1.00 36.89     0.150 C 
BRANCH  27  28
HETATM   28  CAM   D T 601       3.480  19.157  -5.610  1.00 37.41     0.056 C 
BRANCH  28  29
HETATM   29  CAC   D T 601       4.127  18.018  -6.385  1.00 48.04     0.100 C 
BRANCH  29  30
HETATM   30  NBH   D T 601       5.612  18.205  -6.354  1.00 56.69    -0.365 N 
HETATM   31  CAP   D T 601       6.269  19.510  -6.294  1.00 58.94     0.121 C 
HETATM   32  CAR   D T 601       7.683  19.313  -5.723  1.00 60.67     0.121 C 
HETATM   33  NBI   D T 601       8.383  18.335  -6.515  1.00 64.46    -0.364 N 
HETATM   34  CAO   D T 601       9.351  18.816  -7.490  1.00 72.62     0.121 C 
HETATM   35  CAS   D T 601       7.715  17.074  -6.633  1.00 59.00     0.121 C 
HETATM   36  CAQ   D T 601       6.350  17.299  -7.197  1.00 59.44     0.121 C 
ENDBRANCH  29  30
ENDBRANCH  28  29
ENDBRANCH  27  28
ENDBRANCH  26  27
ENDBRANCH   9  26
TORSDOF 9
ENDMDL
MODEL 6
REMARK VINA RESULT:    -7.342      3.585      9.104
REMARK INTER + INTRA:         -12.534
REMARK INTER:                 -10.986
REMARK INTRA:                  -1.548
REMARK UNBOUND:                -1.329
REMARK  9 active torsions:
REMARK  status: ('A' for Active; 'I' for Inactive)
REMARK    1  A    between atoms: O02_2  and  CAX_24 
REMARK    2  A    between atoms: CAC_3  and  CAM_13 
REMARK    3  A    between atoms: CAC_3  and  NBH_34 
REMARK    4  A    between atoms: CAM_13  and  CAN_14 
REMARK    5  A    between atoms: CAN_14  and  OAW_23 
REMARK    6  A    between atoms: NAU_21  and  CBB_28 
REMARK    7  A    between atoms: NAU_21  and  CBE_31 
REMARK    8  A    between atoms: OAV_22  and  CBC_29 
REMARK    9  A    between atoms: OAW_23  and  CBD_30 
ROOT
HETATM    1  NAD   D T 601      11.578  15.866  -8.184  1.00 32.70    -0.191 NA
HETATM    2  CAG   D T 601      10.598  15.871  -7.625  1.00 31.24     0.100 C 
HETATM    3  CAH   D T 601       8.101  16.490  -7.529  1.00 28.83     0.163 A 
HETATM    4  CAK   D T 601       5.288  15.992  -4.904  1.00 26.08     0.098 A 
HETATM    5  CAL   D T 601       7.636  14.732  -3.469  1.00 26.85     0.082 A 
HETATM    6  NAT   D T 601       6.824  16.521  -6.879  1.00 34.24    -0.269 NA
HETATM    7  CBA   D T 601       9.303  15.882  -6.879  1.00 30.42     0.088 A 
HETATM    8  CBC   D T 601       6.285  14.772  -2.829  1.00 23.70     0.095 A 
HETATM    9  CBD   D T 601       5.137  15.406  -3.541  1.00 25.38     0.096 A 
HETATM   10  CBE   D T 601       9.179  15.262  -5.497  1.00 37.17     0.086 A 
HETATM   11  CBF   D T 601       6.644  15.958  -5.570  1.00 28.08     0.059 A 
HETATM   12  CBG   D T 601       7.806  15.319  -4.837  1.00 29.83     0.016 A 
ENDROOT
BRANCH  10  13
HETATM   13  NAU   D T 601      10.289  14.643  -4.758  1.00 42.81    -0.249 NA
BRANCH  13  14
HETATM   14  CBB   D T 601      11.299  15.504  -4.176  1.00 45.16     0.072 A 
HETATM   15  CAJ   D T 601      10.883  16.605  -3.242  1.00 44.00     0.098 A 
HETATM   16  CAX   D T 601      11.920  17.509  -2.658  1.00 48.51     0.085 A 
HETATM   17  CAY   D T 601      13.367  17.305  -3.009  1.00 53.02     0.059 A 
HETATM   18 CL1    D T 601      14.568  18.348  -2.334  1.00 53.68    -0.085 Cl
HETATM   19  CAI   D T 601      13.778  16.211  -3.936  1.00 46.30     0.079 A 
HETATM   20  CAZ   D T 601      12.750  15.305  -4.527  1.00 49.16     0.055 A 
HETATM   21 CL2    D T 601      13.216  14.033  -5.613  1.00 67.83    -0.085 Cl
BRANCH  16  22
HETATM   22  O02   D T 601      11.543  18.515  -1.796  1.00 43.57    -0.331 OA
HETATM   23  C01   D T 601      11.231  18.222  -0.476  1.00 43.07     0.181 C 
ENDBRANCH  16  22
ENDBRANCH  13  14
ENDBRANCH  10  13
BRANCH   8  24
HETATM   24  OAV   D T 601       6.167  14.214  -1.576  1.00 30.98    -0.330 OA
HETATM   25  CAA   D T 601       6.795  13.005  -1.284  1.00 22.69     0.181 C 
ENDBRANCH   8  24
BRANCH   9  26
HETATM   26  OAW   D T 601       3.868  15.472  -2.982  1.00 39.27    -0.333 OA
BRANCH  26  27
HETATM   27  CAN   D T 601       3.588  16.446  -2.019  1.00 36.89     0.150 C 
BRANCH  27  28
HETATM   28  CAM   D T 601       2.302  16.024  -1.309  1.00 37.41     0.056 C 
BRANCH  28  29
HETATM   29  CAC   D T 601       2.039  14.553  -1.598  1.00 48.04     0.100 C 
BRANCH  29  30
HETATM   30  NBH   D T 601       2.215  13.780  -0.328  1.00 56.69    -0.365 N 
HETATM   31  CAP   D T 601       3.314  12.846  -0.088  1.00 58.94     0.121 C 
HETATM   32  CAR   D T 601       3.491  12.690   1.432  1.00 60.67     0.121 C 
HETATM   33  NBI   D T 601       2.238  12.291   2.017  1.00 64.46    -0.364 N 
HETATM   34  CAO   D T 601       2.066  10.888   2.366  1.00 72.62     0.121 C 
HETATM   35  CAS   D T 601       1.142  13.167   1.733  1.00 59.00     0.121 C 
HETATM   36  CAQ   D T 601       0.990  13.290   0.252  1.00 59.44     0.121 C 
ENDBRANCH  29  30
ENDBRANCH  28  29
ENDBRANCH  27  28
ENDBRANCH  26  27
ENDBRANCH   9  26
TORSDOF 9
ENDMDL
MODEL 7
REMARK VINA RESULT:    -7.337      2.570      4.186
REMARK INTER + INTRA:         -12.526
REMARK INTER:                 -11.170
REMARK INTRA:                  -1.356
REMARK UNBOUND:                -1.329
REMARK  9 active torsions:
REMARK  status: ('A' for Active; 'I' for Inactive)
REMARK    1  A    between atoms: O02_2  and  CAX_24 
REMARK    2  A    between atoms: CAC_3  and  CAM_13 
REMARK    3  A    between atoms: CAC_3  and  NBH_34 
REMARK    4  A    between atoms: CAM_13  and  CAN_14 
REMARK    5  A    between atoms: CAN_14  and  OAW_23 
REMARK    6  A    between atoms: NAU_21  and  CBB_28 
REMARK    7  A    between atoms: NAU_21  and  CBE_31 
REMARK    8  A    between atoms: OAV_22  and  CBC_29 
REMARK    9  A    between atoms: OAW_23  and  CBD_30 
ROOT
HETATM    1  NAD   D T 601       2.436  11.530   0.893  1.00 32.70    -0.191 NA
HETATM    2  CAG   D T 601       3.190  12.071   0.251  1.00 31.24     0.100 C 
HETATM    3  CAH   D T 601       4.016  12.779  -2.082  1.00 28.83     0.163 A 
HETATM    4  CAK   D T 601       7.010  14.884  -3.368  1.00 26.08     0.098 A 
HETATM    5  CAL   D T 601       7.495  14.969  -0.382  1.00 26.85     0.082 A 
HETATM    6  NAT   D T 601       4.931  13.454  -2.955  1.00 34.24    -0.269 NA
HETATM    7  CBA   D T 601       4.194  12.782  -0.597  1.00 30.42     0.088 A 
HETATM    8  CBC   D T 601       8.420  15.671  -1.324  1.00 23.70     0.095 A 
HETATM    9  CBD   D T 601       8.178  15.613  -2.795  1.00 25.38     0.096 A 
HETATM   10  CBE   D T 601       5.365  13.529   0.020  1.00 37.17     0.086 A 
HETATM   11  CBF   D T 601       6.061  14.172  -2.434  1.00 28.08     0.059 A 
HETATM   12  CBG   D T 601       6.318  14.229  -0.942  1.00 29.83     0.016 A 
ENDROOT
BRANCH  10  13
HETATM   13  NAU   D T 601       5.645  13.596   1.461  1.00 42.81    -0.249 NA
BRANCH  13  14
HETATM   14  CBB   D T 601       6.458  12.555   2.058  1.00 45.16     0.072 A 
HETATM   15  CAJ   D T 601       7.873  12.362   1.587  1.00 44.00     0.098 A 
HETATM   16  CAX   D T 601       8.707  11.275   2.184  1.00 48.51     0.085 A 
HETATM   17  CAY   D T 601       8.124  10.390   3.251  1.00 53.02     0.059 A 
HETATM   18 CL1    D T 601       9.086   9.134   3.943  1.00 53.68    -0.085 Cl
HETATM   19  CAI   D T 601       6.720  10.585   3.717  1.00 46.30     0.079 A 
HETATM   20  CAZ   D T 601       5.878  11.665   3.124  1.00 49.16     0.055 A 
HETATM   21 CL2    D T 601       4.241  11.897   3.655  1.00 67.83    -0.085 Cl
BRANCH  16  22
HETATM   22  O02   D T 601      10.005  11.098   1.761  1.00 43.57    -0.331 OA
HETATM   23  C01   D T 601      11.032  11.838   2.331  1.00 43.07     0.181 C 
ENDBRANCH  16  22
ENDBRANCH  13  14
ENDBRANCH  10  13
BRANCH   8  24
HETATM   24  OAV   D T 601       9.484  16.348  -0.772  1.00 30.98    -0.330 OA
HETATM   25  CAA   D T 601      10.620  15.656  -0.360  1.00 22.69     0.181 C 
ENDBRANCH   8  24
BRANCH   9  26
HETATM   26  OAW   D T 601       9.015  16.244  -3.706  1.00 39.27    -0.333 OA
BRANCH  26  27
HETATM   27  CAN   D T 601       9.638  15.492  -4.707  1.00 36.89     0.150 C 
BRANCH  27  28
HETATM   28  CAM   D T 601       9.483  16.263  -6.016  1.00 37.41     0.056 C 
BRANCH  28  29
HETATM   29  CAC   D T 601       8.300  15.694  -6.787  1.00 48.04     0.100 C 
BRANCH  29  30
HETATM   30  NBH   D T 601       7.154  16.651  -6.674  1.00 56.69    -0.365 N 
HETATM   31  CAP   D T 601       7.217  17.916  -5.945  1.00 58.94     0.121 C 
HETATM   32  CAR   D T 601       6.124  18.847  -6.496  1.00 60.67     0.121 C 
HETATM   33  NBI   D T 601       4.850  18.181  -6.415  1.00 64.46    -0.364 N 
HETATM   34  CAO   D T 601       3.958  18.549  -5.324  1.00 72.62     0.121 C 
HETATM   35  CAS   D T 601       4.798  16.910  -7.072  1.00 59.00     0.121 C 
HETATM   36  CAQ   D T 601       5.865  16.029  -6.509  1.00 59.44     0.121 C 
ENDBRANCH  29  30
ENDBRANCH  28  29
ENDBRANCH  27  28
ENDBRANCH  26  27
ENDBRANCH   9  26
TORSDOF 9
ENDMDL
MODEL 8
REMARK VINA RESULT:    -7.230      3.211      9.388
REMARK INTER + INTRA:         -12.363
REMARK INTER:                 -11.481
REMARK INTRA:                  -0.882
REMARK UNBOUND:                -1.329
REMARK  9 active torsions:
REMARK  status: ('A' for Active; 'I' for Inactive)
REMARK    1  A    between atoms: O02_2  and  CAX_24 
REMARK    2  A    between atoms: CAC_3  and  CAM_13 
REMARK    3  A    between atoms: CAC_3  and  NBH_34 
REMARK    4  A    between atoms: CAM_13  and  CAN_14 
REMARK    5  A    between atoms: CAN_14  and  OAW_23 
REMARK    6  A    between atoms: NAU_21  and  CBB_28 
REMARK    7  A    between atoms: NAU_21  and  CBE_31 
REMARK    8  A    between atoms: OAV_22  and  CBC_29 
REMARK    9  A    between atoms: OAW_23  and  CBD_30 
ROOT
HETATM    1  NAD   D T 601       4.630  18.570  -5.595  1.00 32.70    -0.191 NA
HETATM    2  CAG   D T 601       4.769  17.917  -4.685  1.00 31.24     0.100 C 
HETATM    3  CAH   D T 601       3.753  16.439  -2.840  1.00 28.83     0.163 A 
HETATM    4  CAK   D T 601       5.230  14.392   0.108  1.00 26.08     0.098 A 
HETATM    5  CAL   D T 601       7.748  15.581  -1.078  1.00 26.85     0.082 A 
HETATM    6  NAT   D T 601       3.859  15.591  -1.688  1.00 34.24    -0.269 NA
HETATM    7  CBA   D T 601       4.956  17.058  -3.477  1.00 30.42     0.088 A 
HETATM    8  CBC   D T 601       7.819  14.683   0.115  1.00 23.70     0.095 A 
HETATM    9  CBD   D T 601       6.570  14.111   0.698  1.00 25.38     0.096 A 
HETATM   10  CBE   D T 601       6.337  16.778  -2.910  1.00 37.17     0.086 A 
HETATM   11  CBF   D T 601       5.136  15.294  -1.101  1.00 28.08     0.059 A 
HETATM   12  CBG   D T 601       6.408  15.877  -1.682  1.00 29.83     0.016 A 
ENDROOT
BRANCH  10  13
HETATM   13  NAU   D T 601       7.587  17.335  -3.446  1.00 42.81    -0.249 NA
BRANCH  13  14
HETATM   14  CBB   D T 601       7.871  17.168  -4.858  1.00 45.16     0.072 A 
HETATM   15  CAJ   D T 601       7.961  18.381  -5.741  1.00 44.00     0.098 A 
HETATM   16  CAX   D T 601       8.230  18.213  -7.201  1.00 48.51     0.085 A 
HETATM   17  CAY   D T 601       8.412  16.833  -7.770  1.00 53.02     0.059 A 
HETATM   18 CL1    D T 601       8.725  16.635  -9.456  1.00 53.68    -0.085 Cl
HETATM   19  CAI   D T 601       8.324  15.630  -6.890  1.00 46.30     0.079 A 
HETATM   20  CAZ   D T 601       8.052  15.789  -5.431  1.00 49.16     0.055 A 
HETATM   21 CL2    D T 601       7.940  14.396  -4.400  1.00 67.83    -0.085 Cl
BRANCH  16  22
HETATM   22  O02   D T 601       8.319  19.321  -8.013  1.00 43.57    -0.331 OA
HETATM   23  C01   D T 601       7.485  20.411  -7.800  1.00 43.07     0.181 C 
ENDBRANCH  16  22
ENDBRANCH  13  14
ENDBRANCH  10  13
BRANCH   8  24
HETATM   24  OAV   D T 601       9.067  14.427   0.635  1.00 30.98    -0.330 OA
HETATM   25  CAA   D T 601      10.171  15.161   0.206  1.00 22.69     0.181 C 
ENDBRANCH   8  24
BRANCH   9  26
HETATM   26  OAW   D T 601       6.588  13.278   1.809  1.00 39.27    -0.333 OA
BRANCH  26  27
HETATM   27  CAN   D T 601       5.832  12.102   1.802  1.00 36.89     0.150 C 
BRANCH  27  28
HETATM   28  CAM   D T 601       4.747  12.256   2.867  1.00 37.41     0.056 C 
BRANCH  28  29
HETATM   29  CAC   D T 601       3.570  11.362   2.504  1.00 48.04     0.100 C 
BRANCH  29  30
HETATM   30  NBH   D T 601       2.573  12.177   1.739  1.00 56.69    -0.365 N 
HETATM   31  CAP   D T 601       1.377  12.772   2.335  1.00 58.94     0.121 C 
HETATM   32  CAR   D T 601       0.928  13.945   1.447  1.00 60.67     0.121 C 
HETATM   33  NBI   D T 601       0.745  13.476   0.099  1.00 64.46    -0.364 N 
HETATM   34  CAO   D T 601      -0.615  13.223  -0.355  1.00 72.62     0.121 C 
HETATM   35  CAS   D T 601       1.891  12.834  -0.470  1.00 59.00     0.121 C 
HETATM   36  CAQ   D T 601       2.296  11.696   0.409  1.00 59.44     0.121 C 
ENDBRANCH  29  30
ENDBRANCH  28  29
ENDBRANCH  27  28
ENDBRANCH  26  27
ENDBRANCH   9  26
TORSDOF 9
ENDMDL
MODEL 9
REMARK VINA RESULT:    -7.218      2.242      3.036
REMARK INTER + INTRA:         -12.345
REMARK INTER:                 -10.814
REMARK INTRA:                  -1.532
REMARK UNBOUND:                -1.329
REMARK  9 active torsions:
REMARK  status: ('A' for Active; 'I' for Inactive)
REMARK    1  A    between atoms: O02_2  and  CAX_24 
REMARK    2  A    between atoms: CAC_3  and  CAM_13 
REMARK    3  A    between atoms: CAC_3  and  NBH_34 
REMARK    4  A    between atoms: CAM_13  and  CAN_14 
REMARK    5  A    between atoms: CAN_14  and  OAW_23 
REMARK    6  A    between atoms: NAU_21  and  CBB_28 
REMARK    7  A    between atoms: NAU_21  and  CBE_31 
REMARK    8  A    between atoms: OAV_22  and  CBC_29 
REMARK    9  A    between atoms: OAW_23  and  CBD_30 
ROOT
HETATM    1  NAD   D T 601       2.361  11.436   0.956  1.00 32.70    -0.191 NA
HETATM    2  CAG   D T 601       2.980  12.083   0.270  1.00 31.24     0.100 C 
HETATM    3  CAH   D T 601       3.473  12.970  -2.096  1.00 28.83     0.163 A 
HETATM    4  CAK   D T 601       6.069  15.449  -3.569  1.00 26.08     0.098 A 
HETATM    5  CAL   D T 601       6.853  15.474  -0.646  1.00 26.85     0.082 A 
HETATM    6  NAT   D T 601       4.213  13.777  -3.021  1.00 34.24    -0.269 NA
HETATM    7  CBA   D T 601       3.806  12.936  -0.638  1.00 30.42     0.088 A 
HETATM    8  CBC   D T 601       7.592  16.312  -1.639  1.00 23.70     0.095 A 
HETATM    9  CBD   D T 601       7.204  16.284  -3.080  1.00 25.38     0.096 A 
HETATM   10  CBE   D T 601       4.946  13.787  -0.105  1.00 37.17     0.086 A 
HETATM   11  CBF   D T 601       5.306  14.598  -2.580  1.00 28.08     0.059 A 
HETATM   12  CBG   D T 601       5.711  14.627  -1.121  1.00 29.83     0.016 A 
ENDROOT
BRANCH  10  13
HETATM   13  NAU   D T 601       5.368  13.829   1.302  1.00 42.81    -0.249 NA
BRANCH  13  14
HETATM   14  CBB   D T 601       6.248  12.788   1.794  1.00 45.16     0.072 A 
HETATM   15  CAJ   D T 601       7.604  12.612   1.170  1.00 44.00     0.098 A 
HETATM   16  CAX   D T 601       8.506  11.525   1.658  1.00 48.51     0.085 A 
HETATM   17  CAY   D T 601       8.049  10.623   2.771  1.00 53.02     0.059 A 
HETATM   18 CL1    D T 601       9.089   9.367   3.339  1.00 53.68    -0.085 Cl
HETATM   19  CAI   D T 601       6.702  10.801   3.390  1.00 46.30     0.079 A 
HETATM   20  CAZ   D T 601       5.794  11.881   2.906  1.00 49.16     0.055 A 
HETATM   21 CL2    D T 601       4.223  12.094   3.615  1.00 67.83    -0.085 Cl
BRANCH  16  22
HETATM   22  O02   D T 601       9.751  11.363   1.094  1.00 43.57    -0.331 OA
HETATM   23  C01   D T 601      10.820  12.135   1.529  1.00 43.07     0.181 C 
ENDBRANCH  16  22
ENDBRANCH  13  14
ENDBRANCH  10  13
BRANCH   8  24
HETATM   24  OAV   D T 601       8.628  17.084  -1.163  1.00 30.98    -0.330 OA
HETATM   25  CAA   D T 601       9.877  16.514  -0.929  1.00 22.69     0.181 C 
ENDBRANCH   8  24
BRANCH   9  26
HETATM   26  OAW   D T 601       7.866  17.040  -4.038  1.00 39.27    -0.333 OA
BRANCH  26  27
HETATM   27  CAN   D T 601       7.372  17.086  -5.345  1.00 36.89     0.150 C 
BRANCH  27  28
HETATM   28  CAM   D T 601       8.565  17.301  -6.274  1.00 37.41     0.056 C 
BRANCH  28  29
HETATM   29  CAC   D T 601       9.089  15.946  -6.726  1.00 48.04     0.100 C 
BRANCH  29  30
HETATM   30  NBH   D T 601      10.426  15.716  -6.092  1.00 56.69    -0.365 N 
HETATM   31  CAP   D T 601      11.666  15.541  -6.847  1.00 58.94     0.121 C 
HETATM   32  CAR   D T 601      12.846  15.891  -5.924  1.00 60.67     0.121 C 
HETATM   33  NBI   D T 601      12.765  15.095  -4.728  1.00 64.46    -0.364 N 
HETATM   34  CAO   D T 601      13.636  13.933  -4.623  1.00 72.62     0.121 C 
HETATM   35  CAS   D T 601      11.527  15.211  -4.017  1.00 59.00     0.121 C 
HETATM   36  CAQ   D T 601      10.404  14.857  -4.936  1.00 59.44     0.121 C 
ENDBRANCH  29  30
ENDBRANCH  28  29
ENDBRANCH  27  28
ENDBRANCH  26  27
ENDBRANCH   9  26
TORSDOF 9
ENDMDL
