MODEL 1
REMARK VINA RESULT:    -7.217      0.000      0.000
REMARK INTER + INTRA:         -11.806
REMARK INTER:                 -11.015
REMARK INTRA:                  -0.791
REMARK UNBOUND:                -0.791
REMARK  9 active torsions:
REMARK  status: ('A' for Active; 'I' for Inactive)
REMARK    1  A    between atoms: O02_2  and  CAX_24 
REMARK    2  A    between atoms: CAC_3  and  CAM_13 
REMARK    3  A    between atoms: CAC_3  and  NBH_34 
REMARK    4  A    between atoms: CAM_13  and  CAN_14 
REMARK    5  A    between atoms: CAN_14  and  OAW_23 
REMARK    6  A    between atoms: NAU_21  and  CBB_28 
REMARK    7  A    between atoms: NAU_21  and  CBE_31 
REMARK    8  A    between atoms: OAV_22  and  CBC_29 
REMARK    9  A    between atoms: OAW_23  and  CBD_30 
ROOT
HETATM    1  NAD   D T 601       7.126  -2.053  -7.428  1.00 32.70    -0.191 NA
HETATM    2  CAG   D T 601       7.646  -2.490  -6.526  1.00 31.24     0.100 C 
HETATM    3  CAH   D T 601       8.850  -4.466  -5.401  1.00 28.83     0.163 A 
HETATM    4  CAK   D T 601      10.463  -5.022  -1.916  1.00 26.08     0.098 A 
HETATM    5  CAL   D T 601       9.455  -2.182  -1.630  1.00 26.85     0.082 A 
HETATM    6  NAT   D T 601       9.527  -5.079  -4.295  1.00 34.24    -0.269 NA
HETATM    7  CBA   D T 601       8.327  -3.067  -5.329  1.00 30.42     0.088 A 
HETATM    8  CBC   D T 601      10.177  -2.851  -0.504  1.00 23.70     0.095 A 
HETATM    9  CBD   D T 601      10.661  -4.254  -0.652  1.00 25.38     0.096 A 
HETATM   10  CBE   D T 601       8.525  -2.253  -4.060  1.00 37.17     0.086 A 
HETATM   11  CBF   D T 601       9.740  -4.363  -3.068  1.00 28.08     0.059 A 
HETATM   12  CBG   D T 601       9.246  -2.940  -2.906  1.00 29.83     0.016 A 
ENDROOT
BRANCH  10  13
HETATM   13  NAU   D T 601       8.050  -0.875  -3.873  1.00 42.81    -0.249 NA
BRANCH  13  14
HETATM   14  CBB   D T 601       8.433   0.131  -4.843  1.00 45.16     0.072 A 
HETATM   15  CAJ   D T 601       7.414   0.630  -5.829  1.00 44.00     0.098 A 
HETATM   16  CAX   D T 601       7.810   1.649  -6.848  1.00 48.51     0.085 A 
HETATM   17  CAY   D T 601       9.222   2.167  -6.871  1.00 53.02     0.059 A 
HETATM   18 CL1    D T 601       9.682   3.346  -8.047  1.00 53.68    -0.085 Cl
HETATM   19  CAI   D T 601      10.231   1.669  -5.892  1.00 46.30     0.079 A 
HETATM   20  CAZ   D T 601       9.845   0.648  -4.873  1.00 49.16     0.055 A 
HETATM   21 CL2    D T 601      11.013   0.059  -3.732  1.00 67.83    -0.085 Cl
BRANCH  16  22
HETATM   22  O02   D T 601       6.879   2.115  -7.748  1.00 43.57    -0.331 OA
HETATM   23  C01   D T 601       6.497   1.327  -8.826  1.00 43.07     0.181 C 
ENDBRANCH  16  22
ENDBRANCH  13  14
ENDBRANCH  10  13
BRANCH   8  24
HETATM   24  OAV   D T 601      10.357  -2.119   0.648  1.00 30.98    -0.330 OA
HETATM   25  CAA   D T 601      11.546  -1.425   0.861  1.00 22.69     0.181 C 
ENDBRANCH   8  24
BRANCH   9  26
HETATM   26  OAW   D T 601      11.328  -4.917   0.369  1.00 39.27    -0.333 OA
BRANCH  26  27
HETATM   27  CAN   D T 601      10.614  -5.748   1.237  1.00 36.89     0.150 C 
BRANCH  27  28
HETATM   28  CAM   D T 601      11.107  -7.175   1.005  1.00 37.41     0.056 C 
BRANCH  28  29
HETATM   29  CAC   D T 601      10.019  -8.148   1.438  1.00 48.04     0.100 C 
BRANCH  29  30
HETATM   30  NBH   D T 601       9.085  -8.358   0.286  1.00 56.69    -0.365 N 
HETATM   31  CAP   D T 601       7.771  -8.987   0.407  1.00 58.94     0.121 C 
HETATM   32  CAR   D T 601       6.907  -8.535  -0.784  1.00 60.67     0.121 C 
HETATM   33  NBI   D T 601       7.596  -8.839  -2.010  1.00 64.46    -0.364 N 
HETATM   34  CAO   D T 601       7.175 -10.016  -2.755  1.00 72.62     0.121 C 
HETATM   35  CAS   D T 601       8.911  -8.280  -2.109  1.00 59.00     0.121 C 
HETATM   36  CAQ   D T 601       9.725  -8.744  -0.946  1.00 59.44     0.121 C 
ENDBRANCH  29  30
ENDBRANCH  28  29
ENDBRANCH  27  28
ENDBRANCH  26  27
ENDBRANCH   9  26
TORSDOF 9
ENDMDL
MODEL 2
REMARK VINA RESULT:    -6.879      3.876      8.974
REMARK INTER + INTRA:         -11.290
REMARK INTER:                  -9.773
REMARK INTRA:                  -1.517
REMARK UNBOUND:                -0.791
REMARK  9 active torsions:
REMARK  status: ('A' for Active; 'I' for Inactive)
REMARK    1  A    between atoms: O02_2  and  CAX_24 
REMARK    2  A    between atoms: CAC_3  and  CAM_13 
REMARK    3  A    between atoms: CAC_3  and  NBH_34 
REMARK    4  A    between atoms: CAM_13  and  CAN_14 
REMARK    5  A    between atoms: CAN_14  and  OAW_23 
REMARK    6  A    between atoms: NAU_21  and  CBB_28 
REMARK    7  A    between atoms: NAU_21  and  CBE_31 
REMARK    8  A    between atoms: OAV_22  and  CBC_29 
REMARK    9  A    between atoms: OAW_23  and  CBD_30 
ROOT
HETATM    1  NAD   D T 601      10.835  -3.918   4.190  1.00 32.70    -0.191 NA
HETATM    2  CAG   D T 601      10.655  -3.927   3.076  1.00 31.24     0.100 C 
HETATM    3  CAH   D T 601       9.831  -5.159   0.972  1.00 28.83     0.163 A 
HETATM    4  CAK   D T 601       9.572  -4.222  -2.784  1.00 26.08     0.098 A 
HETATM    5  CAL   D T 601      10.781  -1.690  -1.649  1.00 26.85     0.082 A 
HETATM    6  NAT   D T 601       9.570  -5.234  -0.436  1.00 34.24    -0.269 NA
HETATM    7  CBA   D T 601      10.426  -3.938   1.600  1.00 30.42     0.088 A 
HETATM    8  CBC   D T 601      10.481  -1.803  -3.110  1.00 23.70     0.095 A 
HETATM    9  CBD   D T 601       9.895  -3.058  -3.660  1.00 25.38     0.096 A 
HETATM   10  CBE   D T 601      10.753  -2.730   0.737  1.00 37.17     0.086 A 
HETATM   11  CBF   D T 601       9.862  -4.128  -1.305  1.00 28.08     0.059 A 
HETATM   12  CBG   D T 601      10.464  -2.850  -0.755  1.00 29.83     0.016 A 
ENDROOT
BRANCH  10  13
HETATM   13  NAU   D T 601      11.344  -1.483   1.241  1.00 42.81    -0.249 NA
BRANCH  13  14
HETATM   14  CBB   D T 601      12.771  -1.442   1.492  1.00 45.16     0.072 A 
HETATM   15  CAJ   D T 601      13.725  -1.786   0.383  1.00 44.00     0.098 A 
HETATM   16  CAX   D T 601      15.197  -1.769   0.644  1.00 48.51     0.085 A 
HETATM   17  CAY   D T 601      15.705  -1.403   2.012  1.00 53.02     0.059 A 
HETATM   18 CL1    D T 601      17.405  -1.382   2.316  1.00 53.68    -0.085 Cl
HETATM   19  CAI   D T 601      14.755  -1.063   3.110  1.00 46.30     0.079 A 
HETATM   20  CAZ   D T 601      13.283  -1.081   2.860  1.00 49.16     0.055 A 
HETATM   21 CL2    D T 601      12.169  -0.690   4.133  1.00 67.83    -0.085 Cl
BRANCH  16  22
HETATM   22  O02   D T 601      16.076  -2.076  -0.370  1.00 43.57    -0.331 OA
HETATM   23  C01   D T 601      16.496  -1.089  -1.251  1.00 43.07     0.181 C 
ENDBRANCH  16  22
ENDBRANCH  13  14
ENDBRANCH  10  13
BRANCH   8  24
HETATM   24  OAV   D T 601      10.777  -0.712  -3.896  1.00 30.98    -0.330 OA
HETATM   25  CAA   D T 601      10.308   0.553  -3.550  1.00 22.69     0.181 C 
ENDBRANCH   8  24
BRANCH   9  26
HETATM   26  OAW   D T 601       9.608  -3.210  -5.011  1.00 39.27    -0.333 OA
BRANCH  26  27
HETATM   27  CAN   D T 601       8.424  -3.843  -5.399  1.00 36.89     0.150 C 
BRANCH  27  28
HETATM   28  CAM   D T 601       7.352  -2.761  -5.522  1.00 37.41     0.056 C 
BRANCH  28  29
HETATM   29  CAC   D T 601       7.149  -2.433  -6.995  1.00 48.04     0.100 C 
BRANCH  29  30
HETATM   30  NBH   D T 601       7.271  -0.952  -7.172  1.00 56.69    -0.365 N 
HETATM   31  CAP   D T 601       7.359  -0.291  -8.473  1.00 58.94     0.121 C 
HETATM   32  CAR   D T 601       6.912   1.171  -8.305  1.00 60.67     0.121 C 
HETATM   33  NBI   D T 601       7.702   1.792  -7.274  1.00 64.46    -0.364 N 
HETATM   34  CAO   D T 601       8.793   2.664  -7.682  1.00 72.62     0.121 C 
HETATM   35  CAS   D T 601       7.672   1.114  -6.012  1.00 59.00     0.121 C 
HETATM   36  CAQ   D T 601       8.120  -0.298  -6.208  1.00 59.44     0.121 C 
ENDBRANCH  29  30
ENDBRANCH  28  29
ENDBRANCH  27  28
ENDBRANCH  26  27
ENDBRANCH   9  26
TORSDOF 9
ENDMDL
MODEL 3
REMARK VINA RESULT:    -6.871      4.256     10.002
REMARK INTER + INTRA:         -11.277
REMARK INTER:                  -9.833
REMARK INTRA:                  -1.444
REMARK UNBOUND:                -0.791
REMARK  9 active torsions:
REMARK  status: ('A' for Active; 'I' for Inactive)
REMARK    1  A    between atoms: O02_2  and  CAX_24 
REMARK    2  A    between atoms: CAC_3  and  CAM_13 
REMARK    3  A    between atoms: CAC_3  and  NBH_34 
REMARK    4  A    between atoms: CAM_13  and  CAN_14 
REMARK    5  A    between atoms: CAN_14  and  OAW_23 
REMARK    6  A    between atoms: NAU_21  and  CBB_28 
REMARK    7  A    between atoms: NAU_21  and  CBE_31 
REMARK    8  A    between atoms: OAV_22  and  CBC_29 
REMARK    9  A    between atoms: OAW_23  and  CBD_30 
ROOT
HETATM    1  NAD   D T 601      12.928  -4.891   4.366  1.00 32.70    -0.191 NA
HETATM    2  CAG   D T 601      12.766  -4.360   3.383  1.00 31.24     0.100 C 
HETATM    3  CAH   D T 601      13.737  -3.151   1.329  1.00 28.83     0.163 A 
HETATM    4  CAK   D T 601      12.191  -1.550  -1.849  1.00 26.08     0.098 A 
HETATM    5  CAL   D T 601       9.698  -2.505  -0.423  1.00 26.85     0.082 A 
HETATM    6  NAT   D T 601      13.603  -2.475   0.071  1.00 34.24    -0.269 NA
HETATM    7  CBA   D T 601      12.548  -3.650   2.087  1.00 30.42     0.088 A 
HETATM    8  CBC   D T 601       9.601  -1.808  -1.742  1.00 23.70     0.095 A 
HETATM    9  CBD   D T 601      10.835  -1.332  -2.432  1.00 25.38     0.096 A 
HETATM   10  CBE   D T 601      11.154  -3.457   1.514  1.00 37.17     0.086 A 
HETATM   11  CBF   D T 601      12.313  -2.257  -0.519  1.00 28.08     0.059 A 
HETATM   12  CBG   D T 601      11.052  -2.731   0.177  1.00 29.83     0.016 A 
ENDROOT
BRANCH  10  13
HETATM   13  NAU   D T 601       9.915  -3.898   2.170  1.00 42.81    -0.249 NA
BRANCH  13  14
HETATM   14  CBB   D T 601       9.625  -5.317   2.225  1.00 45.16     0.072 A 
HETATM   15  CAJ   D T 601       9.547  -6.104   0.947  1.00 44.00     0.098 A 
HETATM   16  CAX   D T 601       9.223  -7.562   0.997  1.00 48.51     0.085 A 
HETATM   17  CAY   D T 601       8.983  -8.226   2.326  1.00 53.02     0.059 A 
HETATM   18 CL1    D T 601       8.610  -9.911   2.386  1.00 53.68    -0.085 Cl
HETATM   19  CAI   D T 601       9.060  -7.441   3.592  1.00 46.30     0.079 A 
HETATM   20  CAZ   D T 601       9.380  -5.983   3.552  1.00 49.16     0.055 A 
HETATM   21 CL2    D T 601       9.468  -5.061   5.020  1.00 67.83    -0.085 Cl
BRANCH  16  22
HETATM   22  O02   D T 601       9.157  -8.290  -0.170  1.00 43.57    -0.331 OA
HETATM   23  C01   D T 601      10.158  -8.167  -1.125  1.00 43.07     0.181 C 
ENDBRANCH  16  22
ENDBRANCH  13  14
ENDBRANCH  10  13
BRANCH   8  24
HETATM   24  OAV   D T 601       8.340  -1.628  -2.265  1.00 30.98    -0.330 OA
HETATM   25  CAA   D T 601       7.698  -2.672  -2.927  1.00 22.69     0.181 C 
ENDBRANCH   8  24
BRANCH   9  26
HETATM   26  OAW   D T 601      10.791  -0.673  -3.653  1.00 39.27    -0.333 OA
BRANCH  26  27
HETATM   27  CAN   D T 601      11.666   0.390  -3.897  1.00 36.89     0.150 C 
BRANCH  27  28
HETATM   28  CAM   D T 601      10.944   1.366  -4.824  1.00 37.41     0.056 C 
BRANCH  28  29
HETATM   29  CAC   D T 601       9.442   1.226  -4.615  1.00 48.04     0.100 C 
BRANCH  29  30
HETATM   30  NBH   D T 601       8.760   1.401  -5.936  1.00 56.69    -0.365 N 
HETATM   31  CAP   D T 601       8.560   2.695  -6.585  1.00 58.94     0.121 C 
HETATM   32  CAR   D T 601       8.366   2.457  -8.092  1.00 60.67     0.121 C 
HETATM   33  NBI   D T 601       7.288   1.525  -8.289  1.00 64.46    -0.364 N 
HETATM   34  CAO   D T 601       5.992   2.056  -8.684  1.00 72.62     0.121 C 
HETATM   35  CAS   D T 601       7.446   0.277  -7.604  1.00 59.00     0.121 C 
HETATM   36  CAQ   D T 601       7.622   0.543  -6.144  1.00 59.44     0.121 C 
ENDBRANCH  29  30
ENDBRANCH  28  29
ENDBRANCH  27  28
ENDBRANCH  26  27
ENDBRANCH   9  26
TORSDOF 9
ENDMDL
MODEL 4
REMARK VINA RESULT:    -6.836      3.765      9.692
REMARK INTER + INTRA:         -11.224
REMARK INTER:                 -11.354
REMARK INTRA:                   0.130
REMARK UNBOUND:                -0.791
REMARK  9 active torsions:
REMARK  status: ('A' for Active; 'I' for Inactive)
REMARK    1  A    between atoms: O02_2  and  CAX_24 
REMARK    2  A    between atoms: CAC_3  and  CAM_13 
REMARK    3  A    between atoms: CAC_3  and  NBH_34 
REMARK    4  A    between atoms: CAM_13  and  CAN_14 
REMARK    5  A    between atoms: CAN_14  and  OAW_23 
REMARK    6  A    between atoms: NAU_21  and  CBB_28 
REMARK    7  A    between atoms: NAU_21  and  CBE_31 
REMARK    8  A    between atoms: OAV_22  and  CBC_29 
REMARK    9  A    between atoms: OAW_23  and  CBD_30 
ROOT
HETATM    1  NAD   D T 601      10.778  -8.616   3.435  1.00 32.70    -0.191 NA
HETATM    2  CAG   D T 601      10.535  -7.693   2.832  1.00 31.24     0.100 C 
HETATM    3  CAH   D T 601      10.008  -5.175   2.745  1.00 28.83     0.163 A 
HETATM    4  CAK   D T 601       9.274  -2.662  -0.118  1.00 26.08     0.098 A 
HETATM    5  CAL   D T 601       9.644  -5.223  -1.689  1.00 26.85     0.082 A 
HETATM    6  NAT   D T 601       9.705  -3.964   2.040  1.00 34.24    -0.269 NA
HETATM    7  CBA   D T 601      10.205  -6.475   2.032  1.00 30.42     0.088 A 
HETATM    8  CBC   D T 601       9.339  -3.937  -2.389  1.00 23.70     0.095 A 
HETATM    9  CBD   D T 601       9.149  -2.683  -1.605  1.00 25.38     0.096 A 
HETATM   10  CBE   D T 601      10.099  -6.527   0.517  1.00 37.17     0.086 A 
HETATM   11  CBF   D T 601       9.586  -3.949   0.609  1.00 28.08     0.059 A 
HETATM   12  CBG   D T 601       9.771  -5.220  -0.196  1.00 29.83     0.016 A 
ENDROOT
BRANCH  10  13
HETATM   13  NAU   D T 601      10.265  -7.745  -0.288  1.00 42.81    -0.249 NA
BRANCH  13  14
HETATM   14  CBB   D T 601       9.140  -8.223  -1.067  1.00 45.16     0.072 A 
HETATM   15  CAJ   D T 601       9.157  -8.064  -2.561  1.00 44.00     0.098 A 
HETATM   16  CAX   D T 601       7.988  -8.532  -3.367  1.00 48.51     0.085 A 
HETATM   17  CAY   D T 601       6.811  -9.162  -2.672  1.00 53.02     0.059 A 
HETATM   18 CL1    D T 601       5.460  -9.705  -3.601  1.00 53.68    -0.085 Cl
HETATM   19  CAI   D T 601       6.797  -9.318  -1.189  1.00 46.30     0.079 A 
HETATM   20  CAZ   D T 601       7.959  -8.848  -0.376  1.00 49.16     0.055 A 
HETATM   21 CL2    D T 601       7.951  -9.022   1.351  1.00 67.83    -0.085 Cl
BRANCH  16  22
HETATM   22  O02   D T 601       8.001  -8.396  -4.736  1.00 43.57    -0.331 OA
HETATM   23  C01   D T 601       9.117  -7.869  -5.374  1.00 43.07     0.181 C 
ENDBRANCH  16  22
ENDBRANCH  13  14
ENDBRANCH  10  13
BRANCH   8  24
HETATM   24  OAV   D T 601       9.240  -3.978  -3.762  1.00 30.98    -0.330 OA
HETATM   25  CAA   D T 601      10.387  -3.944  -4.551  1.00 22.69     0.181 C 
ENDBRANCH   8  24
BRANCH   9  26
HETATM   26  OAW   D T 601       8.857  -1.469  -2.212  1.00 39.27    -0.333 OA
BRANCH  26  27
HETATM   27  CAN   D T 601       7.987  -1.434  -3.306  1.00 36.89     0.150 C 
BRANCH  27  28
HETATM   28  CAM   D T 601       8.650  -0.577  -4.384  1.00 37.41     0.056 C 
BRANCH  28  29
HETATM   29  CAC   D T 601       7.697  -0.447  -5.564  1.00 48.04     0.100 C 
BRANCH  29  30
HETATM   30  NBH   D T 601       8.107   0.743  -6.376  1.00 56.69    -0.365 N 
HETATM   31  CAP   D T 601       8.923   1.839  -5.859  1.00 58.94     0.121 C 
HETATM   32  CAR   D T 601       9.593   2.547  -7.049  1.00 60.67     0.121 C 
HETATM   33  NBI   D T 601       8.581   2.957  -7.987  1.00 64.46    -0.364 N 
HETATM   34  CAO   D T 601       8.177   4.355  -7.986  1.00 72.62     0.121 C 
HETATM   35  CAS   D T 601       7.735   1.898  -8.450  1.00 59.00     0.121 C 
HETATM   36  CAQ   D T 601       7.094   1.238  -7.272  1.00 59.44     0.121 C 
ENDBRANCH  29  30
ENDBRANCH  28  29
ENDBRANCH  27  28
ENDBRANCH  26  27
ENDBRANCH   9  26
TORSDOF 9
ENDMDL
MODEL 5
REMARK VINA RESULT:    -6.833     18.085     20.104
REMARK INTER + INTRA:         -11.219
REMARK INTER:                  -9.765
REMARK INTRA:                  -1.454
REMARK UNBOUND:                -0.791
REMARK  9 active torsions:
REMARK  status: ('A' for Active; 'I' for Inactive)
REMARK    1  A    between atoms: O02_2  and  CAX_24 
REMARK    2  A    between atoms: CAC_3  and  CAM_13 
REMARK    3  A    between atoms: CAC_3  and  NBH_34 
REMARK    4  A    between atoms: CAM_13  and  CAN_14 
REMARK    5  A    between atoms: CAN_14  and  OAW_23 
REMARK    6  A    between atoms: NAU_21  and  CBB_28 
REMARK    7  A    between atoms: NAU_21  and  CBE_31 
REMARK    8  A    between atoms: OAV_22  and  CBC_29 
REMARK    9  A    between atoms: OAW_23  and  CBD_30 
ROOT
HETATM    1  NAD   D T 601       0.078  12.243  -9.360  1.00 32.70    -0.191 NA
HETATM    2  CAG   D T 601       0.006  11.905 -10.435  1.00 31.24     0.100 C 
HETATM    3  CAH   D T 601      -1.341  11.735 -12.621  1.00 28.83     0.163 A 
HETATM    4  CAK   D T 601      -0.618  10.260 -16.136  1.00 26.08     0.098 A 
HETATM    5  CAL   D T 601       1.971   9.616 -14.706  1.00 26.85     0.082 A 
HETATM    6  NAT   D T 601      -1.495  11.341 -13.991  1.00 34.24    -0.269 NA
HETATM    7  CBA   D T 601      -0.089  11.450 -11.854  1.00 30.42     0.088 A 
HETATM    8  CBC   D T 601       1.776   9.233 -16.138  1.00 23.70     0.095 A 
HETATM    9  CBD   D T 601       0.493   9.546 -16.830  1.00 25.38     0.096 A 
HETATM   10  CBE   D T 601       1.068  10.738 -12.537  1.00 37.17     0.086 A 
HETATM   11  CBF   D T 601      -0.441  10.660 -14.690  1.00 28.08     0.059 A 
HETATM   12  CBG   D T 601       0.864  10.332 -13.992  1.00 29.83     0.016 A 
ENDROOT
BRANCH  10  13
HETATM   13  NAU   D T 601       2.340  10.400 -11.884  1.00 42.81    -0.249 NA
BRANCH  13  14
HETATM   14  CBB   D T 601       3.333  11.441 -11.715  1.00 45.16     0.072 A 
HETATM   15  CAJ   D T 601       3.731  12.280 -12.897  1.00 44.00     0.098 A 
HETATM   16  CAX   D T 601       4.773  13.339 -12.733  1.00 48.51     0.085 A 
HETATM   17  CAY   D T 601       5.408  13.555 -11.387  1.00 53.02     0.059 A 
HETATM   18 CL1    D T 601       6.611  14.779 -11.195  1.00 53.68    -0.085 Cl
HETATM   19  CAI   D T 601       5.011  12.721 -10.216  1.00 46.30     0.079 A 
HETATM   20  CAZ   D T 601       3.973  11.658 -10.371  1.00 49.16     0.055 A 
HETATM   21 CL2    D T 601       3.508  10.679  -9.015  1.00 67.83    -0.085 Cl
BRANCH  16  22
HETATM   22  O02   D T 601       5.137  14.114 -13.811  1.00 43.57    -0.331 OA
HETATM   23  C01   D T 601       5.785  13.540 -14.896  1.00 43.07     0.181 C 
ENDBRANCH  16  22
ENDBRANCH  13  14
ENDBRANCH  10  13
BRANCH   8  24
HETATM   24  OAV   D T 601       2.819   8.586 -16.761  1.00 30.98    -0.330 OA
HETATM   25  CAA   D T 601       3.935   8.185 -16.030  1.00 22.69     0.181 C 
ENDBRANCH   8  24
BRANCH   9  26
HETATM   26  OAW   D T 601       0.266   9.203 -18.157  1.00 39.27    -0.333 OA
BRANCH  26  27
HETATM   27  CAN   D T 601      -0.866   8.455 -18.493  1.00 36.89     0.150 C 
BRANCH  27  28
HETATM   28  CAM   D T 601      -0.592   7.009 -18.081  1.00 37.41     0.056 C 
BRANCH  28  29
HETATM   29  CAC   D T 601      -1.235   6.077 -19.099  1.00 48.04     0.100 C 
BRANCH  29  30
HETATM   30  NBH   D T 601      -2.163   5.151 -18.375  1.00 56.69    -0.365 N 
HETATM   31  CAP   D T 601      -2.423   5.219 -16.938  1.00 58.94     0.121 C 
HETATM   32  CAR   D T 601      -3.778   4.545 -16.659  1.00 60.67     0.121 C 
HETATM   33  NBI   D T 601      -3.761   3.208 -17.193  1.00 64.46    -0.364 N 
HETATM   34  CAO   D T 601      -3.552   2.106 -16.266  1.00 72.62     0.121 C 
HETATM   35  CAS   D T 601      -3.443   3.129 -18.587  1.00 59.00     0.121 C 
HETATM   36  CAQ   D T 601      -2.120   3.783 -18.823  1.00 59.44     0.121 C 
ENDBRANCH  29  30
ENDBRANCH  28  29
ENDBRANCH  27  28
ENDBRANCH  26  27
ENDBRANCH   9  26
TORSDOF 9
ENDMDL
MODEL 6
REMARK VINA RESULT:    -6.616     18.594     20.839
REMARK INTER + INTRA:         -10.889
REMARK INTER:                  -9.267
REMARK INTRA:                  -1.622
REMARK UNBOUND:                -0.791
REMARK  9 active torsions:
REMARK  status: ('A' for Active; 'I' for Inactive)
REMARK    1  A    between atoms: O02_2  and  CAX_24 
REMARK    2  A    between atoms: CAC_3  and  CAM_13 
REMARK    3  A    between atoms: CAC_3  and  NBH_34 
REMARK    4  A    between atoms: CAM_13  and  CAN_14 
REMARK    5  A    between atoms: CAN_14  and  OAW_23 
REMARK    6  A    between atoms: NAU_21  and  CBB_28 
REMARK    7  A    between atoms: NAU_21  and  CBE_31 
REMARK    8  A    between atoms: OAV_22  and  CBC_29 
REMARK    9  A    between atoms: OAW_23  and  CBD_30 
ROOT
HETATM    1  NAD   D T 601       5.706  12.638 -10.640  1.00 32.70    -0.191 NA
HETATM    2  CAG   D T 601       4.664  12.228 -10.782  1.00 31.24     0.100 C 
HETATM    3  CAH   D T 601       2.285  11.853  -9.873  1.00 28.83     0.163 A 
HETATM    4  CAK   D T 601      -0.919  10.185 -11.288  1.00 26.08     0.098 A 
HETATM    5  CAL   D T 601       1.006   9.756 -13.584  1.00 26.85     0.082 A 
HETATM    6  NAT   D T 601       0.942  11.363  -9.991  1.00 34.24    -0.269 NA
HETATM    7  CBA   D T 601       3.288  11.676 -10.969  1.00 30.42     0.088 A 
HETATM    8  CBC   D T 601      -0.406   9.272 -13.674  1.00 23.70     0.095 A 
HETATM    9  CBD   D T 601      -1.344   9.479 -12.532  1.00 25.38     0.096 A 
HETATM   10  CBE   D T 601       2.883  10.975 -12.256  1.00 37.17     0.086 A 
HETATM   11  CBF   D T 601       0.501  10.687 -11.179  1.00 28.08     0.059 A 
HETATM   12  CBG   D T 601       1.449  10.466 -12.341  1.00 29.83     0.016 A 
ENDROOT
BRANCH  10  13
HETATM   13  NAU   D T 601       3.782  10.739 -13.393  1.00 42.81    -0.249 NA
BRANCH  13  14
HETATM   14  CBB   D T 601       4.254  11.879 -14.154  1.00 45.16     0.072 A 
HETATM   15  CAJ   D T 601       3.258  12.782 -14.825  1.00 44.00     0.098 A 
HETATM   16  CAX   D T 601       3.740  13.944 -15.632  1.00 48.51     0.085 A 
HETATM   17  CAY   D T 601       5.218  14.199 -15.759  1.00 53.02     0.059 A 
HETATM   18 CL1    D T 601       5.778  15.542 -16.689  1.00 53.68    -0.085 Cl
HETATM   19  CAI   D T 601       6.204  13.300 -15.092  1.00 46.30     0.079 A 
HETATM   20  CAZ   D T 601       5.731  12.134 -14.287  1.00 49.16     0.055 A 
HETATM   21 CL2    D T 601       6.871  11.081 -13.511  1.00 67.83    -0.085 Cl
BRANCH  16  22
HETATM   22  O02   D T 601       2.832  14.778 -16.243  1.00 43.57    -0.331 OA
HETATM   23  C01   D T 601       2.037  14.305 -17.278  1.00 43.07     0.181 C 
ENDBRANCH  16  22
ENDBRANCH  13  14
ENDBRANCH  10  13
BRANCH   8  24
HETATM   24  OAV   D T 601      -0.778   8.634 -14.836  1.00 30.98    -0.330 OA
HETATM   25  CAA   D T 601      -0.273   7.371 -15.137  1.00 22.69     0.181 C 
ENDBRANCH   8  24
BRANCH   9  26
HETATM   26  OAW   D T 601      -2.660   9.039 -12.569  1.00 39.27    -0.333 OA
BRANCH  26  27
HETATM   27  CAN   D T 601      -3.507   9.302 -11.488  1.00 36.89     0.150 C 
BRANCH  27  28
HETATM   28  CAM   D T 601      -4.326  10.542 -11.845  1.00 37.41     0.056 C 
BRANCH  28  29
HETATM   29  CAC   D T 601      -4.790  11.213 -10.560  1.00 48.04     0.100 C 
BRANCH  29  30
HETATM   30  NBH   D T 601      -4.094  12.533 -10.436  1.00 56.69    -0.365 N 
HETATM   31  CAP   D T 601      -4.715  13.731  -9.874  1.00 58.94     0.121 C 
HETATM   32  CAR   D T 601      -3.599  14.676  -9.396  1.00 60.67     0.121 C 
HETATM   33  NBI   D T 601      -2.698  14.935 -10.488  1.00 64.46    -0.364 N 
HETATM   34  CAO   D T 601      -2.826  16.203 -11.191  1.00 72.62     0.121 C 
HETATM   35  CAS   D T 601      -2.135  13.762 -11.087  1.00 59.00     0.121 C 
HETATM   36  CAQ   D T 601      -3.243  12.872 -11.548  1.00 59.44     0.121 C 
ENDBRANCH  29  30
ENDBRANCH  28  29
ENDBRANCH  27  28
ENDBRANCH  26  27
ENDBRANCH   9  26
TORSDOF 9
ENDMDL
MODEL 7
REMARK VINA RESULT:    -6.597      4.100     10.443
REMARK INTER + INTRA:         -10.859
REMARK INTER:                  -9.601
REMARK INTRA:                  -1.258
REMARK UNBOUND:                -0.791
REMARK  9 active torsions:
REMARK  status: ('A' for Active; 'I' for Inactive)
REMARK    1  A    between atoms: O02_2  and  CAX_24 
REMARK    2  A    between atoms: CAC_3  and  CAM_13 
REMARK    3  A    between atoms: CAC_3  and  NBH_34 
REMARK    4  A    between atoms: CAM_13  and  CAN_14 
REMARK    5  A    between atoms: CAN_14  and  OAW_23 
REMARK    6  A    between atoms: NAU_21  and  CBB_28 
REMARK    7  A    between atoms: NAU_21  and  CBE_31 
REMARK    8  A    between atoms: OAV_22  and  CBC_29 
REMARK    9  A    between atoms: OAW_23  and  CBD_30 
ROOT
HETATM    1  NAD   D T 601      14.316  -3.613   4.618  1.00 32.70    -0.191 NA
HETATM    2  CAG   D T 601      13.603  -3.278   3.810  1.00 31.24     0.100 C 
HETATM    3  CAH   D T 601      12.258  -1.399   2.677  1.00 28.83     0.163 A 
HETATM    4  CAK   D T 601       9.877  -1.243  -0.382  1.00 26.08     0.098 A 
HETATM    5  CAL   D T 601      10.587  -4.185  -0.365  1.00 26.85     0.082 A 
HETATM    6  NAT   D T 601      11.362  -0.906   1.671  1.00 34.24    -0.269 NA
HETATM    7  CBA   D T 601      12.652  -2.841   2.744  1.00 30.42     0.088 A 
HETATM    8  CBC   D T 601       9.667  -3.630  -1.404  1.00 23.70     0.095 A 
HETATM    9  CBD   D T 601       9.315  -2.180  -1.398  1.00 25.38     0.096 A 
HETATM   10  CBE   D T 601      12.110  -3.819   1.715  1.00 37.17     0.086 A 
HETATM   11  CBF   D T 601      10.812  -1.781   0.675  1.00 28.08     0.059 A 
HETATM   12  CBG   D T 601      11.158  -3.257   0.664  1.00 29.83     0.016 A 
ENDROOT
BRANCH  10  13
HETATM   13  NAU   D T 601      12.421  -5.254   1.685  1.00 42.81    -0.249 NA
BRANCH  13  14
HETATM   14  CBB   D T 601      11.437  -6.190   2.191  1.00 45.16     0.072 A 
HETATM   15  CAJ   D T 601      10.706  -5.874   3.466  1.00 44.00     0.098 A 
HETATM   16  CAX   D T 601       9.708  -6.848   4.005  1.00 48.51     0.085 A 
HETATM   17  CAY   D T 601       9.443  -8.129   3.263  1.00 53.02     0.059 A 
HETATM   18 CL1    D T 601       8.289  -9.254   3.883  1.00 53.68    -0.085 Cl
HETATM   19  CAI   D T 601      10.171  -8.440   1.998  1.00 46.30     0.079 A 
HETATM   20  CAZ   D T 601      11.173  -7.475   1.454  1.00 49.16     0.055 A 
HETATM   21 CL2    D T 601      12.027  -7.829  -0.015  1.00 67.83    -0.085 Cl
BRANCH  16  22
HETATM   22  O02   D T 601       9.031  -6.561   5.169  1.00 43.57    -0.331 OA
HETATM   23  C01   D T 601       9.269  -5.367   5.837  1.00 43.07     0.181 C 
ENDBRANCH  16  22
ENDBRANCH  13  14
ENDBRANCH  10  13
BRANCH   8  24
HETATM   24  OAV   D T 601       9.171  -4.512  -2.338  1.00 30.98    -0.330 OA
HETATM   25  CAA   D T 601       9.678  -4.522  -3.635  1.00 22.69     0.181 C 
ENDBRANCH   8  24
BRANCH   9  26
HETATM   26  OAW   D T 601       8.459  -1.624  -2.339  1.00 39.27    -0.333 OA
BRANCH  26  27
HETATM   27  CAN   D T 601       8.792  -0.407  -2.942  1.00 36.89     0.150 C 
BRANCH  27  28
HETATM   28  CAM   D T 601       8.948  -0.672  -4.439  1.00 37.41     0.056 C 
BRANCH  28  29
HETATM   29  CAC   D T 601       9.675   0.506  -5.074  1.00 48.04     0.100 C 
BRANCH  29  30
HETATM   30  NBH   D T 601       8.884   0.970  -6.257  1.00 56.69    -0.365 N 
HETATM   31  CAP   D T 601       8.609   2.375  -6.553  1.00 58.94     0.121 C 
HETATM   32  CAR   D T 601       8.296   2.501  -8.054  1.00 60.67     0.121 C 
HETATM   33  NBI   D T 601       7.220   1.606  -8.390  1.00 64.46    -0.364 N 
HETATM   34  CAO   D T 601       5.887   2.170  -8.543  1.00 72.62     0.121 C 
HETATM   35  CAS   D T 601       7.454   0.236  -8.044  1.00 59.00     0.121 C 
HETATM   36  CAQ   D T 601       7.746   0.147  -6.581  1.00 59.44     0.121 C 
ENDBRANCH  29  30
ENDBRANCH  28  29
ENDBRANCH  27  28
ENDBRANCH  26  27
ENDBRANCH   9  26
TORSDOF 9
ENDMDL
MODEL 8
REMARK VINA RESULT:    -6.553      3.185      5.324
REMARK INTER + INTRA:         -10.792
REMARK INTER:                 -10.143
REMARK INTRA:                  -0.649
REMARK UNBOUND:                -0.791
REMARK  9 active torsions:
REMARK  status: ('A' for Active; 'I' for Inactive)
REMARK    1  A    between atoms: O02_2  and  CAX_24 
REMARK    2  A    between atoms: CAC_3  and  CAM_13 
REMARK    3  A    between atoms: CAC_3  and  NBH_34 
REMARK    4  A    between atoms: CAM_13  and  CAN_14 
REMARK    5  A    between atoms: CAN_14  and  OAW_23 
REMARK    6  A    between atoms: NAU_21  and  CBB_28 
REMARK    7  A    between atoms: NAU_21  and  CBE_31 
REMARK    8  A    between atoms: OAV_22  and  CBC_29 
REMARK    9  A    between atoms: OAW_23  and  CBD_30 
ROOT
HETATM    1  NAD   D T 601       7.245  -2.421  -7.112  1.00 32.70    -0.191 NA
HETATM    2  CAG   D T 601       7.766  -2.824  -6.196  1.00 31.24     0.100 C 
HETATM    3  CAH   D T 601       9.002  -4.746  -5.013  1.00 28.83     0.163 A 
HETATM    4  CAK   D T 601      10.597  -5.182  -1.503  1.00 26.08     0.098 A 
HETATM    5  CAL   D T 601       9.527  -2.358  -1.294  1.00 26.85     0.082 A 
HETATM    6  NAT   D T 601       9.682  -5.317  -3.887  1.00 34.24    -0.269 NA
HETATM    7  CBA   D T 601       8.449  -3.357  -4.979  1.00 30.42     0.088 A 
HETATM    8  CBC   D T 601      10.254  -2.984  -0.147  1.00 23.70     0.095 A 
HETATM    9  CBD   D T 601      10.768  -4.380  -0.256  1.00 25.38     0.096 A 
HETATM   10  CBE   D T 601       8.620  -2.508  -3.730  1.00 37.17     0.086 A 
HETATM   11  CBF   D T 601       9.870  -4.568  -2.676  1.00 28.08     0.059 A 
HETATM   12  CBG   D T 601       9.345  -3.151  -2.553  1.00 29.83     0.016 A 
ENDROOT
BRANCH  10  13
HETATM   13  NAU   D T 601       8.114  -1.137  -3.580  1.00 42.81    -0.249 NA
BRANCH  13  14
HETATM   14  CBB   D T 601       8.512  -0.138  -4.552  1.00 45.16     0.072 A 
HETATM   15  CAJ   D T 601       7.510   0.350  -5.559  1.00 44.00     0.098 A 
HETATM   16  CAX   D T 601       7.922   1.361  -6.581  1.00 48.51     0.085 A 
HETATM   17  CAY   D T 601       9.334   1.881  -6.584  1.00 53.02     0.059 A 
HETATM   18 CL1    D T 601       9.812   3.050  -7.762  1.00 53.68    -0.085 Cl
HETATM   19  CAI   D T 601      10.326   1.393  -5.583  1.00 46.30     0.079 A 
HETATM   20  CAZ   D T 601       9.924   0.380  -4.562  1.00 49.16     0.055 A 
HETATM   21 CL2    D T 601      11.073  -0.196  -3.396  1.00 67.83    -0.085 Cl
BRANCH  16  22
HETATM   22  O02   D T 601       7.006   1.818  -7.501  1.00 43.57    -0.331 OA
HETATM   23  C01   D T 601       6.738   1.076  -8.644  1.00 43.07     0.181 C 
ENDBRANCH  16  22
ENDBRANCH  13  14
ENDBRANCH  10  13
BRANCH   8  24
HETATM   24  OAV   D T 601      10.409  -2.221   0.988  1.00 30.98    -0.330 OA
HETATM   25  CAA   D T 601      11.423  -1.269   1.062  1.00 22.69     0.181 C 
ENDBRANCH   8  24
BRANCH   9  26
HETATM   26  OAW   D T 601      11.441  -5.003   0.786  1.00 39.27    -0.333 OA
BRANCH  26  27
HETATM   27  CAN   D T 601      12.797  -5.312   0.647  1.00 36.89     0.150 C 
BRANCH  27  28
HETATM   28  CAM   D T 601      13.580  -4.016   0.853  1.00 37.41     0.056 C 
BRANCH  28  29
HETATM   29  CAC   D T 601      14.964  -4.174   0.240  1.00 48.04     0.100 C 
BRANCH  29  30
HETATM   30  NBH   D T 601      15.694  -2.873   0.375  1.00 56.69    -0.365 N 
HETATM   31  CAP   D T 601      15.364  -1.671  -0.389  1.00 58.94     0.121 C 
HETATM   32  CAR   D T 601      15.897  -0.448   0.378  1.00 60.67     0.121 C 
HETATM   33  NBI   D T 601      17.304  -0.623   0.626  1.00 64.46    -0.364 N 
HETATM   34  CAO   D T 601      18.241   0.093  -0.229  1.00 72.62     0.121 C 
HETATM   35  CAS   D T 601      17.642  -1.830   1.317  1.00 59.00     0.121 C 
HETATM   36  CAQ   D T 601      17.119  -2.996   0.544  1.00 59.44     0.121 C 
ENDBRANCH  29  30
ENDBRANCH  28  29
ENDBRANCH  27  28
ENDBRANCH  26  27
ENDBRANCH   9  26
TORSDOF 9
ENDMDL
MODEL 9
REMARK VINA RESULT:    -6.505     18.799     21.044
REMARK INTER + INTRA:         -10.719
REMARK INTER:                  -8.401
REMARK INTRA:                  -2.318
REMARK UNBOUND:                -0.791
REMARK  9 active torsions:
REMARK  status: ('A' for Active; 'I' for Inactive)
REMARK    1  A    between atoms: O02_2  and  CAX_24 
REMARK    2  A    between atoms: CAC_3  and  CAM_13 
REMARK    3  A    between atoms: CAC_3  and  NBH_34 
REMARK    4  A    between atoms: CAM_13  and  CAN_14 
REMARK    5  A    between atoms: CAN_14  and  OAW_23 
REMARK    6  A    between atoms: NAU_21  and  CBB_28 
REMARK    7  A    between atoms: NAU_21  and  CBE_31 
REMARK    8  A    between atoms: OAV_22  and  CBC_29 
REMARK    9  A    between atoms: OAW_23  and  CBD_30 
ROOT
HETATM    1  NAD   D T 601       5.500  12.914 -10.635  1.00 32.70    -0.191 NA
HETATM    2  CAG   D T 601       4.478  12.461 -10.795  1.00 31.24     0.100 C 
HETATM    3  CAH   D T 601       2.076  12.059  -9.966  1.00 28.83     0.163 A 
HETATM    4  CAK   D T 601      -1.011  10.205 -11.412  1.00 26.08     0.098 A 
HETATM    5  CAL   D T 601       1.025   9.709 -13.596  1.00 26.85     0.082 A 
HETATM    6  NAT   D T 601       0.755  11.518 -10.110  1.00 34.24    -0.269 NA
HETATM    7  CBA   D T 601       3.130  11.854 -11.006  1.00 30.42     0.088 A 
HETATM    8  CBC   D T 601      -0.365   9.172 -13.715  1.00 23.70     0.095 A 
HETATM    9  CBD   D T 601      -1.358   9.414 -12.629  1.00 25.38     0.096 A 
HETATM   10  CBE   D T 601       2.804  11.065 -12.265  1.00 37.17     0.086 A 
HETATM   11  CBF   D T 601       0.387  10.760 -11.273  1.00 28.08     0.059 A 
HETATM   12  CBG   D T 601       1.392  10.504 -12.379  1.00 29.83     0.016 A 
ENDROOT
BRANCH  10  13
HETATM   13  NAU   D T 601       3.759  10.795 -13.348  1.00 42.81    -0.249 NA
BRANCH  13  14
HETATM   14  CBB   D T 601       4.255  11.908 -14.133  1.00 45.16     0.072 A 
HETATM   15  CAJ   D T 601       3.278  12.800 -14.846  1.00 44.00     0.098 A 
HETATM   16  CAX   D T 601       3.785  13.935 -15.677  1.00 48.51     0.085 A 
HETATM   17  CAY   D T 601       5.267  14.173 -15.785  1.00 53.02     0.059 A 
HETATM   18 CL1    D T 601       5.855  15.484 -16.742  1.00 53.68    -0.085 Cl
HETATM   19  CAI   D T 601       6.233  13.285 -15.076  1.00 46.30     0.079 A 
HETATM   20  CAZ   D T 601       5.735  12.146 -14.247  1.00 49.16     0.055 A 
HETATM   21 CL2    D T 601       6.852  11.105 -13.421  1.00 67.83    -0.085 Cl
BRANCH  16  22
HETATM   22  O02   D T 601       2.895  14.760 -16.327  1.00 43.57    -0.331 OA
HETATM   23  C01   D T 601       2.490  14.465 -17.621  1.00 43.07     0.181 C 
ENDBRANCH  16  22
ENDBRANCH  13  14
ENDBRANCH  10  13
BRANCH   8  24
HETATM   24  OAV   D T 601      -0.666   8.456 -14.852  1.00 30.98    -0.330 OA
HETATM   25  CAA   D T 601       0.347   8.067 -15.725  1.00 22.69     0.181 C 
ENDBRANCH   8  24
BRANCH   9  26
HETATM   26  OAW   D T 601      -2.657   8.928 -12.693  1.00 39.27    -0.333 OA
BRANCH  26  27
HETATM   27  CAN   D T 601      -3.725   9.823 -12.813  1.00 36.89     0.150 C 
BRANCH  27  28
HETATM   28  CAM   D T 601      -3.933  10.082 -14.305  1.00 37.41     0.056 C 
BRANCH  28  29
HETATM   29  CAC   D T 601      -3.679  11.556 -14.588  1.00 48.04     0.100 C 
BRANCH  29  30
HETATM   30  NBH   D T 601      -2.647  11.660 -15.668  1.00 56.69    -0.365 N 
HETATM   31  CAP   D T 601      -2.469  10.665 -16.724  1.00 58.94     0.121 C 
HETATM   32  CAR   D T 601      -1.763  11.341 -17.912  1.00 60.67     0.121 C 
HETATM   33  NBI   D T 601      -0.537  11.942 -17.455  1.00 64.46    -0.364 N 
HETATM   34  CAO   D T 601       0.708  11.237 -17.720  1.00 72.62     0.121 C 
HETATM   35  CAS   D T 601      -0.696  12.871 -16.376  1.00 59.00     0.121 C 
HETATM   36  CAQ   D T 601      -1.376  12.182 -15.237  1.00 59.44     0.121 C 
ENDBRANCH  29  30
ENDBRANCH  28  29
ENDBRANCH  27  28
ENDBRANCH  26  27
ENDBRANCH   9  26
TORSDOF 9
ENDMDL
