MODEL 1
REMARK VINA RESULT:    -7.586      0.000      0.000
REMARK INTER + INTRA:         -13.039
REMARK INTER:                 -11.577
REMARK INTRA:                  -1.462
REMARK UNBOUND:                -1.462
REMARK  9 active torsions:
REMARK  status: ('A' for Active; 'I' for Inactive)
REMARK    1  A    between atoms: O02_2  and  CAX_24 
REMARK    2  A    between atoms: CAC_3  and  CAM_13 
REMARK    3  A    between atoms: CAC_3  and  NBH_34 
REMARK    4  A    between atoms: CAM_13  and  CAN_14 
REMARK    5  A    between atoms: CAN_14  and  OAW_23 
REMARK    6  A    between atoms: NAU_21  and  CBB_28 
REMARK    7  A    between atoms: NAU_21  and  CBE_31 
REMARK    8  A    between atoms: OAV_22  and  CBC_29 
REMARK    9  A    between atoms: OAW_23  and  CBD_30 
ROOT
HETATM    1  NAD   D T 601      -3.111  -2.101  -8.092  1.00 32.70    -0.191 NA
HETATM    2  CAG   D T 601      -4.147  -1.695  -7.902  1.00 31.24     0.100 C 
HETATM    3  CAH   D T 601      -6.134  -0.245  -8.660  1.00 28.83     0.163 A 
HETATM    4  CAK   D T 601      -9.623   0.560  -7.165  1.00 26.08     0.098 A 
HETATM    5  CAL   D T 601      -8.495  -1.264  -5.028  1.00 26.85     0.082 A 
HETATM    6  NAT   D T 601      -7.449   0.299  -8.487  1.00 34.24    -0.269 NA
HETATM    7  CBA   D T 601      -5.515  -1.154  -7.646  1.00 30.42     0.088 A 
HETATM    8  CBC   D T 601      -9.867  -0.687  -4.890  1.00 23.70     0.095 A 
HETATM    9  CBD   D T 601     -10.410   0.219  -5.945  1.00 25.38     0.096 A 
HETATM   10  CBE   D T 601      -6.297  -1.532  -6.397  1.00 37.17     0.086 A 
HETATM   11  CBF   D T 601      -8.235  -0.017  -7.327  1.00 28.08     0.059 A 
HETATM   12  CBG   D T 601      -7.689  -0.930  -6.248  1.00 29.83     0.016 A 
ENDROOT
BRANCH  10  13
HETATM   13  NAU   D T 601      -5.792  -2.408  -5.333  1.00 42.81    -0.249 NA
BRANCH  13  14
HETATM   14  CBB   D T 601      -5.460  -3.780  -5.662  1.00 45.16     0.072 A 
HETATM   15  CAJ   D T 601      -6.520  -4.680  -6.231  1.00 44.00     0.098 A 
HETATM   16  CAX   D T 601      -6.189  -6.102  -6.549  1.00 48.51     0.085 A 
HETATM   17  CAY   D T 601      -4.798  -6.616  -6.301  1.00 53.02     0.059 A 
HETATM   18 CL1    D T 601      -4.412  -8.258  -6.669  1.00 53.68    -0.085 Cl
HETATM   19  CAI   D T 601      -3.747  -5.720  -5.736  1.00 46.30     0.079 A 
HETATM   20  CAZ   D T 601      -4.070  -4.299  -5.411  1.00 49.16     0.055 A 
HETATM   21 CL2    D T 601      -2.855  -3.250  -4.748  1.00 67.83    -0.085 Cl
BRANCH  16  22
HETATM   22  O02   D T 601      -7.155  -6.929  -7.077  1.00 43.57    -0.331 OA
HETATM   23  C01   D T 601      -8.051  -6.441  -8.020  1.00 43.07     0.181 C 
ENDBRANCH  16  22
ENDBRANCH  13  14
ENDBRANCH  10  13
BRANCH   8  24
HETATM   24  OAV   D T 601     -10.579  -1.024  -3.761  1.00 30.98    -0.330 OA
HETATM   25  CAA   D T 601     -11.502  -2.067  -3.798  1.00 22.69     0.181 C 
ENDBRANCH   8  24
BRANCH   9  26
HETATM   26  OAW   D T 601     -11.674   0.783  -5.853  1.00 39.27    -0.333 OA
BRANCH  26  27
HETATM   27  CAN   D T 601     -11.900   1.833  -4.957  1.00 36.89     0.150 C 
BRANCH  27  28
HETATM   28  CAM   D T 601     -11.345   3.104  -5.599  1.00 37.41     0.056 C 
BRANCH  28  29
HETATM   29  CAC   D T 601     -10.243   3.663  -4.712  1.00 48.04     0.100 C 
BRANCH  29  30
HETATM   30  NBH   D T 601      -9.253   4.379  -5.577  1.00 56.69    -0.365 N 
HETATM   31  CAP   D T 601      -8.132   3.723  -6.249  1.00 58.94     0.121 C 
HETATM   32  CAR   D T 601      -7.703   4.598  -7.438  1.00 60.67     0.121 C 
HETATM   33  NBI   D T 601      -7.413   5.928  -6.969  1.00 64.46    -0.364 N 
HETATM   34  CAO   D T 601      -6.018   6.300  -6.795  1.00 72.62     0.121 C 
HETATM   35  CAS   D T 601      -8.485   6.553  -6.254  1.00 59.00     0.121 C 
HETATM   36  CAQ   D T 601      -8.871   5.684  -5.102  1.00 59.44     0.121 C 
ENDBRANCH  29  30
ENDBRANCH  28  29
ENDBRANCH  27  28
ENDBRANCH  26  27
ENDBRANCH   9  26
TORSDOF 9
ENDMDL
MODEL 2
REMARK VINA RESULT:    -6.945      3.947      9.607
REMARK INTER + INTRA:         -12.060
REMARK INTER:                 -10.732
REMARK INTRA:                  -1.328
REMARK UNBOUND:                -1.462
REMARK  9 active torsions:
REMARK  status: ('A' for Active; 'I' for Inactive)
REMARK    1  A    between atoms: O02_2  and  CAX_24 
REMARK    2  A    between atoms: CAC_3  and  CAM_13 
REMARK    3  A    between atoms: CAC_3  and  NBH_34 
REMARK    4  A    between atoms: CAM_13  and  CAN_14 
REMARK    5  A    between atoms: CAN_14  and  OAW_23 
REMARK    6  A    between atoms: NAU_21  and  CBB_28 
REMARK    7  A    between atoms: NAU_21  and  CBE_31 
REMARK    8  A    between atoms: OAV_22  and  CBC_29 
REMARK    9  A    between atoms: OAW_23  and  CBD_30 
ROOT
HETATM    1  NAD   D T 601     -12.672   4.813  -5.374  1.00 32.70    -0.191 NA
HETATM    2  CAG   D T 601     -12.275   3.855  -5.819  1.00 31.24     0.100 C 
HETATM    3  CAH   D T 601     -12.637   1.778  -7.296  1.00 28.83     0.163 A 
HETATM    4  CAK   D T 601     -10.414  -1.230  -8.327  1.00 26.08     0.098 A 
HETATM    5  CAL   D T 601      -8.512   0.295  -6.531  1.00 26.85     0.082 A 
HETATM    6  NAT   D T 601     -12.194   0.556  -7.900  1.00 34.24    -0.269 NA
HETATM    7  CBA   D T 601     -11.750   2.583  -6.399  1.00 30.42     0.088 A 
HETATM    8  CBC   D T 601      -8.083  -0.977  -7.190  1.00 23.70     0.095 A 
HETATM    9  CBD   D T 601      -9.032  -1.726  -8.065  1.00 25.38     0.096 A 
HETATM   10  CBE   D T 601     -10.331   2.112  -6.124  1.00 37.17     0.086 A 
HETATM   11  CBF   D T 601     -10.866   0.056  -7.674  1.00 28.08     0.059 A 
HETATM   12  CBG   D T 601      -9.899   0.807  -6.782  1.00 29.83     0.016 A 
ENDROOT
BRANCH  10  13
HETATM   13  NAU   D T 601      -9.374   2.814  -5.259  1.00 42.81    -0.249 NA
BRANCH  13  14
HETATM   14  CBB   D T 601      -8.928   4.137  -5.647  1.00 45.16     0.072 A 
HETATM   15  CAJ   D T 601      -8.238   4.325  -6.968  1.00 44.00     0.098 A 
HETATM   16  CAX   D T 601      -7.754   5.684  -7.362  1.00 48.51     0.085 A 
HETATM   17  CAY   D T 601      -7.969   6.848  -6.434  1.00 53.02     0.059 A 
HETATM   18 CL1    D T 601      -7.413   8.419  -6.887  1.00 53.68    -0.085 Cl
HETATM   19  CAI   D T 601      -8.655   6.658  -5.123  1.00 46.30     0.079 A 
HETATM   20  CAZ   D T 601      -9.137   5.303  -4.720  1.00 49.16     0.055 A 
HETATM   21 CL2    D T 601      -9.932   5.071  -3.193  1.00 67.83    -0.085 Cl
BRANCH  16  22
HETATM   22  O02   D T 601      -7.128   5.863  -8.574  1.00 43.57    -0.331 OA
HETATM   23  C01   D T 601      -5.743   5.938  -8.639  1.00 43.07     0.181 C 
ENDBRANCH  16  22
ENDBRANCH  13  14
ENDBRANCH  10  13
BRANCH   8  24
HETATM   24  OAV   D T 601      -6.800  -1.410  -6.943  1.00 30.98    -0.330 OA
HETATM   25  CAA   D T 601      -5.873  -0.556  -6.347  1.00 22.69     0.181 C 
ENDBRANCH   8  24
BRANCH   9  26
HETATM   26  OAW   D T 601      -8.679  -2.914  -8.689  1.00 39.27    -0.333 OA
BRANCH  26  27
HETATM   27  CAN   D T 601      -8.929  -4.132  -8.049  1.00 36.89     0.150 C 
BRANCH  27  28
HETATM   28  CAM   D T 601      -7.768  -5.067  -8.383  1.00 37.41     0.056 C 
BRANCH  28  29
HETATM   29  CAC   D T 601      -7.608  -6.077  -7.256  1.00 48.04     0.100 C 
BRANCH  29  30
HETATM   30  NBH   D T 601      -6.184  -6.052  -6.793  1.00 56.69    -0.365 N 
HETATM   31  CAP   D T 601      -5.520  -7.179  -6.139  1.00 58.94     0.121 C 
HETATM   32  CAR   D T 601      -4.002  -7.016  -6.322  1.00 60.67     0.121 C 
HETATM   33  NBI   D T 601      -3.600  -5.725  -5.827  1.00 64.46    -0.364 N 
HETATM   34  CAO   D T 601      -2.976  -5.663  -4.514  1.00 72.62     0.121 C 
HETATM   35  CAS   D T 601      -4.292  -4.619  -6.417  1.00 59.00     0.121 C 
HETATM   36  CAQ   D T 601      -5.761  -4.803  -6.215  1.00 59.44     0.121 C 
ENDBRANCH  29  30
ENDBRANCH  28  29
ENDBRANCH  27  28
ENDBRANCH  26  27
ENDBRANCH   9  26
TORSDOF 9
ENDMDL
MODEL 3
REMARK VINA RESULT:    -6.765      4.915     11.305
REMARK INTER + INTRA:         -11.786
REMARK INTER:                 -10.504
REMARK INTRA:                  -1.282
REMARK UNBOUND:                -1.462
REMARK  9 active torsions:
REMARK  status: ('A' for Active; 'I' for Inactive)
REMARK    1  A    between atoms: O02_2  and  CAX_24 
REMARK    2  A    between atoms: CAC_3  and  CAM_13 
REMARK    3  A    between atoms: CAC_3  and  NBH_34 
REMARK    4  A    between atoms: CAM_13  and  CAN_14 
REMARK    5  A    between atoms: CAN_14  and  OAW_23 
REMARK    6  A    between atoms: NAU_21  and  CBB_28 
REMARK    7  A    between atoms: NAU_21  and  CBE_31 
REMARK    8  A    between atoms: OAV_22  and  CBC_29 
REMARK    9  A    between atoms: OAW_23  and  CBD_30 
ROOT
HETATM    1  NAD   D T 601      -4.019  -0.187  -5.439  1.00 32.70    -0.191 NA
HETATM    2  CAG   D T 601      -4.138  -1.303  -5.558  1.00 31.24     0.100 C 
HETATM    3  CAH   D T 601      -3.264  -3.685  -5.126  1.00 28.83     0.163 A 
HETATM    4  CAK   D T 601      -4.544  -7.239  -6.011  1.00 26.08     0.098 A 
HETATM    5  CAL   D T 601      -6.699  -5.527  -7.273  1.00 26.85     0.082 A 
HETATM    6  NAT   D T 601      -3.357  -5.112  -5.232  1.00 34.24    -0.269 NA
HETATM    7  CBA   D T 601      -4.293  -2.779  -5.724  1.00 30.42     0.088 A 
HETATM    8  CBC   D T 601      -6.769  -7.018  -7.351  1.00 23.70     0.095 A 
HETATM    9  CBD   D T 601      -5.696  -7.852  -6.735  1.00 25.38     0.096 A 
HETATM   10  CBE   D T 601      -5.486  -3.373  -6.455  1.00 37.17     0.086 A 
HETATM   11  CBF   D T 601      -4.458  -5.733  -5.916  1.00 28.08     0.059 A 
HETATM   12  CBG   D T 601      -5.548  -4.893  -6.550  1.00 29.83     0.016 A 
ENDROOT
BRANCH  10  13
HETATM   13  NAU   D T 601      -6.553  -2.585  -7.086  1.00 42.81    -0.249 NA
BRANCH  13  14
HETATM   14  CBB   D T 601      -7.646  -2.111  -6.261  1.00 45.16     0.072 A 
HETATM   15  CAJ   D T 601      -8.396  -3.086  -5.398  1.00 44.00     0.098 A 
HETATM   16  CAX   D T 601      -9.540  -2.606  -4.563  1.00 48.51     0.085 A 
HETATM   17  CAY   D T 601      -9.924  -1.153  -4.593  1.00 53.02     0.059 A 
HETATM   18 CL1    D T 601     -11.243  -0.595  -3.629  1.00 53.68    -0.085 Cl
HETATM   19  CAI   D T 601      -9.178  -0.187  -5.451  1.00 46.30     0.079 A 
HETATM   20  CAZ   D T 601      -8.036  -0.659  -6.291  1.00 49.16     0.055 A 
HETATM   21 CL2    D T 601      -7.165   0.456  -7.297  1.00 67.83    -0.085 Cl
BRANCH  16  22
HETATM   22  O02   D T 601     -10.225  -3.494  -3.765  1.00 43.57    -0.331 OA
HETATM   23  C01   D T 601     -11.184  -4.333  -4.318  1.00 43.07     0.181 C 
ENDBRANCH  16  22
ENDBRANCH  13  14
ENDBRANCH  10  13
BRANCH   8  24
HETATM   24  OAV   D T 601      -7.845  -7.562  -8.014  1.00 30.98    -0.330 OA
HETATM   25  CAA   D T 601      -9.057  -6.876  -8.068  1.00 22.69     0.181 C 
ENDBRANCH   8  24
BRANCH   9  26
HETATM   26  OAW   D T 601      -5.715  -9.239  -6.791  1.00 39.27    -0.333 OA
BRANCH  26  27
HETATM   27  CAN   D T 601      -4.732  -9.915  -7.519  1.00 36.89     0.150 C 
BRANCH  27  28
HETATM   28  CAM   D T 601      -5.417 -11.075  -8.240  1.00 37.41     0.056 C 
BRANCH  28  29
HETATM   29  CAC   D T 601      -6.615 -11.527  -7.418  1.00 48.04     0.100 C 
BRANCH  29  30
HETATM   30  NBH   D T 601      -6.264 -12.811  -6.733  1.00 56.69    -0.365 N 
HETATM   31  CAP   D T 601      -4.925 -13.399  -6.740  1.00 58.94     0.121 C 
HETATM   32  CAR   D T 601      -4.805 -14.342  -5.531  1.00 60.67     0.121 C 
HETATM   33  NBI   D T 601      -5.874 -15.306  -5.573  1.00 64.46    -0.364 N 
HETATM   34  CAO   D T 601      -5.566 -16.644  -6.054  1.00 72.62     0.121 C 
HETATM   35  CAS   D T 601      -7.186 -14.737  -5.631  1.00 59.00     0.121 C 
HETATM   36  CAQ   D T 601      -7.272 -13.835  -6.819  1.00 59.44     0.121 C 
ENDBRANCH  29  30
ENDBRANCH  28  29
ENDBRANCH  27  28
ENDBRANCH  26  27
ENDBRANCH   9  26
TORSDOF 9
ENDMDL
MODEL 4
REMARK VINA RESULT:    -6.580      3.194      5.732
REMARK INTER + INTRA:         -11.504
REMARK INTER:                  -9.501
REMARK INTRA:                  -2.002
REMARK UNBOUND:                -1.462
REMARK  9 active torsions:
REMARK  status: ('A' for Active; 'I' for Inactive)
REMARK    1  A    between atoms: O02_2  and  CAX_24 
REMARK    2  A    between atoms: CAC_3  and  CAM_13 
REMARK    3  A    between atoms: CAC_3  and  NBH_34 
REMARK    4  A    between atoms: CAM_13  and  CAN_14 
REMARK    5  A    between atoms: CAN_14  and  OAW_23 
REMARK    6  A    between atoms: NAU_21  and  CBB_28 
REMARK    7  A    between atoms: NAU_21  and  CBE_31 
REMARK    8  A    between atoms: OAV_22  and  CBC_29 
REMARK    9  A    between atoms: OAW_23  and  CBD_30 
ROOT
HETATM    1  NAD   D T 601      -3.151  -1.667  -7.709  1.00 32.70    -0.191 NA
HETATM    2  CAG   D T 601      -4.269  -1.514  -7.681  1.00 31.24     0.100 C 
HETATM    3  CAH   D T 601      -6.389  -0.461  -8.691  1.00 28.83     0.163 A 
HETATM    4  CAK   D T 601     -10.161  -0.577  -7.789  1.00 26.08     0.098 A 
HETATM    5  CAL   D T 601      -8.998  -2.313  -5.599  1.00 26.85     0.082 A 
HETATM    6  NAT   D T 601      -7.804  -0.232  -8.721  1.00 34.24    -0.269 NA
HETATM    7  CBA   D T 601      -5.747  -1.308  -7.638  1.00 30.42     0.088 A 
HETATM    8  CBC   D T 601     -10.470  -2.062  -5.670  1.00 23.70     0.095 A 
HETATM    9  CBD   D T 601     -11.032  -1.196  -6.749  1.00 25.38     0.096 A 
HETATM   10  CBE   D T 601      -6.609  -1.966  -6.572  1.00 37.17     0.086 A 
HETATM   11  CBF   D T 601      -8.670  -0.821  -7.737  1.00 28.08     0.059 A 
HETATM   12  CBG   D T 601      -8.108  -1.696  -6.636  1.00 29.83     0.016 A 
ENDROOT
BRANCH  10  13
HETATM   13  NAU   D T 601      -6.092  -2.812  -5.488  1.00 42.81    -0.249 NA
BRANCH  13  14
HETATM   14  CBB   D T 601      -5.664  -4.160  -5.805  1.00 45.16     0.072 A 
HETATM   15  CAJ   D T 601      -6.652  -5.130  -6.388  1.00 44.00     0.098 A 
HETATM   16  CAX   D T 601      -6.222  -6.529  -6.693  1.00 48.51     0.085 A 
HETATM   17  CAY   D T 601      -4.805  -6.948  -6.417  1.00 53.02     0.059 A 
HETATM   18 CL1    D T 601      -4.305  -8.563  -6.770  1.00 53.68    -0.085 Cl
HETATM   19  CAI   D T 601      -3.826  -5.983  -5.838  1.00 46.30     0.079 A 
HETATM   20  CAZ   D T 601      -4.248  -4.585  -5.526  1.00 49.16     0.055 A 
HETATM   21 CL2    D T 601      -3.118  -3.455  -4.847  1.00 67.83    -0.085 Cl
BRANCH  16  22
HETATM   22  O02   D T 601      -7.122  -7.419  -7.234  1.00 43.57    -0.331 OA
HETATM   23  C01   D T 601      -8.134  -6.967  -8.071  1.00 43.07     0.181 C 
ENDBRANCH  16  22
ENDBRANCH  13  14
ENDBRANCH  10  13
BRANCH   8  24
HETATM   24  OAV   D T 601     -11.255  -2.652  -4.707  1.00 30.98    -0.330 OA
HETATM   25  CAA   D T 601     -10.841  -3.829  -4.087  1.00 22.69     0.181 C 
ENDBRANCH   8  24
BRANCH   9  26
HETATM   26  OAW   D T 601     -12.390  -0.930  -6.848  1.00 39.27    -0.333 OA
BRANCH  26  27
HETATM   27  CAN   D T 601     -13.038  -1.091  -8.077  1.00 36.89     0.150 C 
BRANCH  27  28
HETATM   28  CAM   D T 601     -14.360  -1.806  -7.802  1.00 37.41     0.056 C 
BRANCH  28  29
HETATM   29  CAC   D T 601     -14.102  -2.975  -6.863  1.00 48.04     0.100 C 
BRANCH  29  30
HETATM   30  NBH   D T 601     -13.405  -4.056  -7.629  1.00 56.69    -0.365 N 
HETATM   31  CAP   D T 601     -13.908  -4.624  -8.879  1.00 58.94     0.121 C 
HETATM   32  CAR   D T 601     -12.725  -5.248  -9.637  1.00 60.67     0.121 C 
HETATM   33  NBI   D T 601     -12.061  -6.198  -8.782  1.00 64.46    -0.364 N 
HETATM   34  CAO   D T 601     -12.336  -7.611  -8.992  1.00 72.62     0.121 C 
HETATM   35  CAS   D T 601     -11.622  -5.664  -7.528  1.00 59.00     0.121 C 
HETATM   36  CAQ   D T 601     -12.795  -5.074  -6.814  1.00 59.44     0.121 C 
ENDBRANCH  29  30
ENDBRANCH  28  29
ENDBRANCH  27  28
ENDBRANCH  26  27
ENDBRANCH   9  26
TORSDOF 9
ENDMDL
MODEL 5
REMARK VINA RESULT:    -6.558      2.462      3.781
REMARK INTER + INTRA:         -11.469
REMARK INTER:                 -10.038
REMARK INTRA:                  -1.431
REMARK UNBOUND:                -1.462
REMARK  9 active torsions:
REMARK  status: ('A' for Active; 'I' for Inactive)
REMARK    1  A    between atoms: O02_2  and  CAX_24 
REMARK    2  A    between atoms: CAC_3  and  CAM_13 
REMARK    3  A    between atoms: CAC_3  and  NBH_34 
REMARK    4  A    between atoms: CAM_13  and  CAN_14 
REMARK    5  A    between atoms: CAN_14  and  OAW_23 
REMARK    6  A    between atoms: NAU_21  and  CBB_28 
REMARK    7  A    between atoms: NAU_21  and  CBE_31 
REMARK    8  A    between atoms: OAV_22  and  CBC_29 
REMARK    9  A    between atoms: OAW_23  and  CBD_30 
ROOT
HETATM    1  NAD   D T 601      -9.383  -6.457  -8.086  1.00 32.70    -0.191 NA
HETATM    2  CAG   D T 601      -9.714  -5.498  -7.591  1.00 31.24     0.100 C 
HETATM    3  CAH   D T 601     -11.361  -4.248  -6.058  1.00 28.83     0.163 A 
HETATM    4  CAK   D T 601     -11.658  -0.581  -4.825  1.00 26.08     0.098 A 
HETATM    5  CAL   D T 601      -9.205  -0.392  -6.590  1.00 26.85     0.082 A 
HETATM    6  NAT   D T 601     -11.831  -3.069  -5.392  1.00 34.24    -0.269 NA
HETATM    7  CBA   D T 601     -10.155  -4.227  -6.943  1.00 30.42     0.088 A 
HETATM    8  CBC   D T 601      -9.719   0.813  -5.868  1.00 23.70     0.095 A 
HETATM    9  CBD   D T 601     -10.935   0.711  -5.009  1.00 25.38     0.096 A 
HETATM   10  CBE   D T 601      -9.387  -2.930  -7.140  1.00 37.17     0.086 A 
HETATM   11  CBF   D T 601     -11.152  -1.812  -5.542  1.00 28.08     0.059 A 
HETATM   12  CBG   D T 601      -9.921  -1.698  -6.418  1.00 29.83     0.016 A 
ENDROOT
BRANCH  10  13
HETATM   13  NAU   D T 601      -8.196  -2.786  -7.987  1.00 42.81    -0.249 NA
BRANCH  13  14
HETATM   14  CBB   D T 601      -6.896  -3.069  -7.411  1.00 45.16     0.072 A 
HETATM   15  CAJ   D T 601      -6.671  -4.376  -6.706  1.00 44.00     0.098 A 
HETATM   16  CAX   D T 601      -5.340  -4.662  -6.088  1.00 48.51     0.085 A 
HETATM   17  CAY   D T 601      -4.241  -3.641  -6.184  1.00 53.02     0.059 A 
HETATM   18 CL1    D T 601      -2.701  -3.969  -5.474  1.00 53.68    -0.085 Cl
HETATM   19  CAI   D T 601      -4.467  -2.344  -6.885  1.00 46.30     0.079 A 
HETATM   20  CAZ   D T 601      -5.796  -2.048  -7.501  1.00 49.16     0.055 A 
HETATM   21 CL2    D T 601      -6.071  -0.539  -8.315  1.00 67.83    -0.085 Cl
BRANCH  16  22
HETATM   22  O02   D T 601      -5.126  -5.861  -5.447  1.00 43.57    -0.331 OA
HETATM   23  C01   D T 601      -5.153  -7.051  -6.164  1.00 43.07     0.181 C 
ENDBRANCH  16  22
ENDBRANCH  13  14
ENDBRANCH  10  13
BRANCH   8  24
HETATM   24  OAV   D T 601      -9.030   1.991  -6.044  1.00 30.98    -0.330 OA
HETATM   25  CAA   D T 601      -7.952   2.050  -6.924  1.00 22.69     0.181 C 
ENDBRANCH   8  24
BRANCH   9  26
HETATM   26  OAW   D T 601     -11.451   1.804  -4.328  1.00 39.27    -0.333 OA
BRANCH  26  27
HETATM   27  CAN   D T 601     -12.672   2.355  -4.730  1.00 36.89     0.150 C 
BRANCH  27  28
HETATM   28  CAM   D T 601     -12.626   3.847  -4.402  1.00 37.41     0.056 C 
BRANCH  28  29
HETATM   29  CAC   D T 601     -12.442   4.630  -5.694  1.00 48.04     0.100 C 
BRANCH  29  30
HETATM   30  NBH   D T 601     -11.003   5.027  -5.808  1.00 56.69    -0.365 N 
HETATM   31  CAP   D T 601     -10.217   5.568  -4.700  1.00 58.94     0.121 C 
HETATM   32  CAR   D T 601      -8.728   5.328  -5.002  1.00 60.67     0.121 C 
HETATM   33  NBI   D T 601      -8.406   5.894  -6.286  1.00 64.46    -0.364 N 
HETATM   34  CAO   D T 601      -7.723   7.178  -6.312  1.00 72.62     0.121 C 
HETATM   35  CAS   D T 601      -9.216   5.417  -7.366  1.00 59.00     0.121 C 
HETATM   36  CAQ   D T 601     -10.652   5.673  -7.046  1.00 59.44     0.121 C 
ENDBRANCH  29  30
ENDBRANCH  28  29
ENDBRANCH  27  28
ENDBRANCH  26  27
ENDBRANCH   9  26
TORSDOF 9
ENDMDL
MODEL 6
REMARK VINA RESULT:    -6.532      3.926     10.000
REMARK INTER + INTRA:         -11.430
REMARK INTER:                  -9.835
REMARK INTRA:                  -1.596
REMARK UNBOUND:                -1.462
REMARK  9 active torsions:
REMARK  status: ('A' for Active; 'I' for Inactive)
REMARK    1  A    between atoms: O02_2  and  CAX_24 
REMARK    2  A    between atoms: CAC_3  and  CAM_13 
REMARK    3  A    between atoms: CAC_3  and  NBH_34 
REMARK    4  A    between atoms: CAM_13  and  CAN_14 
REMARK    5  A    between atoms: CAN_14  and  OAW_23 
REMARK    6  A    between atoms: NAU_21  and  CBB_28 
REMARK    7  A    between atoms: NAU_21  and  CBE_31 
REMARK    8  A    between atoms: OAV_22  and  CBC_29 
REMARK    9  A    between atoms: OAW_23  and  CBD_30 
ROOT
HETATM    1  NAD   D T 601      -3.683  -0.327  -5.490  1.00 32.70    -0.191 NA
HETATM    2  CAG   D T 601      -3.858  -1.438  -5.591  1.00 31.24     0.100 C 
HETATM    3  CAH   D T 601      -3.120  -3.853  -5.094  1.00 28.83     0.163 A 
HETATM    4  CAK   D T 601      -4.567  -7.353  -5.940  1.00 26.08     0.098 A 
HETATM    5  CAL   D T 601      -6.601  -5.556  -7.282  1.00 26.85     0.082 A 
HETATM    6  NAT   D T 601      -3.287  -5.275  -5.175  1.00 34.24    -0.269 NA
HETATM    7  CBA   D T 601      -4.088  -2.907  -5.732  1.00 30.42     0.088 A 
HETATM    8  CBC   D T 601      -6.747  -7.043  -7.334  1.00 23.70     0.095 A 
HETATM    9  CBD   D T 601      -5.733  -7.920  -6.678  1.00 25.38     0.096 A 
HETATM   10  CBE   D T 601      -5.294  -3.452  -6.479  1.00 37.17     0.086 A 
HETATM   11  CBF   D T 601      -4.403  -5.852  -5.872  1.00 28.08     0.059 A 
HETATM   12  CBG   D T 601      -5.433  -4.969  -6.546  1.00 29.83     0.016 A 
ENDROOT
BRANCH  10  13
HETATM   13  NAU   D T 601      -6.305  -2.623  -7.148  1.00 42.81    -0.249 NA
BRANCH  13  14
HETATM   14  CBB   D T 601      -7.421  -2.125  -6.368  1.00 45.16     0.072 A 
HETATM   15  CAJ   D T 601      -8.180  -3.069  -5.480  1.00 44.00     0.098 A 
HETATM   16  CAX   D T 601      -9.347  -2.565  -4.693  1.00 48.51     0.085 A 
HETATM   17  CAY   D T 601      -9.744  -1.119  -4.796  1.00 53.02     0.059 A 
HETATM   18 CL1    D T 601     -11.090  -0.533  -3.887  1.00 53.68    -0.085 Cl
HETATM   19  CAI   D T 601      -8.988  -0.183  -5.679  1.00 46.30     0.079 A 
HETATM   20  CAZ   D T 601      -7.824  -0.679  -6.472  1.00 49.16     0.055 A 
HETATM   21 CL2    D T 601      -6.941   0.400  -7.506  1.00 67.83    -0.085 Cl
BRANCH  16  22
HETATM   22  O02   D T 601     -10.041  -3.424  -3.872  1.00 43.57    -0.331 OA
HETATM   23  C01   D T 601     -11.201  -4.038  -4.326  1.00 43.07     0.181 C 
ENDBRANCH  16  22
ENDBRANCH  13  14
ENDBRANCH  10  13
BRANCH   8  24
HETATM   24  OAV   D T 601      -7.836  -7.543  -8.010  1.00 30.98    -0.330 OA
HETATM   25  CAA   D T 601      -9.045  -6.851  -8.006  1.00 22.69     0.181 C 
ENDBRANCH   8  24
BRANCH   9  26
HETATM   26  OAW   D T 601      -5.825  -9.304  -6.708  1.00 39.27    -0.333 OA
BRANCH  26  27
HETATM   27  CAN   D T 601      -5.185 -10.017  -7.728  1.00 36.89     0.150 C 
BRANCH  27  28
HETATM   28  CAM   D T 601      -6.211 -10.982  -8.319  1.00 37.41     0.056 C 
BRANCH  28  29
HETATM   29  CAC   D T 601      -7.176 -11.408  -7.222  1.00 48.04     0.100 C 
BRANCH  29  30
HETATM   30  NBH   D T 601      -8.569 -11.081  -7.660  1.00 56.69    -0.365 N 
HETATM   31  CAP   D T 601      -8.923 -10.681  -9.022  1.00 58.94     0.121 C 
HETATM   32  CAR   D T 601     -10.417 -10.973  -9.238  1.00 60.67     0.121 C 
HETATM   33  NBI   D T 601     -11.183 -10.315  -8.212  1.00 64.46    -0.364 N 
HETATM   34  CAO   D T 601     -11.856  -9.073  -8.556  1.00 72.62     0.121 C 
HETATM   35  CAS   D T 601     -10.799 -10.653  -6.874  1.00 59.00     0.121 C 
HETATM   36  CAQ   D T 601      -9.348 -10.349  -6.694  1.00 59.44     0.121 C 
ENDBRANCH  29  30
ENDBRANCH  28  29
ENDBRANCH  27  28
ENDBRANCH  26  27
ENDBRANCH   9  26
TORSDOF 9
ENDMDL
MODEL 7
REMARK VINA RESULT:    -6.240      2.904      4.444
REMARK INTER + INTRA:         -10.985
REMARK INTER:                 -10.373
REMARK INTRA:                  -0.612
REMARK UNBOUND:                -1.462
REMARK  9 active torsions:
REMARK  status: ('A' for Active; 'I' for Inactive)
REMARK    1  A    between atoms: O02_2  and  CAX_24 
REMARK    2  A    between atoms: CAC_3  and  CAM_13 
REMARK    3  A    between atoms: CAC_3  and  NBH_34 
REMARK    4  A    between atoms: CAM_13  and  CAN_14 
REMARK    5  A    between atoms: CAN_14  and  OAW_23 
REMARK    6  A    between atoms: NAU_21  and  CBB_28 
REMARK    7  A    between atoms: NAU_21  and  CBE_31 
REMARK    8  A    between atoms: OAV_22  and  CBC_29 
REMARK    9  A    between atoms: OAW_23  and  CBD_30 
ROOT
HETATM    1  NAD   D T 601     -11.444  -7.451  -7.680  1.00 32.70    -0.191 NA
HETATM    2  CAG   D T 601     -11.354  -6.326  -7.632  1.00 31.24     0.100 C 
HETATM    3  CAH   D T 601     -12.378  -4.045  -7.023  1.00 28.83     0.163 A 
HETATM    4  CAK   D T 601     -11.130  -0.377  -7.231  1.00 26.08     0.098 A 
HETATM    5  CAL   D T 601      -8.748  -1.855  -8.374  1.00 26.85     0.082 A 
HETATM    6  NAT   D T 601     -12.329  -2.615  -6.925  1.00 34.24    -0.269 NA
HETATM    7  CBA   D T 601     -11.237  -4.839  -7.576  1.00 30.42     0.088 A 
HETATM    8  CBC   D T 601      -8.729  -0.365  -8.244  1.00 23.70     0.095 A 
HETATM    9  CBD   D T 601      -9.913   0.354  -7.688  1.00 25.38     0.096 A 
HETATM   10  CBE   D T 601      -9.977  -4.125  -8.038  1.00 37.17     0.086 A 
HETATM   11  CBF   D T 601     -11.168  -1.883  -7.349  1.00 28.08     0.059 A 
HETATM   12  CBG   D T 601      -9.964  -2.605  -7.921  1.00 29.83     0.016 A 
ENDROOT
BRANCH  10  13
HETATM   13  NAU   D T 601      -8.798  -4.796  -8.602  1.00 42.81    -0.249 NA
BRANCH  13  14
HETATM   14  CBB   D T 601      -7.663  -5.048  -7.737  1.00 45.16     0.072 A 
HETATM   15  CAJ   D T 601      -6.885  -3.888  -7.183  1.00 44.00     0.098 A 
HETATM   16  CAX   D T 601      -5.698  -4.143  -6.311  1.00 48.51     0.085 A 
HETATM   17  CAY   D T 601      -5.299  -5.557  -5.993  1.00 53.02     0.059 A 
HETATM   18 CL1    D T 601      -3.930  -5.855  -4.984  1.00 53.68    -0.085 Cl
HETATM   19  CAI   D T 601      -6.074  -6.708  -6.544  1.00 46.30     0.079 A 
HETATM   20  CAZ   D T 601      -7.258  -6.462  -7.420  1.00 49.16     0.055 A 
HETATM   21 CL2    D T 601      -8.162  -7.794  -8.070  1.00 67.83    -0.085 Cl
BRANCH  16  22
HETATM   22  O02   D T 601      -4.987  -3.084  -5.795  1.00 43.57    -0.331 OA
HETATM   23  C01   D T 601      -3.899  -2.570  -6.488  1.00 43.07     0.181 C 
ENDBRANCH  16  22
ENDBRANCH  13  14
ENDBRANCH  10  13
BRANCH   8  24
HETATM   24  OAV   D T 601      -7.592   0.287  -8.662  1.00 30.98    -0.330 OA
HETATM   25  CAA   D T 601      -6.364  -0.372  -8.664  1.00 22.69     0.181 C 
ENDBRANCH   8  24
BRANCH   9  26
HETATM   26  OAW   D T 601      -9.942   1.735  -7.557  1.00 39.27    -0.333 OA
BRANCH  26  27
HETATM   27  CAN   D T 601     -10.140   2.306  -6.296  1.00 36.89     0.150 C 
BRANCH  27  28
HETATM   28  CAM   D T 601      -8.969   3.252  -6.037  1.00 37.41     0.056 C 
BRANCH  28  29
HETATM   29  CAC   D T 601      -9.455   4.687  -6.174  1.00 48.04     0.100 C 
BRANCH  29  30
HETATM   30  NBH   D T 601      -8.339   5.517  -6.727  1.00 56.69    -0.365 N 
HETATM   31  CAP   D T 601      -7.247   4.978  -7.538  1.00 58.94     0.121 C 
HETATM   32  CAR   D T 601      -6.647   6.128  -8.365  1.00 60.67     0.121 C 
HETATM   33  NBI   D T 601      -6.256   7.195  -7.482  1.00 64.46    -0.364 N 
HETATM   34  CAO   D T 601      -4.845   7.321  -7.150  1.00 72.62     0.121 C 
HETATM   35  CAS   D T 601      -7.305   7.684  -6.638  1.00 59.00     0.121 C 
HETATM   36  CAQ   D T 601      -7.859   6.548  -5.843  1.00 59.44     0.121 C 
ENDBRANCH  29  30
ENDBRANCH  28  29
ENDBRANCH  27  28
ENDBRANCH  26  27
ENDBRANCH   9  26
TORSDOF 9
ENDMDL
MODEL 8
REMARK VINA RESULT:    -6.201      5.046     11.656
REMARK INTER + INTRA:         -10.924
REMARK INTER:                 -10.219
REMARK INTRA:                  -0.705
REMARK UNBOUND:                -1.462
REMARK  9 active torsions:
REMARK  status: ('A' for Active; 'I' for Inactive)
REMARK    1  A    between atoms: O02_2  and  CAX_24 
REMARK    2  A    between atoms: CAC_3  and  CAM_13 
REMARK    3  A    between atoms: CAC_3  and  NBH_34 
REMARK    4  A    between atoms: CAM_13  and  CAN_14 
REMARK    5  A    between atoms: CAN_14  and  OAW_23 
REMARK    6  A    between atoms: NAU_21  and  CBB_28 
REMARK    7  A    between atoms: NAU_21  and  CBE_31 
REMARK    8  A    between atoms: OAV_22  and  CBC_29 
REMARK    9  A    between atoms: OAW_23  and  CBD_30 
ROOT
HETATM    1  NAD   D T 601      -5.609  -0.285  -5.976  1.00 32.70    -0.191 NA
HETATM    2  CAG   D T 601      -5.470  -1.404  -6.036  1.00 31.24     0.100 C 
HETATM    3  CAH   D T 601      -4.020  -3.485  -5.601  1.00 28.83     0.163 A 
HETATM    4  CAK   D T 601      -4.496  -7.289  -6.199  1.00 26.08     0.098 A 
HETATM    5  CAL   D T 601      -7.104  -6.209  -7.295  1.00 26.85     0.082 A 
HETATM    6  NAT   D T 601      -3.781  -4.898  -5.639  1.00 34.24    -0.269 NA
HETATM    7  CBA   D T 601      -5.286  -2.883  -6.124  1.00 30.42     0.088 A 
HETATM    8  CBC   D T 601      -6.824  -7.678  -7.305  1.00 23.70     0.095 A 
HETATM    9  CBD   D T 601      -5.531  -8.199  -6.771  1.00 25.38     0.096 A 
HETATM   10  CBE   D T 601      -6.366  -3.784  -6.700  1.00 37.17     0.086 A 
HETATM   11  CBF   D T 601      -4.761  -5.801  -6.176  1.00 28.08     0.059 A 
HETATM   12  CBG   D T 601      -6.073  -5.280  -6.725  1.00 29.83     0.016 A 
ENDROOT
BRANCH  10  13
HETATM   13  NAU   D T 601      -7.644  -3.309  -7.246  1.00 42.81    -0.249 NA
BRANCH  13  14
HETATM   14  CBB   D T 601      -8.440  -2.393  -6.453  1.00 45.16     0.072 A 
HETATM   15  CAJ   D T 601      -8.785  -1.042  -7.011  1.00 44.00     0.098 A 
HETATM   16  CAX   D T 601      -9.585  -0.085  -6.186  1.00 48.51     0.085 A 
HETATM   17  CAY   D T 601     -10.039  -0.488  -4.811  1.00 53.02     0.059 A 
HETATM   18 CL1    D T 601     -10.965   0.615  -3.857  1.00 53.68    -0.085 Cl
HETATM   19  CAI   D T 601      -9.695  -1.831  -4.259  1.00 46.30     0.079 A 
HETATM   20  CAZ   D T 601      -8.892  -2.791  -5.074  1.00 49.16     0.055 A 
HETATM   21 CL2    D T 601      -8.482  -4.354  -4.440  1.00 67.83    -0.085 Cl
BRANCH  16  22
HETATM   22  O02   D T 601      -9.911   1.152  -6.695  1.00 43.57    -0.331 OA
HETATM   23  C01   D T 601      -9.054   1.788  -7.584  1.00 43.07     0.181 C 
ENDBRANCH  16  22
ENDBRANCH  13  14
ENDBRANCH  10  13
BRANCH   8  24
HETATM   24  OAV   D T 601      -7.797  -8.499  -7.827  1.00 30.98    -0.330 OA
HETATM   25  CAA   D T 601      -9.078  -8.005  -8.066  1.00 22.69     0.181 C 
ENDBRANCH   8  24
BRANCH   9  26
HETATM   26  OAW   D T 601      -5.226  -9.553  -6.768  1.00 39.27    -0.333 OA
BRANCH  26  27
HETATM   27  CAN   D T 601      -4.575 -10.117  -7.869  1.00 36.89     0.150 C 
BRANCH  27  28
HETATM   28  CAM   D T 601      -4.933 -11.602  -7.897  1.00 37.41     0.056 C 
BRANCH  28  29
HETATM   29  CAC   D T 601      -6.267 -11.799  -7.191  1.00 48.04     0.100 C 
BRANCH  29  30
HETATM   30  NBH   D T 601      -6.331 -13.206  -6.681  1.00 56.69    -0.365 N 
HETATM   31  CAP   D T 601      -7.562 -13.852  -6.227  1.00 58.94     0.121 C 
HETATM   32  CAR   D T 601      -7.369 -15.375  -6.321  1.00 60.67     0.121 C 
HETATM   33  NBI   D T 601      -6.195 -15.752  -5.578  1.00 64.46    -0.364 N 
HETATM   34  CAO   D T 601      -6.382 -16.328  -4.255  1.00 72.62     0.121 C 
HETATM   35  CAS   D T 601      -4.997 -15.075  -5.974  1.00 59.00     0.121 C 
HETATM   36  CAQ   D T 601      -5.214 -13.601  -5.863  1.00 59.44     0.121 C 
ENDBRANCH  29  30
ENDBRANCH  28  29
ENDBRANCH  27  28
ENDBRANCH  26  27
ENDBRANCH   9  26
TORSDOF 9
ENDMDL
MODEL 9
REMARK VINA RESULT:    -6.137      2.659      4.233
REMARK INTER + INTRA:         -10.828
REMARK INTER:                  -9.603
REMARK INTRA:                  -1.225
REMARK UNBOUND:                -1.462
REMARK  9 active torsions:
REMARK  status: ('A' for Active; 'I' for Inactive)
REMARK    1  A    between atoms: O02_2  and  CAX_24 
REMARK    2  A    between atoms: CAC_3  and  CAM_13 
REMARK    3  A    between atoms: CAC_3  and  NBH_34 
REMARK    4  A    between atoms: CAM_13  and  CAN_14 
REMARK    5  A    between atoms: CAN_14  and  OAW_23 
REMARK    6  A    between atoms: NAU_21  and  CBB_28 
REMARK    7  A    between atoms: NAU_21  and  CBE_31 
REMARK    8  A    between atoms: OAV_22  and  CBC_29 
REMARK    9  A    between atoms: OAW_23  and  CBD_30 
ROOT
HETATM    1  NAD   D T 601      -9.189  -3.805  -8.415  1.00 32.70    -0.191 NA
HETATM    2  CAG   D T 601      -9.751  -2.886  -8.078  1.00 31.24     0.100 C 
HETATM    3  CAH   D T 601     -11.670  -1.207  -8.428  1.00 28.83     0.163 A 
HETATM    4  CAK   D T 601     -12.920   1.916  -6.495  1.00 26.08     0.098 A 
HETATM    5  CAL   D T 601     -10.550   1.105  -4.795  1.00 26.85     0.082 A 
HETATM    6  NAT   D T 601     -12.434  -0.054  -8.052  1.00 34.24    -0.269 NA
HETATM    7  CBA   D T 601     -10.489  -1.666  -7.633  1.00 30.42     0.088 A 
HETATM    8  CBC   D T 601     -11.379   2.294  -4.428  1.00 23.70     0.095 A 
HETATM    9  CBD   D T 601     -12.539   2.691  -5.279  1.00 25.38     0.096 A 
HETATM   10  CBE   D T 601     -10.083  -0.907  -6.380  1.00 37.17     0.086 A 
HETATM   11  CBF   D T 601     -12.098   0.708  -6.881  1.00 28.08     0.059 A 
HETATM   12  CBG   D T 601     -10.918   0.316  -6.016  1.00 29.83     0.016 A 
ENDROOT
BRANCH  10  13
HETATM   13  NAU   D T 601      -8.941  -1.258  -5.526  1.00 42.81    -0.249 NA
BRANCH  13  14
HETATM   14  CBB   D T 601      -7.647  -1.462  -6.146  1.00 45.16     0.072 A 
HETATM   15  CAJ   D T 601      -6.931  -2.767  -5.948  1.00 44.00     0.098 A 
HETATM   16  CAX   D T 601      -5.585  -2.972  -6.565  1.00 48.51     0.085 A 
HETATM   17  CAY   D T 601      -4.965  -1.872  -7.381  1.00 53.02     0.059 A 
HETATM   18 CL1    D T 601      -3.411  -2.106  -8.097  1.00 53.68    -0.085 Cl
HETATM   19  CAI   D T 601      -5.679  -0.577  -7.577  1.00 46.30     0.079 A 
HETATM   20  CAZ   D T 601      -7.022  -0.362  -6.960  1.00 49.16     0.055 A 
HETATM   21 CL2    D T 601      -7.859   1.144  -7.178  1.00 67.83    -0.085 Cl
BRANCH  16  22
HETATM   22  O02   D T 601      -4.927  -4.169  -6.393  1.00 43.57    -0.331 OA
HETATM   23  C01   D T 601      -3.933  -4.287  -5.430  1.00 43.07     0.181 C 
ENDBRANCH  16  22
ENDBRANCH  13  14
ENDBRANCH  10  13
BRANCH   8  24
HETATM   24  OAV   D T 601     -11.015   2.987  -3.296  1.00 30.98    -0.330 OA
HETATM   25  CAA   D T 601     -10.225   4.130  -3.395  1.00 22.69     0.181 C 
ENDBRANCH   8  24
BRANCH   9  26
HETATM   26  OAW   D T 601     -13.330   3.792  -4.980  1.00 39.27    -0.333 OA
BRANCH  26  27
HETATM   27  CAN   D T 601     -13.443   4.833  -5.907  1.00 36.89     0.150 C 
BRANCH  27  28
HETATM   28  CAM   D T 601     -12.804   6.071  -5.279  1.00 37.41     0.056 C 
BRANCH  28  29
HETATM   29  CAC   D T 601     -12.021   6.817  -6.349  1.00 48.04     0.100 C 
BRANCH  29  30
HETATM   30  NBH   D T 601     -10.614   6.305  -6.354  1.00 56.69    -0.365 N 
HETATM   31  CAP   D T 601      -9.450   7.117  -6.000  1.00 58.94     0.121 C 
HETATM   32  CAR   D T 601      -8.313   6.172  -5.576  1.00 60.67     0.121 C 
HETATM   33  NBI   D T 601      -8.071   5.219  -6.627  1.00 64.46    -0.364 N 
HETATM   34  CAO   D T 601      -6.929   5.443  -7.500  1.00 72.62     0.121 C 
HETATM   35  CAS   D T 601      -9.222   4.465  -7.024  1.00 59.00     0.121 C 
HETATM   36  CAQ   D T 601     -10.303   5.410  -7.438  1.00 59.44     0.121 C 
ENDBRANCH  29  30
ENDBRANCH  28  29
ENDBRANCH  27  28
ENDBRANCH  26  27
ENDBRANCH   9  26
TORSDOF 9
ENDMDL
