MODEL 1
REMARK VINA RESULT:    -6.999      0.000      0.000
REMARK INTER + INTRA:          -8.385
REMARK INTER:                  -7.817
REMARK INTRA:                  -0.568
REMARK UNBOUND:                -0.568
REMARK  2 active torsions:
REMARK  status: ('A' for Active; 'I' for Inactive)
REMARK    1  A    between atoms: C4_4  and  C7_7 
REMARK    2  A    between atoms: C5_5  and  C15_15 
ROOT
HETATM    1  N1    D T 609     -22.536   3.762  12.675  1.00 25.15    -0.194 NA
HETATM    2  C2    D T 609     -23.597   2.994  13.144  1.00 24.38     0.239 A 
HETATM    3  C3    D T 609     -21.242   3.249  12.650  1.00 25.66     0.187 A 
HETATM    4  C4    D T 609     -20.945   1.844  13.123  1.00 26.56     0.051 A 
HETATM    5  C5    D T 609     -22.196   1.094  13.618  1.00 25.67     0.065 A 
HETATM    6  N6    D T 609     -23.449   1.671  13.617  1.00 24.80    -0.219 NA
HETATM    7  N13   D T 609     -20.229   4.006  12.187  1.00 25.83    -0.127 N 
HETATM    8  N14   D T 609     -24.877   3.558  13.148  1.00 23.50    -0.060 NA
ENDROOT
BRANCH   4   9
HETATM    9  C7    D T 609     -19.640   1.221  13.119  1.00 29.35     0.000 A 
HETATM   10  C8    D T 609     -18.714   1.286  14.224  1.00 30.48    -0.020 A 
HETATM   11  C9    D T 609     -17.445   0.625  14.181  1.00 33.48     0.064 A 
HETATM   12  C10   D T 609     -17.066  -0.153  12.972  1.00 34.74     0.040 A 
HETATM   13  C11   D T 609     -17.938  -0.253  11.847  1.00 32.11     0.007 A 
HETATM   14 CL1    D T 609     -15.593  -0.868  13.070  1.00 39.15    -0.087 Cl
HETATM   15  C12   D T 609     -19.217   0.426  11.914  1.00 28.93     0.000 A 
ENDBRANCH   4   9
BRANCH   5  16
HETATM   16  C15   D T 609     -22.072  -0.337  14.119  1.00 26.09     0.046 C 
HETATM   17  C16   D T 609     -21.675  -0.566  15.566  1.00 25.80     0.007 C 
ENDBRANCH   5  16
TORSDOF 2
ENDMDL
MODEL 2
REMARK VINA RESULT:    -6.757      0.922      2.680
REMARK INTER + INTRA:          -8.115
REMARK INTER:                  -7.663
REMARK INTRA:                  -0.452
REMARK UNBOUND:                -0.568
REMARK  2 active torsions:
REMARK  status: ('A' for Active; 'I' for Inactive)
REMARK    1  A    between atoms: C4_4  and  C7_7 
REMARK    2  A    between atoms: C5_5  and  C15_15 
ROOT
HETATM    1  N1    D T 609     -23.482   1.634  13.613  1.00 25.15    -0.194 NA
HETATM    2  C2    D T 609     -23.588   2.952  13.181  1.00 24.38     0.239 A 
HETATM    3  C3    D T 609     -22.251   0.984  13.618  1.00 25.66     0.187 A 
HETATM    4  C4    D T 609     -20.991   1.683  13.163  1.00 26.56     0.051 A 
HETATM    5  C5    D T 609     -21.233   3.135  12.710  1.00 25.67     0.065 A 
HETATM    6  N6    D T 609     -22.487   3.713  12.729  1.00 24.80    -0.219 NA
HETATM    7  N13   D T 609     -22.168  -0.291  14.044  1.00 25.83    -0.127 N 
HETATM    8  N14   D T 609     -24.848   3.559  13.196  1.00 23.50    -0.060 NA
ENDROOT
BRANCH   4   9
HETATM    9  C7    D T 609     -19.669   1.096  13.148  1.00 29.35     0.000 A 
HETATM   10  C8    D T 609     -18.726   1.210  14.236  1.00 30.48    -0.020 A 
HETATM   11  C9    D T 609     -17.441   0.584  14.183  1.00 33.48     0.064 A 
HETATM   12  C10   D T 609     -17.060  -0.208  12.984  1.00 34.74     0.040 A 
HETATM   13  C11   D T 609     -17.948  -0.356  11.877  1.00 32.11     0.007 A 
HETATM   14 CL1    D T 609     -15.566  -0.880  13.071  1.00 39.15    -0.087 Cl
HETATM   15  C12   D T 609     -19.245   0.288  11.953  1.00 28.93     0.000 A 
ENDBRANCH   4   9
BRANCH   5  16
HETATM   16  C15   D T 609     -20.066   3.984  12.231  1.00 26.09     0.046 C 
HETATM   17  C16   D T 609     -19.453   3.676  10.877  1.00 25.80     0.007 C 
ENDBRANCH   5  16
TORSDOF 2
ENDMDL
MODEL 3
REMARK VINA RESULT:    -6.669      3.228      5.140
REMARK INTER + INTRA:          -8.017
REMARK INTER:                  -7.439
REMARK INTRA:                  -0.578
REMARK UNBOUND:                -0.568
REMARK  2 active torsions:
REMARK  status: ('A' for Active; 'I' for Inactive)
REMARK    1  A    between atoms: C4_4  and  C7_7 
REMARK    2  A    between atoms: C5_5  and  C15_15 
ROOT
HETATM    1  N1    D T 609     -22.594   2.463  14.066  1.00 25.15    -0.194 NA
HETATM    2  C2    D T 609     -21.400   2.690  13.389  1.00 24.38     0.239 A 
HETATM    3  C3    D T 609     -23.108   1.176  14.191  1.00 25.66     0.187 A 
HETATM    4  C4    D T 609     -22.390  -0.018  13.604  1.00 26.56     0.051 A 
HETATM    5  C5    D T 609     -21.083   0.357  12.881  1.00 25.67     0.065 A 
HETATM    6  N6    D T 609     -20.637   1.660  12.794  1.00 24.80    -0.219 NA
HETATM    7  N13   D T 609     -24.263   0.977  14.855  1.00 25.83    -0.127 N 
HETATM    8  N14   D T 609     -20.927   4.002  13.292  1.00 23.50    -0.060 NA
ENDROOT
BRANCH   4   9
HETATM    9  C7    D T 609     -22.838  -1.390  13.697  1.00 29.35     0.000 A 
HETATM   10  C8    D T 609     -23.633  -2.047  12.688  1.00 30.48    -0.020 A 
HETATM   11  C9    D T 609     -24.025  -3.417  12.814  1.00 33.48     0.064 A 
HETATM   12  C10   D T 609     -23.603  -4.192  14.011  1.00 34.74     0.040 A 
HETATM   13  C11   D T 609     -22.817  -3.597  15.044  1.00 32.11     0.007 A 
HETATM   14 CL1    D T 609     -24.110  -5.752  14.014  1.00 39.15    -0.087 Cl
HETATM   15  C12   D T 609     -22.434  -2.207  14.894  1.00 28.93     0.000 A 
ENDBRANCH   4   9
BRANCH   5  16
HETATM   16  C15   D T 609     -20.233  -0.730  12.242  1.00 26.09     0.046 C 
HETATM   17  C16   D T 609     -19.209  -1.449  13.102  1.00 25.80     0.007 C 
ENDBRANCH   5  16
TORSDOF 2
ENDMDL
MODEL 4
REMARK VINA RESULT:    -6.597      3.914      6.033
REMARK INTER + INTRA:          -7.936
REMARK INTER:                  -7.430
REMARK INTRA:                  -0.506
REMARK UNBOUND:                -0.568
REMARK  2 active torsions:
REMARK  status: ('A' for Active; 'I' for Inactive)
REMARK    1  A    between atoms: C4_4  and  C7_7 
REMARK    2  A    between atoms: C5_5  and  C15_15 
ROOT
HETATM    1  N1    D T 609     -19.181   1.883  12.546  1.00 25.15    -0.194 NA
HETATM    2  C2    D T 609     -19.613   0.994  13.525  1.00 24.38     0.239 A 
HETATM    3  C3    D T 609     -20.013   2.903  12.094  1.00 25.66     0.187 A 
HETATM    4  C4    D T 609     -21.407   3.086  12.650  1.00 26.56     0.051 A 
HETATM    5  C5    D T 609     -21.771   2.044  13.725  1.00 25.67     0.065 A 
HETATM    6  N6    D T 609     -20.893   1.055  14.120  1.00 24.80    -0.219 NA
HETATM    7  N13   D T 609     -19.574   3.757  11.150  1.00 25.83    -0.127 N 
HETATM    8  N14   D T 609     -18.738  -0.013  13.943  1.00 23.50    -0.060 NA
ENDROOT
BRANCH   4   9
HETATM    9  C7    D T 609     -22.334   4.123  12.256  1.00 29.35     0.000 A 
HETATM   10  C8    D T 609     -23.443   3.910  11.356  1.00 30.48    -0.020 A 
HETATM   11  C9    D T 609     -24.350   4.965  11.021  1.00 33.48     0.064 A 
HETATM   12  C10   D T 609     -24.155   6.315  11.613  1.00 34.74     0.040 A 
HETATM   13  C11   D T 609     -23.076   6.587  12.507  1.00 32.11     0.007 A 
HETATM   14 CL1    D T 609     -25.278   7.418  11.152  1.00 39.15    -0.087 Cl
HETATM   15  C12   D T 609     -22.169   5.503  12.831  1.00 28.93     0.000 A 
ENDBRANCH   4   9
BRANCH   5  16
HETATM   16  C15   D T 609     -23.136   2.093  14.395  1.00 26.09     0.046 C 
HETATM   17  C16   D T 609     -24.240   1.201  13.857  1.00 25.80     0.007 C 
ENDBRANCH   5  16
TORSDOF 2
ENDMDL
MODEL 5
REMARK VINA RESULT:    -6.575      3.676      5.327
REMARK INTER + INTRA:          -7.912
REMARK INTER:                  -7.397
REMARK INTRA:                  -0.515
REMARK UNBOUND:                -0.568
REMARK  2 active torsions:
REMARK  status: ('A' for Active; 'I' for Inactive)
REMARK    1  A    between atoms: C4_4  and  C7_7 
REMARK    2  A    between atoms: C5_5  and  C15_15 
ROOT
HETATM    1  N1    D T 609     -19.248   0.172  12.233  1.00 25.15    -0.194 NA
HETATM    2  C2    D T 609     -19.917  -0.758  13.020  1.00 24.38     0.239 A 
HETATM    3  C3    D T 609     -19.689   1.491  12.159  1.00 25.66     0.187 A 
HETATM    4  C4    D T 609     -20.901   1.958  12.932  1.00 26.56     0.051 A 
HETATM    5  C5    D T 609     -21.555   0.841  13.767  1.00 25.67     0.065 A 
HETATM    6  N6    D T 609     -21.062  -0.448  13.787  1.00 24.80    -0.219 NA
HETATM    7  N13   D T 609     -19.025   2.378  11.394  1.00 25.83    -0.127 N 
HETATM    8  N14   D T 609     -19.432  -2.070  13.059  1.00 23.50    -0.060 NA
ENDROOT
BRANCH   4   9
HETATM    9  C7    D T 609     -21.422   3.307  12.931  1.00 29.35     0.000 A 
HETATM   10  C8    D T 609     -20.858   4.388  13.704  1.00 30.48    -0.020 A 
HETATM   11  C9    D T 609     -21.395   5.713  13.644  1.00 33.48     0.064 A 
HETATM   12  C10   D T 609     -22.560   5.993  12.764  1.00 34.74     0.040 A 
HETATM   13  C11   D T 609     -23.163   4.965  11.978  1.00 32.11     0.007 A 
HETATM   14 CL1    D T 609     -23.057   7.556  12.785  1.00 39.15    -0.087 Cl
HETATM   15  C12   D T 609     -22.603   3.630  12.056  1.00 28.93     0.000 A 
ENDBRANCH   4   9
BRANCH   5  16
HETATM   16  C15   D T 609     -22.781   1.147  14.614  1.00 26.09     0.046 C 
HETATM   17  C16   D T 609     -24.153   0.834  14.044  1.00 25.80     0.007 C 
ENDBRANCH   5  16
TORSDOF 2
ENDMDL
MODEL 6
REMARK VINA RESULT:    -6.562      3.410      5.042
REMARK INTER + INTRA:          -7.897
REMARK INTER:                  -7.347
REMARK INTRA:                  -0.550
REMARK UNBOUND:                -0.568
REMARK  2 active torsions:
REMARK  status: ('A' for Active; 'I' for Inactive)
REMARK    1  A    between atoms: C4_4  and  C7_7 
REMARK    2  A    between atoms: C5_5  and  C15_15 
ROOT
HETATM    1  N1    D T 609     -20.176   1.464  12.551  1.00 25.15    -0.194 NA
HETATM    2  C2    D T 609     -20.832   2.532  13.152  1.00 24.38     0.239 A 
HETATM    3  C3    D T 609     -20.670   0.168  12.668  1.00 25.66     0.187 A 
HETATM    4  C4    D T 609     -21.935  -0.124  13.442  1.00 26.56     0.051 A 
HETATM    5  C5    D T 609     -22.571   1.135  14.060  1.00 25.67     0.065 A 
HETATM    6  N6    D T 609     -22.019   2.391  13.905  1.00 24.80    -0.219 NA
HETATM    7  N13   D T 609     -20.023  -0.853  12.074  1.00 25.83    -0.127 N 
HETATM    8  N14   D T 609     -20.293   3.814  13.004  1.00 23.50    -0.060 NA
ENDROOT
BRANCH   4   9
HETATM    9  C7    D T 609     -22.532  -1.431  13.604  1.00 29.35     0.000 A 
HETATM   10  C8    D T 609     -23.415  -2.037  12.636  1.00 30.48    -0.020 A 
HETATM   11  C9    D T 609     -23.957  -3.347  12.830  1.00 33.48     0.064 A 
HETATM   12  C10   D T 609     -23.602  -4.112  14.056  1.00 34.74     0.040 A 
HETATM   13  C11   D T 609     -22.736  -3.566  15.049  1.00 32.11     0.007 A 
HETATM   14 CL1    D T 609     -24.283  -5.603  14.136  1.00 39.15    -0.087 Cl
HETATM   15  C12   D T 609     -22.201  -2.236  14.831  1.00 28.93     0.000 A 
ENDBRANCH   4   9
BRANCH   5  16
HETATM   16  C15   D T 609     -23.856   1.017  14.864  1.00 26.09     0.046 C 
HETATM   17  C16   D T 609     -23.758   0.729  16.352  1.00 25.80     0.007 C 
ENDBRANCH   5  16
TORSDOF 2
ENDMDL
MODEL 7
REMARK VINA RESULT:    -6.466      2.319      3.859
REMARK INTER + INTRA:          -7.790
REMARK INTER:                  -7.214
REMARK INTRA:                  -0.575
REMARK UNBOUND:                -0.568
REMARK  2 active torsions:
REMARK  status: ('A' for Active; 'I' for Inactive)
REMARK    1  A    between atoms: C4_4  and  C7_7 
REMARK    2  A    between atoms: C5_5  and  C15_15 
ROOT
HETATM    1  N1    D T 609     -23.276   4.513  13.549  1.00 25.15    -0.194 NA
HETATM    2  C2    D T 609     -22.111   5.242  13.338  1.00 24.38     0.239 A 
HETATM    3  C3    D T 609     -23.245   3.122  13.607  1.00 25.66     0.187 A 
HETATM    4  C4    D T 609     -21.950   2.358  13.449  1.00 26.56     0.051 A 
HETATM    5  C5    D T 609     -20.731   3.272  13.221  1.00 25.67     0.065 A 
HETATM    6  N6    D T 609     -20.840   4.647  13.172  1.00 24.80    -0.219 NA
HETATM    7  N13   D T 609     -24.383   2.434  13.817  1.00 25.83    -0.127 N 
HETATM    8  N14   D T 609     -22.198   6.637  13.289  1.00 23.50    -0.060 NA
ENDROOT
BRANCH   4   9
HETATM    9  C7    D T 609     -21.817   0.919  13.510  1.00 29.35     0.000 A 
HETATM   10  C8    D T 609     -21.520   0.190  14.720  1.00 30.48    -0.020 A 
HETATM   11  C9    D T 609     -21.428  -1.238  14.732  1.00 33.48     0.064 A 
HETATM   12  C10   D T 609     -21.647  -1.997  13.473  1.00 34.74     0.040 A 
HETATM   13  C11   D T 609     -21.942  -1.332  12.245  1.00 32.11     0.007 A 
HETATM   14 CL1    D T 609     -21.526  -3.624  13.640  1.00 39.15    -0.087 Cl
HETATM   15  C12   D T 609     -22.028   0.115  12.257  1.00 28.93     0.000 A 
ENDBRANCH   4   9
BRANCH   5  16
HETATM   16  C15   D T 609     -19.348   2.662  13.053  1.00 26.09     0.046 C 
HETATM   17  C16   D T 609     -18.898   2.260  11.660  1.00 25.80     0.007 C 
ENDBRANCH   5  16
TORSDOF 2
ENDMDL
MODEL 8
REMARK VINA RESULT:    -6.194      3.944      6.521
REMARK INTER + INTRA:          -7.486
REMARK INTER:                  -6.979
REMARK INTRA:                  -0.507
REMARK UNBOUND:                -0.568
REMARK  2 active torsions:
REMARK  status: ('A' for Active; 'I' for Inactive)
REMARK    1  A    between atoms: C4_4  and  C7_7 
REMARK    2  A    between atoms: C5_5  and  C15_15 
ROOT
HETATM    1  N1    D T 609     -22.301   0.206  13.955  1.00 25.15    -0.194 NA
HETATM    2  C2    D T 609     -20.915   0.282  13.874  1.00 24.38     0.239 A 
HETATM    3  C3    D T 609     -23.097   1.272  13.546  1.00 25.66     0.187 A 
HETATM    4  C4    D T 609     -22.489   2.543  12.998  1.00 26.56     0.051 A 
HETATM    5  C5    D T 609     -20.949   2.509  12.957  1.00 25.67     0.065 A 
HETATM    6  N6    D T 609     -20.225   1.414  13.384  1.00 24.80    -0.219 NA
HETATM    7  N13   D T 609     -24.438   1.178  13.628  1.00 25.83    -0.127 N 
HETATM    8  N14   D T 609     -20.161  -0.817  14.298  1.00 23.50    -0.060 NA
ENDROOT
BRANCH   4   9
HETATM    9  C7    D T 609     -23.233   3.693  12.535  1.00 29.35     0.000 A 
HETATM   10  C8    D T 609     -23.785   3.812  11.207  1.00 30.48    -0.020 A 
HETATM   11  C9    D T 609     -24.541   4.961  10.808  1.00 33.48     0.064 A 
HETATM   12  C10   D T 609     -24.770   6.061  11.782  1.00 34.74     0.040 A 
HETATM   13  C11   D T 609     -24.248   6.001  13.109  1.00 32.11     0.007 A 
HETATM   14 CL1    D T 609     -25.664   7.303  11.192  1.00 39.15    -0.087 Cl
HETATM   15  C12   D T 609     -23.485   4.829  13.489  1.00 28.93     0.000 A 
ENDBRANCH   4   9
BRANCH   5  16
HETATM   16  C15   D T 609     -20.179   3.706  12.422  1.00 26.09     0.046 C 
HETATM   17  C16   D T 609     -19.430   3.559  11.110  1.00 25.80     0.007 C 
ENDBRANCH   5  16
TORSDOF 2
ENDMDL
MODEL 9
REMARK VINA RESULT:    -5.845      3.896      5.265
REMARK INTER + INTRA:          -7.097
REMARK INTER:                  -6.651
REMARK INTRA:                  -0.445
REMARK UNBOUND:                -0.568
REMARK  2 active torsions:
REMARK  status: ('A' for Active; 'I' for Inactive)
REMARK    1  A    between atoms: C4_4  and  C7_7 
REMARK    2  A    between atoms: C5_5  and  C15_15 
ROOT
HETATM    1  N1    D T 609     -22.220  -2.308  14.707  1.00 25.15    -0.194 NA
HETATM    2  C2    D T 609     -23.165  -2.801  13.814  1.00 24.38     0.239 A 
HETATM    3  C3    D T 609     -21.874  -0.960  14.705  1.00 25.66     0.187 A 
HETATM    4  C4    D T 609     -22.513   0.014  13.742  1.00 26.56     0.051 A 
HETATM    5  C5    D T 609     -23.542  -0.647  12.805  1.00 25.67     0.065 A 
HETATM    6  N6    D T 609     -23.830  -1.996  12.863  1.00 24.80    -0.219 NA
HETATM    7  N13   D T 609     -20.960  -0.501  15.581  1.00 25.83    -0.127 N 
HETATM    8  N14   D T 609     -23.477  -4.164  13.858  1.00 23.50    -0.060 NA
ENDROOT
BRANCH   4   9
HETATM    9  C7    D T 609     -22.230   1.431  13.676  1.00 29.35     0.000 A 
HETATM   10  C8    D T 609     -22.981   2.434  14.393  1.00 30.48    -0.020 A 
HETATM   11  C9    D T 609     -22.640   3.822  14.317  1.00 33.48     0.064 A 
HETATM   12  C10   D T 609     -21.485   4.249  13.485  1.00 34.74     0.040 A 
HETATM   13  C11   D T 609     -20.706   3.304  12.752  1.00 32.11     0.007 A 
HETATM   14 CL1    D T 609     -21.203   5.865  13.506  1.00 39.15    -0.087 Cl
HETATM   15  C12   D T 609     -21.071   1.903  12.843  1.00 28.93     0.000 A 
ENDBRANCH   4   9
BRANCH   5  16
HETATM   16  C15   D T 609     -24.284   0.196  11.780  1.00 26.09     0.046 C 
HETATM   17  C16   D T 609     -25.385  -0.458  10.964  1.00 25.80     0.007 C 
ENDBRANCH   5  16
TORSDOF 2
ENDMDL
