MODEL 1
REMARK VINA RESULT:    -6.638      0.000      0.000
REMARK INTER + INTRA:          -7.923
REMARK INTER:                  -7.414
REMARK INTRA:                  -0.509
REMARK UNBOUND:                -0.509
REMARK  2 active torsions:
REMARK  status: ('A' for Active; 'I' for Inactive)
REMARK    1  A    between atoms: C4_4  and  C7_7 
REMARK    2  A    between atoms: C5_5  and  C15_15 
ROOT
HETATM    1  N1    D T 609     -24.330 -12.617  10.416  1.00 25.15    -0.194 NA
HETATM    2  C2    D T 609     -25.339 -12.430   9.478  1.00 24.38     0.239 A 
HETATM    3  C3    D T 609     -23.453 -11.584  10.733  1.00 25.66     0.187 A 
HETATM    4  C4    D T 609     -23.566 -10.227  10.077  1.00 26.56     0.051 A 
HETATM    5  C5    D T 609     -24.718 -10.141   9.058  1.00 25.67     0.065 A 
HETATM    6  N6    D T 609     -25.548 -11.211   8.793  1.00 24.80    -0.219 NA
HETATM    7  N13   D T 609     -22.484 -11.783  11.648  1.00 25.83    -0.127 N 
HETATM    8  N14   D T 609     -26.193 -13.500   9.196  1.00 23.50    -0.060 NA
ENDROOT
BRANCH   4   9
HETATM    9  C7    D T 609     -22.714  -9.092  10.353  1.00 29.35    -0.004 A 
HETATM   10  C8    D T 609     -22.947  -8.151  11.424  1.00 30.48    -0.021 A 
HETATM   11  C9    D T 609     -22.057  -7.061  11.673  1.00 33.48     0.060 A 
HETATM   12  C10   D T 609     -20.856  -6.885  10.814  1.00 34.74     0.022 A 
HETATM   13  C11   D T 609     -20.572  -7.780   9.739  1.00 32.11     0.060 A 
HETATM   14 CL1    D T 609     -19.919  -5.602  11.225  1.00 39.15    -0.091 Cl
HETATM   15  C12   D T 609     -21.491  -8.877   9.505  1.00 28.93    -0.021 A 
ENDBRANCH   4   9
BRANCH   5  16
HETATM   16  C15   D T 609     -24.978  -8.840   8.316  1.00 26.09     0.046 C 
HETATM   17  C16   D T 609     -26.295  -8.122   8.548  1.00 25.80     0.007 C 
ENDBRANCH   5  16
TORSDOF 2
ENDMDL
MODEL 2
REMARK VINA RESULT:    -6.597      3.698      5.761
REMARK INTER + INTRA:          -7.877
REMARK INTER:                  -7.472
REMARK INTRA:                  -0.405
REMARK UNBOUND:                -0.509
REMARK  2 active torsions:
REMARK  status: ('A' for Active; 'I' for Inactive)
REMARK    1  A    between atoms: C4_4  and  C7_7 
REMARK    2  A    between atoms: C5_5  and  C15_15 
ROOT
HETATM    1  N1    D T 609     -20.486  -8.419   9.329  1.00 25.15    -0.194 NA
HETATM    2  C2    D T 609     -20.272  -8.515  10.700  1.00 24.38     0.239 A 
HETATM    3  C3    D T 609     -21.748  -8.641   8.788  1.00 25.66     0.187 A 
HETATM    4  C4    D T 609     -22.929  -8.989   9.663  1.00 26.56     0.051 A 
HETATM    5  C5    D T 609     -22.571  -9.067  11.160  1.00 25.67     0.065 A 
HETATM    6  N6    D T 609     -21.293  -8.837  11.625  1.00 24.80    -0.219 NA
HETATM    7  N13   D T 609     -21.936  -8.538   7.457  1.00 25.83    -0.127 N 
HETATM    8  N14   D T 609     -18.985  -8.283  11.192  1.00 23.50    -0.060 NA
ENDROOT
BRANCH   4   9
HETATM    9  C7    D T 609     -24.278  -9.220   9.196  1.00 29.35    -0.004 A 
HETATM   10  C8    D T 609     -25.206  -8.165   8.861  1.00 30.48    -0.021 A 
HETATM   11  C9    D T 609     -26.520  -8.449   8.375  1.00 33.48     0.060 A 
HETATM   12  C10   D T 609     -26.949  -9.862   8.201  1.00 34.74     0.022 A 
HETATM   13  C11   D T 609     -26.078 -10.948   8.516  1.00 32.11     0.060 A 
HETATM   14 CL1    D T 609     -28.474 -10.034   7.622  1.00 39.15    -0.091 Cl
HETATM   15  C12   D T 609     -24.750 -10.636   9.010  1.00 28.93    -0.021 A 
ENDBRANCH   4   9
BRANCH   5  16
HETATM   16  C15   D T 609     -23.649  -9.396  12.181  1.00 26.09     0.046 C 
HETATM   17  C16   D T 609     -23.225  -9.779  13.586  1.00 25.80     0.007 C 
ENDBRANCH   5  16
TORSDOF 2
ENDMDL
MODEL 3
REMARK VINA RESULT:    -6.432      1.034      2.679
REMARK INTER + INTRA:          -7.694
REMARK INTER:                  -7.118
REMARK INTRA:                  -0.576
REMARK UNBOUND:                -0.509
REMARK  2 active torsions:
REMARK  status: ('A' for Active; 'I' for Inactive)
REMARK    1  A    between atoms: C4_4  and  C7_7 
REMARK    2  A    between atoms: C5_5  and  C15_15 
ROOT
HETATM    1  N1    D T 609     -25.532 -10.887   8.659  1.00 25.15    -0.194 NA
HETATM    2  C2    D T 609     -25.403 -12.052   9.408  1.00 24.38     0.239 A 
HETATM    3  C3    D T 609     -24.662  -9.819   8.850  1.00 25.66     0.187 A 
HETATM    4  C4    D T 609     -23.547  -9.884   9.868  1.00 26.56     0.051 A 
HETATM    5  C5    D T 609     -23.504 -11.221  10.634  1.00 25.67     0.065 A 
HETATM    6  N6    D T 609     -24.405 -12.238  10.392  1.00 24.80    -0.219 NA
HETATM    7  N13   D T 609     -24.800  -8.700   8.112  1.00 25.83    -0.127 N 
HETATM    8  N14   D T 609     -26.304 -13.096   9.177  1.00 23.50    -0.060 NA
ENDROOT
BRANCH   4   9
HETATM    9  C7    D T 609     -22.586  -8.835  10.125  1.00 29.35    -0.004 A 
HETATM   10  C8    D T 609     -22.789  -7.775  11.085  1.00 30.48    -0.021 A 
HETATM   11  C9    D T 609     -21.793  -6.777  11.322  1.00 33.48     0.060 A 
HETATM   12  C10   D T 609     -20.512  -6.825  10.569  1.00 34.74     0.022 A 
HETATM   13  C11   D T 609     -20.254  -7.846   9.604  1.00 32.11     0.060 A 
HETATM   14 CL1    D T 609     -19.461  -5.627  10.955  1.00 39.15    -0.091 Cl
HETATM   15  C12   D T 609     -21.280  -8.846   9.380  1.00 28.93    -0.021 A 
ENDBRANCH   4   9
BRANCH   5  16
HETATM   16  C15   D T 609     -22.434 -11.456  11.688  1.00 26.09     0.046 C 
HETATM   17  C16   D T 609     -22.743 -11.096  13.129  1.00 25.80     0.007 C 
ENDBRANCH   5  16
TORSDOF 2
ENDMDL
MODEL 4
REMARK VINA RESULT:    -6.309      3.974      5.516
REMARK INTER + INTRA:          -7.555
REMARK INTER:                  -7.166
REMARK INTRA:                  -0.390
REMARK UNBOUND:                -0.509
REMARK  2 active torsions:
REMARK  status: ('A' for Active; 'I' for Inactive)
REMARK    1  A    between atoms: C4_4  and  C7_7 
REMARK    2  A    between atoms: C5_5  and  C15_15 
ROOT
HETATM    1  N1    D T 609     -23.835 -10.478  10.169  1.00 25.15    -0.194 NA
HETATM    2  C2    D T 609     -23.212  -9.292   9.796  1.00 24.38     0.239 A 
HETATM    3  C3    D T 609     -23.305 -11.272  11.182  1.00 25.66     0.187 A 
HETATM    4  C4    D T 609     -22.044 -10.876  11.913  1.00 26.56     0.051 A 
HETATM    5  C5    D T 609     -21.446  -9.547  11.413  1.00 25.67     0.065 A 
HETATM    6  N6    D T 609     -22.027  -8.813  10.399  1.00 24.80    -0.219 NA
HETATM    7  N13   D T 609     -23.926 -12.416  11.532  1.00 25.83    -0.127 N 
HETATM    8  N14   D T 609     -23.786  -8.532   8.772  1.00 23.50    -0.060 NA
ENDROOT
BRANCH   4   9
HETATM    9  C7    D T 609     -21.429 -11.625  12.986  1.00 29.35    -0.004 A 
HETATM   10  C8    D T 609     -20.592 -12.785  12.782  1.00 30.48    -0.021 A 
HETATM   11  C9    D T 609     -19.984 -13.473  13.878  1.00 33.48     0.060 A 
HETATM   12  C10   D T 609     -20.210 -12.988  15.265  1.00 34.74     0.022 A 
HETATM   13  C11   D T 609     -21.029 -11.849  15.531  1.00 32.11     0.060 A 
HETATM   14 CL1    D T 609     -19.438 -13.865  16.417  1.00 39.15    -0.091 Cl
HETATM   15  C12   D T 609     -21.636 -11.168  14.404  1.00 28.93    -0.021 A 
ENDBRANCH   4   9
BRANCH   5  16
HETATM   16  C15   D T 609     -20.180  -8.998  12.052  1.00 26.09     0.046 C 
HETATM   17  C16   D T 609     -19.200  -8.234  11.180  1.00 25.80     0.007 C 
ENDBRANCH   5  16
TORSDOF 2
ENDMDL
MODEL 5
REMARK VINA RESULT:    -6.090      4.262      5.667
REMARK INTER + INTRA:          -7.311
REMARK INTER:                  -6.774
REMARK INTRA:                  -0.537
REMARK UNBOUND:                -0.509
REMARK  2 active torsions:
REMARK  status: ('A' for Active; 'I' for Inactive)
REMARK    1  A    between atoms: C4_4  and  C7_7 
REMARK    2  A    between atoms: C5_5  and  C15_15 
ROOT
HETATM    1  N1    D T 609     -21.602  -8.761  10.599  1.00 25.15    -0.194 NA
HETATM    2  C2    D T 609     -22.764  -9.226   9.994  1.00 24.38     0.239 A 
HETATM    3  C3    D T 609     -21.017  -9.462  11.651  1.00 25.66     0.187 A 
HETATM    4  C4    D T 609     -21.617 -10.748  12.168  1.00 26.56     0.051 A 
HETATM    5  C5    D T 609     -22.901 -11.162  11.422  1.00 25.67     0.065 A 
HETATM    6  N6    D T 609     -23.424 -10.413  10.387  1.00 24.80    -0.219 NA
HETATM    7  N13   D T 609     -19.888  -8.998  12.221  1.00 25.83    -0.127 N 
HETATM    8  N14   D T 609     -23.311  -8.485   8.943  1.00 23.50    -0.060 NA
ENDROOT
BRANCH   4   9
HETATM    9  C7    D T 609     -21.075 -11.552  13.241  1.00 29.35    -0.004 A 
HETATM   10  C8    D T 609     -20.228 -12.704  13.035  1.00 30.48    -0.021 A 
HETATM   11  C9    D T 609     -19.693 -13.448  14.132  1.00 33.48     0.060 A 
HETATM   12  C10   D T 609     -20.008 -13.029  15.524  1.00 34.74     0.022 A 
HETATM   13  C11   D T 609     -20.840 -11.901  15.792  1.00 32.11     0.060 A 
HETATM   14 CL1    D T 609     -19.314 -13.965  16.679  1.00 39.15    -0.091 Cl
HETATM   15  C12   D T 609     -21.372 -11.163  14.663  1.00 28.93    -0.021 A 
ENDBRANCH   4   9
BRANCH   5  16
HETATM   16  C15   D T 609     -23.625 -12.440  11.811  1.00 26.09     0.046 C 
HETATM   17  C16   D T 609     -23.245 -13.732  11.110  1.00 25.80     0.007 C 
ENDBRANCH   5  16
TORSDOF 2
ENDMDL
MODEL 6
REMARK VINA RESULT:    -5.884      6.828      7.857
REMARK INTER + INTRA:          -7.081
REMARK INTER:                  -6.702
REMARK INTRA:                  -0.379
REMARK UNBOUND:                -0.509
REMARK  2 active torsions:
REMARK  status: ('A' for Active; 'I' for Inactive)
REMARK    1  A    between atoms: C4_4  and  C7_7 
REMARK    2  A    between atoms: C5_5  and  C15_15 
ROOT
HETATM    1  N1    D T 609     -19.992 -14.705  12.729  1.00 25.15    -0.194 NA
HETATM    2  C2    D T 609     -21.168 -13.970  12.614  1.00 24.38     0.239 A 
HETATM    3  C3    D T 609     -19.082 -14.437  13.747  1.00 25.66     0.187 A 
HETATM    4  C4    D T 609     -19.337 -13.348  14.763  1.00 26.56     0.051 A 
HETATM    5  C5    D T 609     -20.668 -12.605  14.534  1.00 25.67     0.065 A 
HETATM    6  N6    D T 609     -21.521 -12.924  13.498  1.00 24.80    -0.219 NA
HETATM    7  N13   D T 609     -17.951 -15.162  13.845  1.00 25.83    -0.127 N 
HETATM    8  N14   D T 609     -22.047 -14.280  11.572  1.00 23.50    -0.060 NA
ENDROOT
BRANCH   4   9
HETATM    9  C7    D T 609     -18.462 -13.008  15.862  1.00 29.35    -0.004 A 
HETATM   10  C8    D T 609     -18.364 -13.778  17.081  1.00 30.48    -0.021 A 
HETATM   11  C9    D T 609     -17.459 -13.415  18.127  1.00 33.48     0.060 A 
HETATM   12  C10   D T 609     -16.591 -12.219  17.963  1.00 34.74     0.022 A 
HETATM   13  C11   D T 609     -16.643 -11.417  16.783  1.00 32.11     0.060 A 
HETATM   14 CL1    D T 609     -15.595 -11.934  19.235  1.00 39.15    -0.091 Cl
HETATM   15  C12   D T 609     -17.570 -11.804  15.737  1.00 28.93    -0.021 A 
ENDBRANCH   4   9
BRANCH   5  16
HETATM   16  C15   D T 609     -21.082 -11.486  15.475  1.00 26.09     0.046 C 
HETATM   17  C16   D T 609     -22.151 -10.511  15.018  1.00 25.80     0.007 C 
ENDBRANCH   5  16
TORSDOF 2
ENDMDL
MODEL 7
REMARK VINA RESULT:    -5.767      1.466      2.147
REMARK INTER + INTRA:          -6.950
REMARK INTER:                  -6.950
REMARK INTRA:                  -0.000
REMARK UNBOUND:                -0.509
REMARK  2 active torsions:
REMARK  status: ('A' for Active; 'I' for Inactive)
REMARK    1  A    between atoms: C4_4  and  C7_7 
REMARK    2  A    between atoms: C5_5  and  C15_15 
ROOT
HETATM    1  N1    D T 609     -26.387 -13.101   8.987  1.00 25.15    -0.194 NA
HETATM    2  C2    D T 609     -27.459 -12.609   8.250  1.00 24.38     0.239 A 
HETATM    3  C3    D T 609     -25.337 -12.268   9.359  1.00 25.66     0.187 A 
HETATM    4  C4    D T 609     -25.323 -10.804   8.983  1.00 26.56     0.051 A 
HETATM    5  C5    D T 609     -26.560 -10.376   8.169  1.00 25.67     0.065 A 
HETATM    6  N6    D T 609     -27.563 -11.262   7.834  1.00 24.80    -0.219 NA
HETATM    7  N13   D T 609     -24.310 -12.762  10.078  1.00 25.83    -0.127 N 
HETATM    8  N14   D T 609     -28.488 -13.489   7.901  1.00 23.50    -0.060 NA
ENDROOT
BRANCH   4   9
HETATM    9  C7    D T 609     -24.288  -9.860   9.338  1.00 29.35    -0.004 A 
HETATM   10  C8    D T 609     -23.980  -9.474  10.696  1.00 30.48    -0.021 A 
HETATM   11  C9    D T 609     -22.925  -8.557  10.994  1.00 33.48     0.060 A 
HETATM   12  C10   D T 609     -22.116  -7.984   9.886  1.00 34.74     0.022 A 
HETATM   13  C11   D T 609     -22.373  -8.324   8.524  1.00 32.11     0.060 A 
HETATM   14 CL1    D T 609     -20.933  -6.960  10.379  1.00 39.15    -0.091 Cl
HETATM   15  C12   D T 609     -23.449  -9.255   8.246  1.00 28.93    -0.021 A 
ENDBRANCH   4   9
BRANCH   5  16
HETATM   16  C15   D T 609     -26.708  -8.932   7.720  1.00 26.09     0.046 C 
HETATM   17  C16   D T 609     -26.732  -7.842   8.776  1.00 25.80     0.007 C 
ENDBRANCH   5  16
TORSDOF 2
ENDMDL
MODEL 8
REMARK VINA RESULT:    -5.679      6.250      8.492
REMARK INTER + INTRA:          -6.852
REMARK INTER:                  -6.353
REMARK INTRA:                  -0.499
REMARK UNBOUND:                -0.509
REMARK  2 active torsions:
REMARK  status: ('A' for Active; 'I' for Inactive)
REMARK    1  A    between atoms: C4_4  and  C7_7 
REMARK    2  A    between atoms: C5_5  and  C15_15 
ROOT
HETATM    1  N1    D T 609     -17.100 -14.624  15.204  1.00 25.15    -0.194 NA
HETATM    2  C2    D T 609     -17.354 -13.953  16.395  1.00 24.38     0.239 A 
HETATM    3  C3    D T 609     -18.072 -14.704  14.211  1.00 25.66     0.187 A 
HETATM    4  C4    D T 609     -19.430 -14.065  14.387  1.00 26.56     0.051 A 
HETATM    5  C5    D T 609     -19.594 -13.353  15.743  1.00 25.67     0.065 A 
HETATM    6  N6    D T 609     -18.584 -13.317  16.683  1.00 24.80    -0.219 NA
HETATM    7  N13   D T 609     -17.806 -15.355  13.062  1.00 25.83    -0.127 N 
HETATM    8  N14   D T 609     -16.344 -13.903  17.360  1.00 23.50    -0.060 NA
ENDROOT
BRANCH   4   9
HETATM    9  C7    D T 609     -20.494 -14.081  13.408  1.00 29.35    -0.004 A 
HETATM   10  C8    D T 609     -21.419 -15.178  13.242  1.00 30.48    -0.021 A 
HETATM   11  C9    D T 609     -22.474 -15.131  12.277  1.00 33.48     0.060 A 
HETATM   12  C10   D T 609     -22.632 -13.925  11.422  1.00 34.74     0.022 A 
HETATM   13  C11   D T 609     -21.748 -12.810  11.538  1.00 32.11     0.060 A 
HETATM   14 CL1    D T 609     -23.891 -14.006  10.374  1.00 39.15    -0.091 Cl
HETATM   15  C12   D T 609     -20.686 -12.881  12.522  1.00 28.93    -0.021 A 
ENDBRANCH   4   9
BRANCH   5  16
HETATM   16  C15   D T 609     -20.898 -12.647  16.076  1.00 26.09     0.046 C 
HETATM   17  C16   D T 609     -21.061 -11.194  15.669  1.00 25.80     0.007 C 
ENDBRANCH   5  16
TORSDOF 2
ENDMDL
MODEL 9
REMARK VINA RESULT:    -5.528      3.421      5.415
REMARK INTER + INTRA:          -6.684
REMARK INTER:                  -6.175
REMARK INTRA:                  -0.509
REMARK UNBOUND:                -0.509
REMARK  2 active torsions:
REMARK  status: ('A' for Active; 'I' for Inactive)
REMARK    1  A    between atoms: C4_4  and  C7_7 
REMARK    2  A    between atoms: C5_5  and  C15_15 
ROOT
HETATM    1  N1    D T 609     -21.383  -9.163  11.910  1.00 25.15    -0.194 NA
HETATM    2  C2    D T 609     -20.558  -8.480  11.024  1.00 24.38     0.239 A 
HETATM    3  C3    D T 609     -22.680  -9.516  11.548  1.00 25.66     0.187 A 
HETATM    4  C4    D T 609     -23.236  -9.175  10.185  1.00 26.56     0.051 A 
HETATM    5  C5    D T 609     -22.232  -8.418   9.293  1.00 25.67     0.065 A 
HETATM    6  N6    D T 609     -20.960  -8.100   9.723  1.00 24.80    -0.219 NA
HETATM    7  N13   D T 609     -23.463 -10.182  12.419  1.00 25.83    -0.127 N 
HETATM    8  N14   D T 609     -19.264  -8.150  11.438  1.00 23.50    -0.060 NA
ENDROOT
BRANCH   4   9
HETATM    9  C7    D T 609     -24.560  -9.512   9.714  1.00 29.35    -0.004 A 
HETATM   10  C8    D T 609     -25.653  -8.570   9.639  1.00 30.48    -0.021 A 
HETATM   11  C9    D T 609     -26.937  -8.948   9.137  1.00 33.48     0.060 A 
HETATM   12  C10   D T 609     -27.162 -10.344   8.675  1.00 34.74     0.022 A 
HETATM   13  C11   D T 609     -26.122 -11.321   8.727  1.00 32.11     0.060 A 
HETATM   14 CL1    D T 609     -28.676 -10.628   8.113  1.00 39.15    -0.091 Cl
HETATM   15  C12   D T 609     -24.829 -10.914   9.241  1.00 28.93    -0.021 A 
ENDBRANCH   4   9
BRANCH   5  16
HETATM   16  C15   D T 609     -22.629  -8.010   7.884  1.00 26.09     0.046 C 
HETATM   17  C16   D T 609     -22.446  -9.012   6.759  1.00 25.80     0.007 C 
ENDBRANCH   5  16
TORSDOF 2
ENDMDL
