MODEL 1
REMARK VINA RESULT:    -8.955      0.000      0.000
REMARK INTER + INTRA:         -12.306
REMARK INTER:                 -11.573
REMARK INTRA:                  -0.734
REMARK UNBOUND:                -0.734
REMARK  5 active torsions:
REMARK  status: ('A' for Active; 'I' for Inactive)
REMARK    1  A    between atoms: C17_7  and  C21_10 
REMARK    2  A    between atoms: C21_10  and  O27_12 
REMARK    3  A    between atoms: O27_12  and  C15_13 
REMARK    4  A    between atoms: C14_19  and  C16_20 
REMARK    5  A    between atoms: N26_23  and  C20_25 
ROOT
HETATM    1  C15   D T3000       9.078   3.767  -3.808  1.00 38.99     0.125 A 
HETATM    2  C4    D T3000       9.201   2.803  -2.756  1.00 40.94     0.029 A 
HETATM    3  C19   D T3000       9.733   5.026  -3.575  1.00 37.27     0.173 A 
HETATM    4  N22   D T3000       9.676   6.035  -4.558  1.00 36.61    -0.078 NA
HETATM    5  N23   D T3000      10.435   5.319  -2.437  1.00 37.98    -0.228 NA
HETATM    6  C5    D T3000      10.524   4.364  -1.452  1.00 40.12     0.100 A 
HETATM    7  C14   D T3000       9.919   3.075  -1.560  1.00 40.87     0.024 A 
ENDROOT
BRANCH   1   8
HETATM    8  O27   D T3000       8.393   3.527  -5.009  1.00 42.27    -0.326 OA
BRANCH   8   9
HETATM    9  C21   D T3000       7.001   3.974  -5.299  1.00 47.98     0.145 C 
HETATM   10  C1    D T3000       6.097   3.299  -4.245  1.00 44.93     0.038 C 
BRANCH   9  11
HETATM   11  C17   D T3000       6.490   3.645  -6.760  1.00 51.22     0.029 A 
HETATM   12  C13   D T3000       5.906   4.698  -7.582  1.00 51.61     0.057 A 
HETATM   13 CL     D T3000       5.729   6.335  -7.051  1.00 53.92    -0.083 Cl
HETATM   14  C3    D T3000       5.439   4.409  -8.902  1.00 51.64     0.013 A 
HETATM   15  C2    D T3000       5.529   3.104  -9.436  1.00 51.88     0.031 A 
HETATM   16  C12   D T3000       6.088   2.051  -8.668  1.00 53.21     0.150 A 
HETATM   17  F     D T3000       6.157   0.820  -9.206  1.00 51.93    -0.203 F 
HETATM   18  C18   D T3000       6.572   2.300  -7.337  1.00 53.17     0.084 A 
HETATM   19 CL2    D T3000       7.242   0.929  -6.484  1.00 65.44    -0.080 Cl
ENDBRANCH   9  11
ENDBRANCH   8   9
ENDBRANCH   1   8
BRANCH   7  20
HETATM   20  C16   D T3000       9.997   2.004  -0.493  1.00 44.81     0.041 A 
HETATM   21  C6    D T3000       9.238   1.855   0.750  1.00 45.20     0.122 A 
HETATM   22  N24   D T3000       9.647   0.782   1.350  1.00 48.48    -0.168 NA
HETATM   23  N26   D T3000      10.578   0.224   0.642  1.00 52.17    -0.252 N 
HETATM   24  C7    D T3000      10.850   0.920  -0.513  1.00 48.89     0.097 A 
BRANCH  23  25
HETATM   25  C20   D T3000      11.294  -1.022   0.994  1.00 57.73     0.110 C 
HETATM   26  C8    D T3000      10.265  -2.121   1.375  1.00 60.56     0.063 C 
HETATM   27  C10   D T3000      11.011  -3.426   1.738  1.00 62.17     0.292 C 
HETATM   28  N25   D T3000      12.054  -3.221   2.786  1.00 62.01     0.339 N 
HETATM   29  C11   D T3000      13.018  -2.129   2.450  1.00 60.06     0.292 C 
HETATM   30  C9    D T3000      12.303  -0.792   2.140  1.00 59.17     0.063 C 
ENDBRANCH  23  25
ENDBRANCH   7  20
TORSDOF 5
ENDMDL
MODEL 2
REMARK VINA RESULT:    -8.900      3.477      6.724
REMARK INTER + INTRA:         -12.235
REMARK INTER:                 -11.241
REMARK INTRA:                  -0.994
REMARK UNBOUND:                -0.734
REMARK  5 active torsions:
REMARK  status: ('A' for Active; 'I' for Inactive)
REMARK    1  A    between atoms: C17_7  and  C21_10 
REMARK    2  A    between atoms: C21_10  and  O27_12 
REMARK    3  A    between atoms: O27_12  and  C15_13 
REMARK    4  A    between atoms: C14_19  and  C16_20 
REMARK    5  A    between atoms: N26_23  and  C20_25 
ROOT
HETATM    1  C15   D T3000       9.184   3.367  -4.273  1.00 38.99     0.125 A 
HETATM    2  C4    D T3000       9.488   4.581  -3.578  1.00 40.94     0.029 A 
HETATM    3  C19   D T3000       9.705   2.164  -3.681  1.00 37.27     0.173 A 
HETATM    4  N22   D T3000       9.449   0.919  -4.288  1.00 36.61    -0.078 NA
HETATM    5  N23   D T3000      10.448   2.144  -2.531  1.00 37.98    -0.228 NA
HETATM    6  C5    D T3000      10.719   3.335  -1.899  1.00 40.12     0.100 A 
HETATM    7  C14   D T3000      10.259   4.596  -2.385  1.00 40.87     0.024 A 
ENDROOT
BRANCH   1   8
HETATM    8  O27   D T3000       8.411   3.311  -5.444  1.00 42.27    -0.326 OA
BRANCH   8   9
HETATM    9  C21   D T3000       7.050   3.899  -5.593  1.00 47.98     0.145 C 
HETATM   10  C1    D T3000       6.186   3.294  -4.466  1.00 44.93     0.038 C 
BRANCH   9  11
HETATM   11  C17   D T3000       6.372   3.654  -7.003  1.00 51.22     0.029 A 
HETATM   12  C13   D T3000       5.769   4.766  -7.725  1.00 51.61     0.057 A 
HETATM   13 CL     D T3000       5.745   6.389  -7.128  1.00 53.92    -0.083 Cl
HETATM   14  C3    D T3000       5.153   4.553  -8.997  1.00 51.64     0.013 A 
HETATM   15  C2    D T3000       5.111   3.266  -9.578  1.00 51.88     0.031 A 
HETATM   16  C12   D T3000       5.684   2.155  -8.906  1.00 53.21     0.150 A 
HETATM   17  F     D T3000       5.625   0.944  -9.487  1.00 51.93    -0.203 F 
HETATM   18  C18   D T3000       6.316   2.328  -7.627  1.00 53.17     0.084 A 
HETATM   19 CL2    D T3000       6.989   0.892  -6.892  1.00 65.44    -0.080 Cl
ENDBRANCH   9  11
ENDBRANCH   8   9
ENDBRANCH   1   8
BRANCH   7  20
HETATM   20  C16   D T3000      10.542   5.924  -1.713  1.00 44.81     0.041 A 
HETATM   21  C6    D T3000      11.460   6.249  -0.620  1.00 45.20     0.122 A 
HETATM   22  N24   D T3000      11.366   7.519  -0.375  1.00 48.48    -0.168 NA
HETATM   23  N26   D T3000      10.497   8.047  -1.179  1.00 52.17    -0.252 N 
HETATM   24  C7    D T3000       9.944   7.124  -2.037  1.00 48.89     0.097 A 
BRANCH  23  25
HETATM   25  C20   D T3000      10.113   9.475  -1.210  1.00 57.73     0.110 C 
HETATM   26  C8    D T3000       9.738   9.942   0.222  1.00 60.56     0.063 C 
HETATM   27  C10   D T3000       9.341  11.436   0.192  1.00 62.17     0.292 C 
HETATM   28  N25   D T3000       8.273  11.729  -0.809  1.00 62.01     0.339 N 
HETATM   29  C11   D T3000       8.604  11.236  -2.181  1.00 60.06     0.292 C 
HETATM   30  C9    D T3000       8.948   9.727  -2.193  1.00 59.17     0.063 C 
ENDBRANCH  23  25
ENDBRANCH   7  20
TORSDOF 5
ENDMDL
MODEL 3
REMARK VINA RESULT:    -8.786      1.634      2.570
REMARK INTER + INTRA:         -12.088
REMARK INTER:                 -11.390
REMARK INTRA:                  -0.697
REMARK UNBOUND:                -0.734
REMARK  5 active torsions:
REMARK  status: ('A' for Active; 'I' for Inactive)
REMARK    1  A    between atoms: C17_7  and  C21_10 
REMARK    2  A    between atoms: C21_10  and  O27_12 
REMARK    3  A    between atoms: O27_12  and  C15_13 
REMARK    4  A    between atoms: C14_19  and  C16_20 
REMARK    5  A    between atoms: N26_23  and  C20_25 
ROOT
HETATM    1  C15   D T3000       9.759   2.907  -2.880  1.00 38.99     0.125 A 
HETATM    2  C4    D T3000       9.975   1.798  -2.001  1.00 40.94     0.029 A 
HETATM    3  C19   D T3000      10.114   4.197  -2.351  1.00 37.27     0.173 A 
HETATM    4  N22   D T3000       9.946   5.348  -3.147  1.00 36.61    -0.078 NA
HETATM    5  N23   D T3000      10.626   4.389  -1.096  1.00 37.98    -0.228 NA
HETATM    6  C5    D T3000      10.813   3.295  -0.285  1.00 40.12     0.100 A 
HETATM    7  C14   D T3000      10.501   1.962  -0.691  1.00 40.87     0.024 A 
ENDROOT
BRANCH   1   8
HETATM    8  O27   D T3000       9.259   2.782  -4.186  1.00 42.27    -0.326 OA
BRANCH   8   9
HETATM    9  C21   D T3000       7.839   3.002  -4.578  1.00 47.98     0.145 C 
HETATM   10  C1    D T3000       6.980   2.576  -3.367  1.00 44.93     0.038 C 
BRANCH   9  11
HETATM   11  C17   D T3000       7.382   2.227  -5.880  1.00 51.22     0.029 A 
HETATM   12  C13   D T3000       7.774   0.837  -6.076  1.00 51.61     0.057 A 
HETATM   13 CL     D T3000       8.733  -0.052  -4.944  1.00 53.92    -0.083 Cl
HETATM   14  C3    D T3000       7.368   0.130  -7.251  1.00 51.64     0.013 A 
HETATM   15  C2    D T3000       6.587   0.761  -8.245  1.00 51.88     0.031 A 
HETATM   16  C12   D T3000       6.187   2.113  -8.094  1.00 53.21     0.150 A 
HETATM   17  F     D T3000       5.445   2.683  -9.061  1.00 51.93    -0.203 F 
HETATM   18  C18   D T3000       6.571   2.858  -6.926  1.00 53.17     0.084 A 
HETATM   19 CL2    D T3000       6.022   4.516  -6.845  1.00 65.44    -0.080 Cl
ENDBRANCH   9  11
ENDBRANCH   8   9
ENDBRANCH   1   8
BRANCH   7  20
HETATM   20  C16   D T3000      10.694   0.738   0.179  1.00 44.81     0.041 A 
HETATM   21  C6    D T3000      10.099   0.398   1.473  1.00 45.20     0.122 A 
HETATM   22  N24   D T3000      10.559  -0.756   1.842  1.00 48.48    -0.168 NA
HETATM   23  N26   D T3000      11.380  -1.197   0.941  1.00 52.17    -0.252 N 
HETATM   24  C7    D T3000      11.515  -0.330  -0.119  1.00 48.89     0.097 A 
BRANCH  23  25
HETATM   25  C20   D T3000      12.109  -2.483   1.000  1.00 57.73     0.110 C 
HETATM   26  C8    D T3000      11.427  -3.509   0.056  1.00 60.56     0.063 C 
HETATM   27  C10   D T3000      12.191  -4.852   0.112  1.00 62.17     0.292 C 
HETATM   28  N25   D T3000      12.352  -5.366   1.504  1.00 62.01     0.339 N 
HETATM   29  C11   D T3000      12.960  -4.365   2.433  1.00 60.06     0.292 C 
HETATM   30  C9    D T3000      12.182  -3.028   2.444  1.00 59.17     0.063 C 
ENDBRANCH  23  25
ENDBRANCH   7  20
TORSDOF 5
ENDMDL
MODEL 4
REMARK VINA RESULT:    -8.668      3.526      6.417
REMARK INTER + INTRA:         -11.935
REMARK INTER:                 -11.026
REMARK INTRA:                  -0.909
REMARK UNBOUND:                -0.734
REMARK  5 active torsions:
REMARK  status: ('A' for Active; 'I' for Inactive)
REMARK    1  A    between atoms: C17_7  and  C21_10 
REMARK    2  A    between atoms: C21_10  and  O27_12 
REMARK    3  A    between atoms: O27_12  and  C15_13 
REMARK    4  A    between atoms: C14_19  and  C16_20 
REMARK    5  A    between atoms: N26_23  and  C20_25 
ROOT
HETATM    1  C15   D T3000       9.197   3.468  -4.159  1.00 38.99     0.125 A 
HETATM    2  C4    D T3000       9.376   4.694  -3.440  1.00 40.94     0.029 A 
HETATM    3  C19   D T3000       9.834   2.314  -3.585  1.00 37.27     0.173 A 
HETATM    4  N22   D T3000       9.706   1.060  -4.217  1.00 36.61    -0.078 NA
HETATM    5  N23   D T3000      10.571   2.346  -2.432  1.00 37.98    -0.228 NA
HETATM    6  C5    D T3000      10.720   3.546  -1.777  1.00 40.12     0.100 A 
HETATM    7  C14   D T3000      10.138   4.764  -2.242  1.00 40.87     0.024 A 
ENDROOT
BRANCH   1   8
HETATM    8  O27   D T3000       8.437   3.358  -5.334  1.00 42.27    -0.326 OA
BRANCH   8   9
HETATM    9  C21   D T3000       7.071   3.921  -5.520  1.00 47.98     0.145 C 
HETATM   10  C1    D T3000       6.192   3.313  -4.406  1.00 44.93     0.038 C 
BRANCH   9  11
HETATM   11  C17   D T3000       6.429   3.651  -6.942  1.00 51.22     0.029 A 
HETATM   12  C13   D T3000       5.853   4.752  -7.703  1.00 51.61     0.057 A 
HETATM   13 CL     D T3000       5.823   6.387  -7.140  1.00 53.92    -0.083 Cl
HETATM   14  C3    D T3000       5.270   4.516  -8.986  1.00 51.64     0.013 A 
HETATM   15  C2    D T3000       5.234   3.217  -9.541  1.00 51.88     0.031 A 
HETATM   16  C12   D T3000       5.782   2.117  -8.832  1.00 53.21     0.150 A 
HETATM   17  F     D T3000       5.731   0.894  -9.389  1.00 51.93    -0.203 F 
HETATM   18  C18   D T3000       6.381   2.313  -7.540  1.00 53.17     0.084 A 
HETATM   19 CL2    D T3000       7.025   0.888  -6.757  1.00 65.44    -0.080 Cl
ENDBRANCH   9  11
ENDBRANCH   8   9
ENDBRANCH   1   8
BRANCH   7  20
HETATM   20  C16   D T3000      10.284   6.100  -1.545  1.00 44.81     0.041 A 
HETATM   21  C6    D T3000       9.290   6.905  -0.833  1.00 45.20     0.122 A 
HETATM   22  N24   D T3000       9.871   7.979  -0.399  1.00 48.48    -0.168 NA
HETATM   23  N26   D T3000      11.119   7.961  -0.749  1.00 52.17    -0.252 N 
HETATM   24  C7    D T3000      11.451   6.831  -1.460  1.00 48.89     0.097 A 
BRANCH  23  25
HETATM   25  C20   D T3000      12.113   9.012  -0.438  1.00 57.73     0.110 C 
HETATM   26  C8    D T3000      11.527  10.403  -0.798  1.00 60.56     0.063 C 
HETATM   27  C10   D T3000      12.563  11.503  -0.469  1.00 62.17     0.292 C 
HETATM   28  N25   D T3000      13.890  11.253  -1.104  1.00 62.01     0.339 N 
HETATM   29  C11   D T3000      14.438   9.895  -0.804  1.00 60.06     0.292 C 
HETATM   30  C9    D T3000      13.446   8.768  -1.179  1.00 59.17     0.063 C 
ENDBRANCH  23  25
ENDBRANCH   7  20
TORSDOF 5
ENDMDL
MODEL 5
REMARK VINA RESULT:    -8.517      3.674      7.074
REMARK INTER + INTRA:         -11.741
REMARK INTER:                 -10.886
REMARK INTRA:                  -0.854
REMARK UNBOUND:                -0.734
REMARK  5 active torsions:
REMARK  status: ('A' for Active; 'I' for Inactive)
REMARK    1  A    between atoms: C17_7  and  C21_10 
REMARK    2  A    between atoms: C21_10  and  O27_12 
REMARK    3  A    between atoms: O27_12  and  C15_13 
REMARK    4  A    between atoms: C14_19  and  C16_20 
REMARK    5  A    between atoms: N26_23  and  C20_25 
ROOT
HETATM    1  C15   D T3000       9.266   3.568  -4.197  1.00 38.99     0.125 A 
HETATM    2  C4    D T3000       9.450   4.788  -3.469  1.00 40.94     0.029 A 
HETATM    3  C19   D T3000       9.911   2.409  -3.641  1.00 37.27     0.173 A 
HETATM    4  N22   D T3000       9.777   1.161  -4.282  1.00 36.61    -0.078 NA
HETATM    5  N23   D T3000      10.660   2.433  -2.495  1.00 37.98    -0.228 NA
HETATM    6  C5    D T3000      10.814   3.627  -1.831  1.00 40.12     0.100 A 
HETATM    7  C14   D T3000      10.225   4.848  -2.279  1.00 40.87     0.024 A 
ENDROOT
BRANCH   1   8
HETATM    8  O27   D T3000       8.494   3.467  -5.365  1.00 42.27    -0.326 OA
BRANCH   8   9
HETATM    9  C21   D T3000       7.080   3.920  -5.492  1.00 47.98     0.145 C 
HETATM   10  C1    D T3000       6.296   3.230  -4.354  1.00 44.93     0.038 C 
BRANCH   9  11
HETATM   11  C17   D T3000       6.408   3.613  -6.892  1.00 51.22     0.029 A 
HETATM   12  C13   D T3000       6.475   2.269  -7.453  1.00 51.61     0.057 A 
HETATM   13 CL     D T3000       7.262   0.945  -6.667  1.00 53.92    -0.083 Cl
HETATM   14  C3    D T3000       5.874   1.984  -8.718  1.00 51.64     0.013 A 
HETATM   15  C2    D T3000       5.209   2.992  -9.452  1.00 51.88     0.031 A 
HETATM   16  C12   D T3000       5.124   4.314  -8.942  1.00 53.21     0.150 A 
HETATM   17  F     D T3000       4.485   5.250  -9.666  1.00 51.93    -0.203 F 
HETATM   18  C18   D T3000       5.712   4.641  -7.672  1.00 53.17     0.084 A 
HETATM   19 CL2    D T3000       5.546   6.299  -7.142  1.00 65.44    -0.080 Cl
ENDBRANCH   9  11
ENDBRANCH   8   9
ENDBRANCH   1   8
BRANCH   7  20
HETATM   20  C16   D T3000      10.377   6.178  -1.571  1.00 44.81     0.041 A 
HETATM   21  C6    D T3000      11.490   6.701  -0.777  1.00 45.20     0.122 A 
HETATM   22  N24   D T3000      11.173   7.888  -0.366  1.00 48.48    -0.168 NA
HETATM   23  N26   D T3000       9.990   8.190  -0.799  1.00 52.17    -0.252 N 
HETATM   24  C7    D T3000       9.432   7.183  -1.553  1.00 48.89     0.097 A 
BRANCH  23  25
HETATM   25  C20   D T3000       9.280   9.462  -0.541  1.00 57.73     0.110 C 
HETATM   26  C8    D T3000       8.896  10.124  -1.892  1.00 60.56     0.063 C 
HETATM   27  C10   D T3000       8.148  11.451  -1.625  1.00 62.17     0.292 C 
HETATM   28  N25   D T3000       8.909  12.369  -0.727  1.00 62.01     0.339 N 
HETATM   29  C11   D T3000       9.328  11.724   0.554  1.00 60.06     0.292 C 
HETATM   30  C9    D T3000      10.131  10.423   0.319  1.00 59.17     0.063 C 
ENDBRANCH  23  25
ENDBRANCH   7  20
TORSDOF 5
ENDMDL
MODEL 6
REMARK VINA RESULT:    -8.498      3.559      5.750
REMARK INTER + INTRA:         -11.716
REMARK INTER:                 -10.874
REMARK INTRA:                  -0.842
REMARK UNBOUND:                -0.734
REMARK  5 active torsions:
REMARK  status: ('A' for Active; 'I' for Inactive)
REMARK    1  A    between atoms: C17_7  and  C21_10 
REMARK    2  A    between atoms: C21_10  and  O27_12 
REMARK    3  A    between atoms: O27_12  and  C15_13 
REMARK    4  A    between atoms: C14_19  and  C16_20 
REMARK    5  A    between atoms: N26_23  and  C20_25 
ROOT
HETATM    1  C15   D T3000       9.092   3.342  -4.164  1.00 38.99     0.125 A 
HETATM    2  C4    D T3000       9.159   4.577  -3.442  1.00 40.94     0.029 A 
HETATM    3  C19   D T3000       9.883   2.266  -3.630  1.00 37.27     0.173 A 
HETATM    4  N22   D T3000       9.874   1.010  -4.268  1.00 36.61    -0.078 NA
HETATM    5  N23   D T3000      10.661   2.378  -2.509  1.00 37.98    -0.228 NA
HETATM    6  C5    D T3000      10.697   3.584  -1.848  1.00 40.12     0.100 A 
HETATM    7  C14   D T3000       9.959   4.729  -2.276  1.00 40.87     0.024 A 
ENDROOT
BRANCH   1   8
HETATM    8  O27   D T3000       8.301   3.150  -5.307  1.00 42.27    -0.326 OA
BRANCH   8   9
HETATM    9  C21   D T3000       6.988   3.810  -5.553  1.00 47.98     0.145 C 
HETATM   10  C1    D T3000       6.029   3.298  -4.456  1.00 44.93     0.038 C 
BRANCH   9  11
HETATM   11  C17   D T3000       6.374   3.551  -6.989  1.00 51.22     0.029 A 
HETATM   12  C13   D T3000       5.814   4.659  -7.753  1.00 51.61     0.057 A 
HETATM   13 CL     D T3000       5.773   6.289  -7.177  1.00 53.92    -0.083 Cl
HETATM   14  C3    D T3000       5.255   4.434  -9.049  1.00 51.64     0.013 A 
HETATM   15  C2    D T3000       5.230   3.139  -9.615  1.00 51.88     0.031 A 
HETATM   16  C12   D T3000       5.763   2.034  -8.904  1.00 53.21     0.150 A 
HETATM   17  F     D T3000       5.722   0.815  -9.472  1.00 51.93    -0.203 F 
HETATM   18  C18   D T3000       6.337   2.218  -7.599  1.00 53.17     0.084 A 
HETATM   19 CL2    D T3000       6.964   0.786  -6.816  1.00 65.44    -0.080 Cl
ENDBRANCH   9  11
ENDBRANCH   8   9
ENDBRANCH   1   8
BRANCH   7  20
HETATM   20  C16   D T3000       9.979   6.069  -1.573  1.00 44.81     0.041 A 
HETATM   21  C6    D T3000       9.897   7.423  -2.123  1.00 45.20     0.122 A 
HETATM   22  N24   D T3000       9.955   8.266  -1.140  1.00 48.48    -0.168 NA
HETATM   23  N26   D T3000      10.067   7.616  -0.024  1.00 52.17    -0.252 N 
HETATM   24  C7    D T3000      10.088   6.252  -0.210  1.00 48.89     0.097 A 
BRANCH  23  25
HETATM   25  C20   D T3000      10.161   8.226   1.319  1.00 57.73     0.110 C 
HETATM   26  C8    D T3000       9.938   7.135   2.401  1.00 60.56     0.063 C 
HETATM   27  C10   D T3000      10.041   7.770   3.807  1.00 62.17     0.292 C 
HETATM   28  N25   D T3000       9.135   8.945   3.976  1.00 62.01     0.339 N 
HETATM   29  C11   D T3000       9.307   9.977   2.908  1.00 60.06     0.292 C 
HETATM   30  C9    D T3000       9.151   9.382   1.489  1.00 59.17     0.063 C 
ENDBRANCH  23  25
ENDBRANCH   7  20
TORSDOF 5
ENDMDL
MODEL 7
REMARK VINA RESULT:    -8.422      3.677      6.524
REMARK INTER + INTRA:         -11.617
REMARK INTER:                 -10.758
REMARK INTRA:                  -0.859
REMARK UNBOUND:                -0.734
REMARK  5 active torsions:
REMARK  status: ('A' for Active; 'I' for Inactive)
REMARK    1  A    between atoms: C17_7  and  C21_10 
REMARK    2  A    between atoms: C21_10  and  O27_12 
REMARK    3  A    between atoms: O27_12  and  C15_13 
REMARK    4  A    between atoms: C14_19  and  C16_20 
REMARK    5  A    between atoms: N26_23  and  C20_25 
ROOT
HETATM    1  C15   D T3000       9.338   3.613  -3.989  1.00 38.99     0.125 A 
HETATM    2  C4    D T3000       9.550   4.930  -3.466  1.00 40.94     0.029 A 
HETATM    3  C19   D T3000       9.949   2.544  -3.244  1.00 37.27     0.173 A 
HETATM    4  N22   D T3000       9.787   1.212  -3.676  1.00 36.61    -0.078 NA
HETATM    5  N23   D T3000      10.690   2.735  -2.109  1.00 37.98    -0.228 NA
HETATM    6  C5    D T3000      10.870   4.017  -1.646  1.00 40.12     0.100 A 
HETATM    7  C14   D T3000      10.317   5.163  -2.293  1.00 40.87     0.024 A 
ENDROOT
BRANCH   1   8
HETATM    8  O27   D T3000       8.573   3.343  -5.133  1.00 42.27    -0.326 OA
BRANCH   8   9
HETATM    9  C21   D T3000       7.191   3.846  -5.371  1.00 47.98     0.145 C 
HETATM   10  C1    D T3000       6.321   3.295  -4.221  1.00 44.93     0.038 C 
BRANCH   9  11
HETATM   11  C17   D T3000       6.572   3.448  -6.773  1.00 51.22     0.029 A 
HETATM   12  C13   D T3000       6.655   2.071  -7.242  1.00 51.61     0.057 A 
HETATM   13 CL     D T3000       7.409   0.801  -6.341  1.00 53.92    -0.083 Cl
HETATM   14  C3    D T3000       6.102   1.704  -8.507  1.00 51.64     0.013 A 
HETATM   15  C2    D T3000       5.468   2.662  -9.330  1.00 51.88     0.031 A 
HETATM   16  C12   D T3000       5.368   4.014  -8.911  1.00 53.21     0.150 A 
HETATM   17  F     D T3000       4.759   4.901  -9.719  1.00 51.93    -0.203 F 
HETATM   18  C18   D T3000       5.909   4.424  -7.644  1.00 53.17     0.084 A 
HETATM   19 CL2    D T3000       5.727   6.113  -7.230  1.00 65.44    -0.080 Cl
ENDBRANCH   9  11
ENDBRANCH   8   9
ENDBRANCH   1   8
BRANCH   7  20
HETATM   20  C16   D T3000      10.498   6.586  -1.809  1.00 44.81     0.041 A 
HETATM   21  C6    D T3000       9.662   7.768  -2.024  1.00 45.20     0.122 A 
HETATM   22  N24   D T3000      10.214   8.773  -1.418  1.00 48.48    -0.168 NA
HETATM   23  N26   D T3000      11.305   8.378  -0.842  1.00 52.17    -0.252 N 
HETATM   24  C7    D T3000      11.549   7.038  -1.037  1.00 48.89     0.097 A 
BRANCH  23  25
HETATM   25  C20   D T3000      12.216   9.233  -0.050  1.00 57.73     0.110 C 
HETATM   26  C8    D T3000      13.432   9.644  -0.923  1.00 60.56     0.063 C 
HETATM   27  C10   D T3000      14.382  10.543  -0.098  1.00 62.17     0.292 C 
HETATM   28  N25   D T3000      14.785   9.919   1.196  1.00 62.01     0.339 N 
HETATM   29  C11   D T3000      13.621   9.473   2.021  1.00 60.06     0.292 C 
HETATM   30  C9    D T3000      12.681   8.523   1.241  1.00 59.17     0.063 C 
ENDBRANCH  23  25
ENDBRANCH   7  20
TORSDOF 5
ENDMDL
MODEL 8
REMARK VINA RESULT:    -8.240      1.978      2.693
REMARK INTER + INTRA:         -11.381
REMARK INTER:                 -10.668
REMARK INTRA:                  -0.713
REMARK UNBOUND:                -0.734
REMARK  5 active torsions:
REMARK  status: ('A' for Active; 'I' for Inactive)
REMARK    1  A    between atoms: C17_7  and  C21_10 
REMARK    2  A    between atoms: C21_10  and  O27_12 
REMARK    3  A    between atoms: O27_12  and  C15_13 
REMARK    4  A    between atoms: C14_19  and  C16_20 
REMARK    5  A    between atoms: N26_23  and  C20_25 
ROOT
HETATM    1  C15   D T3000       9.757   2.946  -1.919  1.00 38.99     0.125 A 
HETATM    2  C4    D T3000      10.193   1.817  -1.153  1.00 40.94     0.029 A 
HETATM    3  C19   D T3000       9.205   4.036  -1.160  1.00 37.27     0.173 A 
HETATM    4  N22   D T3000       8.757   5.194  -1.826  1.00 36.61    -0.078 NA
HETATM    5  N23   D T3000       9.087   4.029   0.204  1.00 37.98    -0.228 NA
HETATM    6  C5    D T3000       9.516   2.922   0.898  1.00 40.12     0.100 A 
HETATM    7  C14   D T3000      10.083   1.776   0.263  1.00 40.87     0.024 A 
ENDROOT
BRANCH   1   8
HETATM    8  O27   D T3000       9.866   3.029  -3.316  1.00 42.27    -0.326 OA
BRANCH   8   9
HETATM    9  C21   D T3000       9.514   1.935  -4.264  1.00 47.98     0.145 C 
HETATM   10  C1    D T3000      10.834   1.499  -4.937  1.00 44.93     0.038 C 
BRANCH   9  11
HETATM   11  C17   D T3000       8.438   2.326  -5.357  1.00 51.22     0.029 A 
HETATM   12  C13   D T3000       8.364   3.694  -5.852  1.00 51.61     0.057 A 
HETATM   13 CL     D T3000       9.409   4.962  -5.309  1.00 53.92    -0.083 Cl
HETATM   14  C3    D T3000       7.394   4.056  -6.836  1.00 51.64     0.013 A 
HETATM   15  C2    D T3000       6.485   3.102  -7.347  1.00 51.88     0.031 A 
HETATM   16  C12   D T3000       6.521   1.759  -6.889  1.00 53.21     0.150 A 
HETATM   17  F     D T3000       5.641   0.877  -7.395  1.00 51.93    -0.203 F 
HETATM   18  C18   D T3000       7.485   1.354  -5.902  1.00 53.17     0.084 A 
HETATM   19 CL2    D T3000       7.439  -0.324  -5.414  1.00 65.44    -0.080 Cl
ENDBRANCH   9  11
ENDBRANCH   8   9
ENDBRANCH   1   8
BRANCH   7  20
HETATM   20  C16   D T3000      10.562   0.543   0.999  1.00 44.81     0.041 A 
HETATM   21  C6    D T3000      10.460   0.192   2.416  1.00 45.20     0.122 A 
HETATM   22  N24   D T3000      11.014  -0.967   2.590  1.00 48.48    -0.168 NA
HETATM   23  N26   D T3000      11.461  -1.402   1.454  1.00 52.17    -0.252 N 
HETATM   24  C7    D T3000      11.219  -0.525   0.422  1.00 48.89     0.097 A 
BRANCH  23  25
HETATM   25  C20   D T3000      12.156  -2.690   1.241  1.00 57.73     0.110 C 
HETATM   26  C8    D T3000      11.349  -3.554   0.235  1.00 60.56     0.063 C 
HETATM   27  C10   D T3000      12.076  -4.899   0.007  1.00 62.17     0.292 C 
HETATM   28  N25   D T3000      12.369  -5.619   1.282  1.00 62.01     0.339 N 
HETATM   29  C11   D T3000      13.100  -4.777   2.277  1.00 60.06     0.292 C 
HETATM   30  C9    D T3000      12.366  -3.448   2.571  1.00 59.17     0.063 C 
ENDBRANCH  23  25
ENDBRANCH   7  20
TORSDOF 5
ENDMDL
MODEL 9
REMARK VINA RESULT:    -8.178      4.026      9.540
REMARK INTER + INTRA:         -11.302
REMARK INTER:                 -10.897
REMARK INTRA:                  -0.405
REMARK UNBOUND:                -0.734
REMARK  5 active torsions:
REMARK  status: ('A' for Active; 'I' for Inactive)
REMARK    1  A    between atoms: C17_7  and  C21_10 
REMARK    2  A    between atoms: C21_10  and  O27_12 
REMARK    3  A    between atoms: O27_12  and  C15_13 
REMARK    4  A    between atoms: C14_19  and  C16_20 
REMARK    5  A    between atoms: N26_23  and  C20_25 
ROOT
HETATM    1  C15   D T3000       9.187   2.649   0.060  1.00 38.99     0.125 A 
HETATM    2  C4    D T3000       8.932   2.288  -1.302  1.00 40.94     0.029 A 
HETATM    3  C19   D T3000       9.106   4.055   0.356  1.00 37.27     0.173 A 
HETATM    4  N22   D T3000       9.331   4.505   1.672  1.00 36.61    -0.078 NA
HETATM    5  N23   D T3000       8.808   5.012  -0.576  1.00 37.98    -0.228 NA
HETATM    6  C5    D T3000       8.574   4.620  -1.874  1.00 40.12     0.100 A 
HETATM    7  C14   D T3000       8.624   3.257  -2.296  1.00 40.87     0.024 A 
ENDROOT
BRANCH   1   8
HETATM    8  O27   D T3000       9.476   1.720   1.071  1.00 42.27    -0.326 OA
BRANCH   8   9
HETATM    9  C21   D T3000      10.848   1.353   1.523  1.00 47.98     0.145 C 
HETATM   10  C1    D T3000      11.828   2.144   0.630  1.00 44.93     0.038 C 
BRANCH   9  11
HETATM   11  C17   D T3000      11.173  -0.195   1.466  1.00 51.22     0.029 A 
HETATM   12  C13   D T3000      11.052  -1.010   2.668  1.00 51.61     0.057 A 
HETATM   13 CL     D T3000      10.560  -0.379   4.202  1.00 53.92    -0.083 Cl
HETATM   14  C3    D T3000      11.346  -2.408   2.626  1.00 51.64     0.013 A 
HETATM   15  C2    D T3000      11.762  -3.028   1.427  1.00 51.88     0.031 A 
HETATM   16  C12   D T3000      11.895  -2.270   0.235  1.00 53.21     0.150 A 
HETATM   17  F     D T3000      12.295  -2.892  -0.889  1.00 51.93    -0.203 F 
HETATM   18  C18   D T3000      11.605  -0.862   0.234  1.00 53.17     0.084 A 
HETATM   19 CL2    D T3000      11.802  -0.029  -1.290  1.00 65.44    -0.080 Cl
ENDBRANCH   9  11
ENDBRANCH   8   9
ENDBRANCH   1   8
BRANCH   7  20
HETATM   20  C16   D T3000       8.373   2.794  -3.715  1.00 44.81     0.041 A 
HETATM   21  C6    D T3000       8.513   1.464  -4.311  1.00 45.20     0.122 A 
HETATM   22  N24   D T3000       8.187   1.543  -5.563  1.00 48.48    -0.168 NA
HETATM   23  N26   D T3000       7.856   2.764  -5.844  1.00 52.17    -0.252 N 
HETATM   24  C7    D T3000       7.944   3.597  -4.752  1.00 48.89     0.097 A 
BRANCH  23  25
HETATM   25  C20   D T3000       7.422   3.253  -7.170  1.00 57.73     0.110 C 
HETATM   26  C8    D T3000       7.255   4.796  -7.124  1.00 60.56     0.063 C 
HETATM   27  C10   D T3000       6.806   5.310  -8.512  1.00 62.17     0.292 C 
HETATM   28  N25   D T3000       5.588   4.611  -9.018  1.00 62.01     0.339 N 
HETATM   29  C11   D T3000       5.721   3.123  -9.016  1.00 60.06     0.292 C 
HETATM   30  C9    D T3000       6.112   2.572  -7.625  1.00 59.17     0.063 C 
ENDBRANCH  23  25
ENDBRANCH   7  20
TORSDOF 5
ENDMDL
