MODEL 1
REMARK VINA RESULT:    -8.973      0.000      0.000
REMARK INTER + INTRA:         -12.203
REMARK INTER:                 -11.595
REMARK INTRA:                  -0.608
REMARK UNBOUND:                -0.608
REMARK  5 active torsions:
REMARK  status: ('A' for Active; 'I' for Inactive)
REMARK    1  A    between atoms: C17_7  and  C21_10 
REMARK    2  A    between atoms: C21_10  and  O27_12 
REMARK    3  A    between atoms: O27_12  and  C15_13 
REMARK    4  A    between atoms: C14_19  and  C16_20 
REMARK    5  A    between atoms: N26_23  and  C20_25 
ROOT
HETATM    1  C15   D T3000       5.378  12.391   2.213  1.00 38.99     0.125 A 
HETATM    2  C4    D T3000       6.727  12.147   2.627  1.00 40.94     0.029 A 
HETATM    3  C19   D T3000       4.375  11.596   2.868  1.00 37.27     0.173 A 
HETATM    4  N22   D T3000       3.016  11.772   2.533  1.00 36.61    -0.078 NA
HETATM    5  N23   D T3000       4.652  10.657   3.826  1.00 37.98    -0.228 NA
HETATM    6  C5    D T3000       5.963  10.454   4.189  1.00 40.12     0.100 A 
HETATM    7  C14   D T3000       7.052  11.179   3.616  1.00 40.87     0.024 A 
ENDROOT
BRANCH   1   8
HETATM    8  O27   D T3000       5.020  13.351   1.255  1.00 42.27    -0.326 OA
BRANCH   8   9
HETATM    9  C21   D T3000       4.381  13.048  -0.056  1.00 47.98     0.145 C 
HETATM   10  C1    D T3000       5.475  12.407  -0.939  1.00 44.93     0.038 C 
BRANCH   9  11
HETATM   11  C17   D T3000       3.743  14.300  -0.787  1.00 51.22     0.029 A 
HETATM   12  C13   D T3000       2.317  14.319  -1.089  1.00 51.61     0.057 A 
HETATM   13 CL     D T3000       1.241  13.026  -0.688  1.00 53.92    -0.083 Cl
HETATM   14  C3    D T3000       1.734  15.444  -1.751  1.00 51.64     0.013 A 
HETATM   15  C2    D T3000       2.521  16.553  -2.129  1.00 51.88     0.031 A 
HETATM   16  C12   D T3000       3.914  16.573  -1.856  1.00 53.21     0.150 A 
HETATM   17  F     D T3000       4.633  17.646  -2.232  1.00 51.93    -0.203 F 
HETATM   18  C18   D T3000       4.539  15.464  -1.190  1.00 53.17     0.084 A 
HETATM   19 CL2    D T3000       6.259  15.596  -0.905  1.00 65.44    -0.080 Cl
ENDBRANCH   9  11
ENDBRANCH   8   9
ENDBRANCH   1   8
BRANCH   7  20
HETATM   20  C16   D T3000       8.504  10.977   3.994  1.00 44.81     0.041 A 
HETATM   21  C6    D T3000       9.657  11.860   3.814  1.00 45.20     0.122 A 
HETATM   22  N24   D T3000      10.704  11.265   4.291  1.00 48.48    -0.168 NA
HETATM   23  N26   D T3000      10.363  10.104   4.755  1.00 52.17    -0.252 N 
HETATM   24  C7    D T3000       9.017   9.853   4.608  1.00 48.89     0.097 A 
BRANCH  23  25
HETATM   25  C20   D T3000      11.278   9.128   5.383  1.00 57.73     0.110 C 
HETATM   26  C8    D T3000      11.706   9.644   6.784  1.00 60.56     0.063 C 
HETATM   27  C10   D T3000      12.659   8.621   7.444  1.00 62.17     0.292 C 
HETATM   28  N25   D T3000      13.822   8.273   6.576  1.00 62.01     0.339 N 
HETATM   29  C11   D T3000      13.421   7.824   5.207  1.00 60.06     0.292 C 
HETATM   30  C9    D T3000      12.514   8.856   4.496  1.00 59.17     0.063 C 
ENDBRANCH  23  25
ENDBRANCH   7  20
TORSDOF 5
ENDMDL
MODEL 2
REMARK VINA RESULT:    -8.966      2.449      4.542
REMARK INTER + INTRA:         -12.194
REMARK INTER:                 -11.136
REMARK INTRA:                  -1.058
REMARK UNBOUND:                -0.608
REMARK  5 active torsions:
REMARK  status: ('A' for Active; 'I' for Inactive)
REMARK    1  A    between atoms: C17_7  and  C21_10 
REMARK    2  A    between atoms: C21_10  and  O27_12 
REMARK    3  A    between atoms: O27_12  and  C15_13 
REMARK    4  A    between atoms: C14_19  and  C16_20 
REMARK    5  A    between atoms: N26_23  and  C20_25 
ROOT
HETATM    1  C15   D T3000       2.432  13.505   0.017  1.00 38.99     0.125 A 
HETATM    2  C4    D T3000       3.498  12.957   0.802  1.00 40.94     0.029 A 
HETATM    3  C19   D T3000       1.105  13.239   0.504  1.00 37.27     0.173 A 
HETATM    4  N22   D T3000      -0.009  13.747  -0.197  1.00 36.61    -0.078 NA
HETATM    5  N23   D T3000       0.838  12.514   1.634  1.00 37.98    -0.228 NA
HETATM    6  C5    D T3000       1.893  12.003   2.352  1.00 40.12     0.100 A 
HETATM    7  C14   D T3000       3.259  12.196   1.978  1.00 40.87     0.024 A 
ENDROOT
BRANCH   1   8
HETATM    8  O27   D T3000       2.633  14.275  -1.138  1.00 42.27    -0.326 OA
BRANCH   8   9
HETATM    9  C21   D T3000       3.288  15.612  -1.168  1.00 47.98     0.145 C 
HETATM   10  C1    D T3000       2.497  16.465  -2.183  1.00 44.93     0.038 C 
BRANCH   9  11
HETATM   11  C17   D T3000       4.826  15.587  -1.545  1.00 51.22     0.029 A 
HETATM   12  C13   D T3000       5.702  16.665  -1.101  1.00 51.61     0.057 A 
HETATM   13 CL     D T3000       5.157  18.010  -0.160  1.00 53.92    -0.083 Cl
HETATM   14  C3    D T3000       7.090  16.652  -1.440  1.00 51.64     0.013 A 
HETATM   15  C2    D T3000       7.642  15.605  -2.209  1.00 51.88     0.031 A 
HETATM   16  C12   D T3000       6.823  14.538  -2.663  1.00 53.21     0.150 A 
HETATM   17  F     D T3000       7.381  13.558  -3.396  1.00 51.93    -0.203 F 
HETATM   18  C18   D T3000       5.422  14.511  -2.342  1.00 53.17     0.084 A 
HETATM   19 CL2    D T3000       4.511  13.150  -2.953  1.00 65.44    -0.080 Cl
ENDBRANCH   9  11
ENDBRANCH   8   9
ENDBRANCH   1   8
BRANCH   7  20
HETATM   20  C16   D T3000       4.440  11.645   2.748  1.00 44.81     0.041 A 
HETATM   21  C6    D T3000       4.486  10.643   3.814  1.00 45.20     0.122 A 
HETATM   22  N24   D T3000       5.721  10.490   4.175  1.00 48.48    -0.168 NA
HETATM   23  N26   D T3000       6.474  11.274   3.470  1.00 52.17    -0.252 N 
HETATM   24  C7    D T3000       5.755  12.021   2.564  1.00 48.89     0.097 A 
BRANCH  23  25
HETATM   25  C20   D T3000       7.943  11.386   3.587  1.00 57.73     0.110 C 
HETATM   26  C8    D T3000       8.588  11.251   2.180  1.00 60.56     0.063 C 
HETATM   27  C10   D T3000      10.124  11.374   2.299  1.00 62.17     0.292 C 
HETATM   28  N25   D T3000      10.703  10.423   3.294  1.00 62.01     0.339 N 
HETATM   29  C11   D T3000      10.053  10.510   4.638  1.00 60.06     0.292 C 
HETATM   30  C9    D T3000       8.518  10.331   4.558  1.00 59.17     0.063 C 
ENDBRANCH  23  25
ENDBRANCH   7  20
TORSDOF 5
ENDMDL
MODEL 3
REMARK VINA RESULT:    -8.866      0.970      1.922
REMARK INTER + INTRA:         -12.066
REMARK INTER:                 -11.512
REMARK INTRA:                  -0.554
REMARK UNBOUND:                -0.608
REMARK  5 active torsions:
REMARK  status: ('A' for Active; 'I' for Inactive)
REMARK    1  A    between atoms: C17_7  and  C21_10 
REMARK    2  A    between atoms: C21_10  and  O27_12 
REMARK    3  A    between atoms: O27_12  and  C15_13 
REMARK    4  A    between atoms: C14_19  and  C16_20 
REMARK    5  A    between atoms: N26_23  and  C20_25 
ROOT
HETATM    1  C15   D T3000       4.771  12.533   2.163  1.00 38.99     0.125 A 
HETATM    2  C4    D T3000       6.128  12.295   2.555  1.00 40.94     0.029 A 
HETATM    3  C19   D T3000       3.795  11.642   2.730  1.00 37.27     0.173 A 
HETATM    4  N22   D T3000       2.432  11.805   2.410  1.00 36.61    -0.078 NA
HETATM    5  N23   D T3000       4.104  10.622   3.590  1.00 37.98    -0.228 NA
HETATM    6  C5    D T3000       5.421  10.428   3.935  1.00 40.12     0.100 A 
HETATM    7  C14   D T3000       6.485  11.243   3.442  1.00 40.87     0.024 A 
ENDROOT
BRANCH   1   8
HETATM    8  O27   D T3000       4.381  13.572   1.305  1.00 42.27    -0.326 OA
BRANCH   8   9
HETATM    9  C21   D T3000       4.026  13.402  -0.132  1.00 47.98     0.145 C 
HETATM   10  C1    D T3000       4.945  12.289  -0.681  1.00 44.93     0.038 C 
BRANCH   9  11
HETATM   11  C17   D T3000       4.162  14.715  -1.007  1.00 51.22     0.029 A 
HETATM   12  C13   D T3000       5.474  15.311  -1.228  1.00 51.61     0.057 A 
HETATM   13 CL     D T3000       6.939  14.658  -0.577  1.00 53.92    -0.083 Cl
HETATM   14  C3    D T3000       5.606  16.497  -2.014  1.00 51.64     0.013 A 
HETATM   15  C2    D T3000       4.475  17.117  -2.589  1.00 51.88     0.031 A 
HETATM   16  C12   D T3000       3.180  16.571  -2.396  1.00 53.21     0.150 A 
HETATM   17  F     D T3000       2.125  17.189  -2.957  1.00 51.93    -0.203 F 
HETATM   18  C18   D T3000       3.004  15.378  -1.615  1.00 53.17     0.084 A 
HETATM   19 CL2    D T3000       1.365  14.794  -1.444  1.00 65.44    -0.080 Cl
ENDBRANCH   9  11
ENDBRANCH   8   9
ENDBRANCH   1   8
BRANCH   7  20
HETATM   20  C16   D T3000       7.943  11.053   3.803  1.00 44.81     0.041 A 
HETATM   21  C6    D T3000       9.091  11.933   3.584  1.00 45.20     0.122 A 
HETATM   22  N24   D T3000      10.146  11.352   4.060  1.00 48.48    -0.168 NA
HETATM   23  N26   D T3000       9.815  10.203   4.559  1.00 52.17    -0.252 N 
HETATM   24  C7    D T3000       8.467   9.946   4.439  1.00 48.89     0.097 A 
BRANCH  23  25
HETATM   25  C20   D T3000      10.741   9.245   5.198  1.00 57.73     0.110 C 
HETATM   26  C8    D T3000      10.826   9.541   6.721  1.00 60.56     0.063 C 
HETATM   27  C10   D T3000      11.789   8.536   7.392  1.00 62.17     0.292 C 
HETATM   28  N25   D T3000      13.130   8.497   6.735  1.00 62.01     0.339 N 
HETATM   29  C11   D T3000      13.056   8.264   5.260  1.00 60.06     0.292 C 
HETATM   30  C9    D T3000      12.143   9.292   4.551  1.00 59.17     0.063 C 
ENDBRANCH  23  25
ENDBRANCH   7  20
TORSDOF 5
ENDMDL
MODEL 4
REMARK VINA RESULT:    -8.803      2.020      3.016
REMARK INTER + INTRA:         -11.984
REMARK INTER:                 -11.406
REMARK INTRA:                  -0.578
REMARK UNBOUND:                -0.608
REMARK  5 active torsions:
REMARK  status: ('A' for Active; 'I' for Inactive)
REMARK    1  A    between atoms: C17_7  and  C21_10 
REMARK    2  A    between atoms: C21_10  and  O27_12 
REMARK    3  A    between atoms: O27_12  and  C15_13 
REMARK    4  A    between atoms: C14_19  and  C16_20 
REMARK    5  A    between atoms: N26_23  and  C20_25 
ROOT
HETATM    1  C15   D T3000       3.671  12.721   0.507  1.00 38.99     0.125 A 
HETATM    2  C4    D T3000       5.047  12.661   0.898  1.00 40.94     0.029 A 
HETATM    3  C19   D T3000       2.725  12.283   1.498  1.00 37.27     0.173 A 
HETATM    4  N22   D T3000       1.346  12.315   1.208  1.00 36.61    -0.078 NA
HETATM    5  N23   D T3000       3.078  11.831   2.741  1.00 37.98    -0.228 NA
HETATM    6  C5    D T3000       4.412  11.787   3.071  1.00 40.12     0.100 A 
HETATM    7  C14   D T3000       5.451  12.194   2.178  1.00 40.87     0.024 A 
ENDROOT
BRANCH   1   8
HETATM    8  O27   D T3000       3.237  13.193  -0.741  1.00 42.27    -0.326 OA
BRANCH   8   9
HETATM    9  C21   D T3000       2.854  14.602  -1.032  1.00 47.98     0.145 C 
HETATM   10  C1    D T3000       1.366  14.575  -1.449  1.00 44.93     0.038 C 
BRANCH   9  11
HETATM   11  C17   D T3000       3.728  15.309  -2.147  1.00 51.22     0.029 A 
HETATM   12  C13   D T3000       3.621  16.748  -2.353  1.00 51.61     0.057 A 
HETATM   13 CL     D T3000       2.571  17.768  -1.430  1.00 53.92    -0.083 Cl
HETATM   14  C3    D T3000       4.404  17.394  -3.359  1.00 51.64     0.013 A 
HETATM   15  C2    D T3000       5.290  16.657  -4.175  1.00 51.88     0.031 A 
HETATM   16  C12   D T3000       5.422  15.254  -4.010  1.00 53.21     0.150 A 
HETATM   17  F     D T3000       6.274  14.584  -4.805  1.00 51.93    -0.203 F 
HETATM   18  C18   D T3000       4.655  14.567  -3.007  1.00 53.17     0.084 A 
HETATM   19 CL2    D T3000       4.897  12.839  -2.891  1.00 65.44    -0.080 Cl
ENDBRANCH   9  11
ENDBRANCH   8   9
ENDBRANCH   1   8
BRANCH   7  20
HETATM   20  C16   D T3000       6.926  12.155   2.512  1.00 44.81     0.041 A 
HETATM   21  C6    D T3000       8.050  12.871   1.906  1.00 45.20     0.122 A 
HETATM   22  N24   D T3000       9.135  12.521   2.521  1.00 48.48    -0.168 NA
HETATM   23  N26   D T3000       8.845  11.664   3.449  1.00 52.17    -0.252 N 
HETATM   24  C7    D T3000       7.498  11.387   3.507  1.00 48.89     0.097 A 
BRANCH  23  25
HETATM   25  C20   D T3000       9.815  11.032   4.367  1.00 57.73     0.110 C 
HETATM   26  C8    D T3000      11.124  10.707   3.597  1.00 60.56     0.063 C 
HETATM   27  C10   D T3000      12.143  10.052   4.558  1.00 62.17     0.292 C 
HETATM   28  N25   D T3000      11.582   8.866   5.270  1.00 62.01     0.339 N 
HETATM   29  C11   D T3000      10.294   9.157   5.972  1.00 60.06     0.292 C 
HETATM   30  C9    D T3000       9.233   9.760   5.022  1.00 59.17     0.063 C 
ENDBRANCH  23  25
ENDBRANCH   7  20
TORSDOF 5
ENDMDL
MODEL 5
REMARK VINA RESULT:    -8.741      6.065      9.996
REMARK INTER + INTRA:         -11.904
REMARK INTER:                 -11.136
REMARK INTRA:                  -0.768
REMARK UNBOUND:                -0.608
REMARK  5 active torsions:
REMARK  status: ('A' for Active; 'I' for Inactive)
REMARK    1  A    between atoms: C17_7  and  C21_10 
REMARK    2  A    between atoms: C21_10  and  O27_12 
REMARK    3  A    between atoms: O27_12  and  C15_13 
REMARK    4  A    between atoms: C14_19  and  C16_20 
REMARK    5  A    between atoms: N26_23  and  C20_25 
ROOT
HETATM    1  C15   D T3000       3.805  15.070  -2.121  1.00 38.99     0.125 A 
HETATM    2  C4    D T3000       4.744  15.567  -3.082  1.00 40.94     0.029 A 
HETATM    3  C19   D T3000       2.699  15.942  -1.828  1.00 37.27     0.173 A 
HETATM    4  N22   D T3000       1.718  15.536  -0.900  1.00 36.61    -0.078 NA
HETATM    5  N23   D T3000       2.523  17.171  -2.406  1.00 37.98    -0.228 NA
HETATM    6  C5    D T3000       3.453  17.607  -3.320  1.00 40.12     0.100 A 
HETATM    7  C14   D T3000       4.595  16.838  -3.700  1.00 40.87     0.024 A 
ENDROOT
BRANCH   1   8
HETATM    8  O27   D T3000       3.911  13.815  -1.506  1.00 42.27    -0.326 OA
BRANCH   8   9
HETATM    9  C21   D T3000       5.108  13.327  -0.766  1.00 47.98     0.145 C 
HETATM   10  C1    D T3000       5.756  12.239  -1.651  1.00 44.93     0.038 C 
BRANCH   9  11
HETATM   11  C17   D T3000       4.806  12.757   0.680  1.00 51.22     0.029 A 
HETATM   12  C13   D T3000       5.850  12.762   1.698  1.00 51.61     0.057 A 
HETATM   13 CL     D T3000       7.446  13.371   1.422  1.00 53.92    -0.083 Cl
HETATM   14  C3    D T3000       5.588  12.247   3.004  1.00 51.64     0.013 A 
HETATM   15  C2    D T3000       4.321  11.720   3.337  1.00 51.88     0.031 A 
HETATM   16  C12   D T3000       3.278  11.694   2.375  1.00 53.21     0.150 A 
HETATM   17  F     D T3000       2.084  11.183   2.726  1.00 51.93    -0.203 F 
HETATM   18  C18   D T3000       3.500  12.205   1.050  1.00 53.17     0.084 A 
HETATM   19 CL2    D T3000       2.145  12.122  -0.052  1.00 65.44    -0.080 Cl
ENDBRANCH   9  11
ENDBRANCH   8   9
ENDBRANCH   1   8
BRANCH   7  20
HETATM   20  C16   D T3000       5.635  17.292  -4.701  1.00 44.81     0.041 A 
HETATM   21  C6    D T3000       5.535  18.269  -5.787  1.00 45.20     0.122 A 
HETATM   22  N24   D T3000       6.682  18.331  -6.385  1.00 48.48    -0.168 NA
HETATM   23  N26   D T3000       7.507  17.510  -5.817  1.00 52.17    -0.252 N 
HETATM   24  C7    D T3000       6.933  16.831  -4.765  1.00 48.89     0.097 A 
BRANCH  23  25
HETATM   25  C20   D T3000       8.915  17.296  -6.213  1.00 57.73     0.110 C 
HETATM   26  C8    D T3000       9.048  17.443  -7.754  1.00 60.56     0.063 C 
HETATM   27  C10   D T3000      10.521  17.226  -8.170  1.00 62.17     0.292 C 
HETATM   28  N25   D T3000      11.079  15.937  -7.663  1.00 62.01     0.339 N 
HETATM   29  C11   D T3000      10.908  15.763  -6.188  1.00 60.06     0.292 C 
HETATM   30  C9    D T3000       9.433  15.917  -5.747  1.00 59.17     0.063 C 
ENDBRANCH  23  25
ENDBRANCH   7  20
TORSDOF 5
ENDMDL
MODEL 6
REMARK VINA RESULT:    -8.730      6.563      9.906
REMARK INTER + INTRA:         -11.890
REMARK INTER:                 -11.481
REMARK INTRA:                  -0.409
REMARK UNBOUND:                -0.608
REMARK  5 active torsions:
REMARK  status: ('A' for Active; 'I' for Inactive)
REMARK    1  A    between atoms: C17_7  and  C21_10 
REMARK    2  A    between atoms: C21_10  and  O27_12 
REMARK    3  A    between atoms: O27_12  and  C15_13 
REMARK    4  A    between atoms: C14_19  and  C16_20 
REMARK    5  A    between atoms: N26_23  and  C20_25 
ROOT
HETATM    1  C15   D T3000       4.172  15.152  -2.649  1.00 38.99     0.125 A 
HETATM    2  C4    D T3000       5.180  15.314  -3.655  1.00 40.94     0.029 A 
HETATM    3  C19   D T3000       3.342  16.302  -2.413  1.00 37.27     0.173 A 
HETATM    4  N22   D T3000       2.316  16.235  -1.448  1.00 36.61    -0.078 NA
HETATM    5  N23   D T3000       3.475  17.489  -3.082  1.00 37.98    -0.228 NA
HETATM    6  C5    D T3000       4.460  17.600  -4.036  1.00 40.12     0.100 A 
HETATM    7  C14   D T3000       5.350  16.533  -4.366  1.00 40.87     0.024 A 
ENDROOT
BRANCH   1   8
HETATM    8  O27   D T3000       3.965  13.959  -1.941  1.00 42.27    -0.326 OA
BRANCH   8   9
HETATM    9  C21   D T3000       4.873  13.424  -0.890  1.00 47.98     0.145 C 
HETATM   10  C1    D T3000       5.796  12.400  -1.587  1.00 44.93     0.038 C 
BRANCH   9  11
HETATM   11  C17   D T3000       4.138  12.756   0.344  1.00 51.22     0.029 A 
HETATM   12  C13   D T3000       2.720  12.430   0.257  1.00 51.61     0.057 A 
HETATM   13 CL     D T3000       1.756  12.733  -1.147  1.00 53.92    -0.083 Cl
HETATM   14  C3    D T3000       2.048  11.830   1.366  1.00 51.64     0.013 A 
HETATM   15  C2    D T3000       2.736  11.543   2.565  1.00 51.88     0.031 A 
HETATM   16  C12   D T3000       4.117  11.847   2.692  1.00 53.21     0.150 A 
HETATM   17  F     D T3000       4.741  11.562   3.849  1.00 51.93    -0.203 F 
HETATM   18  C18   D T3000       4.831  12.449   1.599  1.00 53.17     0.084 A 
HETATM   19 CL2    D T3000       6.527  12.779   1.865  1.00 65.44    -0.080 Cl
ENDBRANCH   9  11
ENDBRANCH   8   9
ENDBRANCH   1   8
BRANCH   7  20
HETATM   20  C16   D T3000       6.442  16.626  -5.409  1.00 44.81     0.041 A 
HETATM   21  C6    D T3000       6.359  16.934  -6.838  1.00 45.20     0.122 A 
HETATM   22  N24   D T3000       7.555  16.899  -7.333  1.00 48.48    -0.168 NA
HETATM   23  N26   D T3000       8.398  16.604  -6.395  1.00 52.17    -0.252 N 
HETATM   24  C7    D T3000       7.787  16.421  -5.175  1.00 48.89     0.097 A 
BRANCH  23  25
HETATM   25  C20   D T3000       9.861  16.472  -6.566  1.00 57.73     0.110 C 
HETATM   26  C8    D T3000      10.544  17.833  -6.262  1.00 60.56     0.063 C 
HETATM   27  C10   D T3000      12.074  17.695  -6.435  1.00 62.17     0.292 C 
HETATM   28  N25   D T3000      12.456  17.141  -7.767  1.00 62.01     0.339 N 
HETATM   29  C11   D T3000      11.763  15.856  -8.090  1.00 60.06     0.292 C 
HETATM   30  C9    D T3000      10.225  15.978  -7.983  1.00 59.17     0.063 C 
ENDBRANCH  23  25
ENDBRANCH   7  20
TORSDOF 5
ENDMDL
MODEL 7
REMARK VINA RESULT:    -8.482      1.474      2.086
REMARK INTER + INTRA:         -11.569
REMARK INTER:                 -10.894
REMARK INTRA:                  -0.675
REMARK UNBOUND:                -0.608
REMARK  5 active torsions:
REMARK  status: ('A' for Active; 'I' for Inactive)
REMARK    1  A    between atoms: C17_7  and  C21_10 
REMARK    2  A    between atoms: C21_10  and  O27_12 
REMARK    3  A    between atoms: O27_12  and  C15_13 
REMARK    4  A    between atoms: C14_19  and  C16_20 
REMARK    5  A    between atoms: N26_23  and  C20_25 
ROOT
HETATM    1  C15   D T3000       5.485  12.363   2.162  1.00 38.99     0.125 A 
HETATM    2  C4    D T3000       6.829  12.036   2.532  1.00 40.94     0.029 A 
HETATM    3  C19   D T3000       4.456  11.666   2.885  1.00 37.27     0.173 A 
HETATM    4  N22   D T3000       3.101  11.928   2.597  1.00 36.61    -0.078 NA
HETATM    5  N23   D T3000       4.704  10.743   3.865  1.00 37.98    -0.228 NA
HETATM    6  C5    D T3000       6.011  10.457   4.183  1.00 40.12     0.100 A 
HETATM    7  C14   D T3000       7.125  11.081   3.542  1.00 40.87     0.024 A 
ENDROOT
BRANCH   1   8
HETATM    8  O27   D T3000       5.156  13.313   1.183  1.00 42.27    -0.326 OA
BRANCH   8   9
HETATM    9  C21   D T3000       4.465  13.010  -0.100  1.00 47.98     0.145 C 
HETATM   10  C1    D T3000       5.525  12.375  -1.029  1.00 44.93     0.038 C 
BRANCH   9  11
HETATM   11  C17   D T3000       3.792  14.260  -0.802  1.00 51.22     0.029 A 
HETATM   12  C13   D T3000       2.360  14.258  -1.076  1.00 51.61     0.057 A 
HETATM   13 CL     D T3000       1.315  12.940  -0.672  1.00 53.92    -0.083 Cl
HETATM   14  C3    D T3000       1.745  15.380  -1.711  1.00 51.64     0.013 A 
HETATM   15  C2    D T3000       2.506  16.508  -2.090  1.00 51.88     0.031 A 
HETATM   16  C12   D T3000       3.902  16.549  -1.844  1.00 53.21     0.150 A 
HETATM   17  F     D T3000       4.596  17.638  -2.219  1.00 51.93    -0.203 F 
HETATM   18  C18   D T3000       4.559  15.442  -1.204  1.00 53.17     0.084 A 
HETATM   19 CL2    D T3000       6.282  15.601  -0.951  1.00 65.44    -0.080 Cl
ENDBRANCH   9  11
ENDBRANCH   8   9
ENDBRANCH   1   8
BRANCH   7  20
HETATM   20  C16   D T3000       8.573  10.786   3.870  1.00 44.81     0.041 A 
HETATM   21  C6    D T3000       9.214   9.531   4.266  1.00 45.20     0.122 A 
HETATM   22  N24   D T3000      10.476   9.758   4.446  1.00 48.48    -0.168 NA
HETATM   23  N26   D T3000      10.724  11.008   4.216  1.00 52.17    -0.252 N 
HETATM   24  C7    D T3000       9.597  11.711   3.853  1.00 48.89     0.097 A 
BRANCH  23  25
HETATM   25  C20   D T3000      12.051  11.652   4.314  1.00 57.73     0.110 C 
HETATM   26  C8    D T3000      12.255  12.608   3.107  1.00 60.56     0.063 C 
HETATM   27  C10   D T3000      13.640  13.288   3.211  1.00 62.17     0.292 C 
HETATM   28  N25   D T3000      14.753  12.305   3.365  1.00 62.01     0.339 N 
HETATM   29  C11   D T3000      14.541  11.347   4.492  1.00 60.06     0.292 C 
HETATM   30  C9    D T3000      13.187  10.607   4.385  1.00 59.17     0.063 C 
ENDBRANCH  23  25
ENDBRANCH   7  20
TORSDOF 5
ENDMDL
MODEL 8
REMARK VINA RESULT:    -8.315      2.182      2.818
REMARK INTER + INTRA:         -11.353
REMARK INTER:                 -10.394
REMARK INTRA:                  -0.959
REMARK UNBOUND:                -0.608
REMARK  5 active torsions:
REMARK  status: ('A' for Active; 'I' for Inactive)
REMARK    1  A    between atoms: C17_7  and  C21_10 
REMARK    2  A    between atoms: C21_10  and  O27_12 
REMARK    3  A    between atoms: O27_12  and  C15_13 
REMARK    4  A    between atoms: C14_19  and  C16_20 
REMARK    5  A    between atoms: N26_23  and  C20_25 
ROOT
HETATM    1  C15   D T3000       7.040  13.530   1.091  1.00 38.99     0.125 A 
HETATM    2  C4    D T3000       7.399  12.609   2.128  1.00 40.94     0.029 A 
HETATM    3  C19   D T3000       8.138  14.207   0.456  1.00 37.27     0.173 A 
HETATM    4  N22   D T3000       7.884  15.126  -0.583  1.00 36.61    -0.078 NA
HETATM    5  N23   D T3000       9.451  14.012   0.792  1.00 37.98    -0.228 NA
HETATM    6  C5    D T3000       9.748  13.121   1.796  1.00 40.12     0.100 A 
HETATM    7  C14   D T3000       8.750  12.384   2.506  1.00 40.87     0.024 A 
ENDROOT
BRANCH   1   8
HETATM    8  O27   D T3000       5.719  13.764   0.681  1.00 42.27    -0.326 OA
BRANCH   8   9
HETATM    9  C21   D T3000       4.803  12.728   0.129  1.00 47.98     0.145 C 
HETATM   10  C1    D T3000       5.527  12.106  -1.086  1.00 44.93     0.038 C 
BRANCH   9  11
HETATM   11  C17   D T3000       3.374  13.264  -0.293  1.00 51.22     0.029 A 
HETATM   12  C13   D T3000       2.177  12.525   0.089  1.00 51.61     0.057 A 
HETATM   13 CL     D T3000       2.214  11.056   1.002  1.00 53.92    -0.083 Cl
HETATM   14  C3    D T3000       0.883  13.000  -0.290  1.00 51.64     0.013 A 
HETATM   15  C2    D T3000       0.736  14.186  -1.042  1.00 51.88     0.031 A 
HETATM   16  C12   D T3000       1.876  14.933  -1.436  1.00 53.21     0.150 A 
HETATM   17  F     D T3000       1.698  16.057  -2.153  1.00 51.93    -0.203 F 
HETATM   18  C18   D T3000       3.194  14.492  -1.073  1.00 53.17     0.084 A 
HETATM   19 CL2    D T3000       4.525  15.490  -1.612  1.00 65.44    -0.080 Cl
ENDBRANCH   9  11
ENDBRANCH   8   9
ENDBRANCH   1   8
BRANCH   7  20
HETATM   20  C16   D T3000       9.047  11.398   3.615  1.00 44.81     0.041 A 
HETATM   21  C6    D T3000       8.170  10.429   4.275  1.00 45.20     0.122 A 
HETATM   22  N24   D T3000       8.861   9.800   5.171  1.00 48.48    -0.168 NA
HETATM   23  N26   D T3000      10.077  10.248   5.169  1.00 52.17    -0.252 N 
HETATM   24  C7    D T3000      10.270  11.239   4.233  1.00 48.89     0.097 A 
BRANCH  23  25
HETATM   25  C20   D T3000      11.166   9.778   6.050  1.00 57.73     0.110 C 
HETATM   26  C8    D T3000      11.904  11.001   6.661  1.00 60.56     0.063 C 
HETATM   27  C10   D T3000      13.040  10.511   7.588  1.00 62.17     0.292 C 
HETATM   28  N25   D T3000      13.967   9.558   6.909  1.00 62.01     0.339 N 
HETATM   29  C11   D T3000      13.261   8.404   6.272  1.00 60.06     0.292 C 
HETATM   30  C9    D T3000      12.155   8.863   5.293  1.00 59.17     0.063 C 
ENDBRANCH  23  25
ENDBRANCH   7  20
TORSDOF 5
ENDMDL
MODEL 9
REMARK VINA RESULT:    -8.278      5.864      9.399
REMARK INTER + INTRA:         -11.305
REMARK INTER:                 -10.798
REMARK INTRA:                  -0.507
REMARK UNBOUND:                -0.608
REMARK  5 active torsions:
REMARK  status: ('A' for Active; 'I' for Inactive)
REMARK    1  A    between atoms: C17_7  and  C21_10 
REMARK    2  A    between atoms: C21_10  and  O27_12 
REMARK    3  A    between atoms: O27_12  and  C15_13 
REMARK    4  A    between atoms: C14_19  and  C16_20 
REMARK    5  A    between atoms: N26_23  and  C20_25 
ROOT
HETATM    1  C15   D T3000       5.616  13.429  -1.241  1.00 38.99     0.125 A 
HETATM    2  C4    D T3000       6.443  13.872  -2.324  1.00 40.94     0.029 A 
HETATM    3  C19   D T3000       4.221  13.759  -1.350  1.00 37.27     0.173 A 
HETATM    4  N22   D T3000       3.327  13.357  -0.337  1.00 36.61    -0.078 NA
HETATM    5  N23   D T3000       3.682  14.451  -2.402  1.00 37.98    -0.228 NA
HETATM    6  C5    D T3000       4.514  14.859  -3.417  1.00 40.12     0.100 A 
HETATM    7  C14   D T3000       5.918  14.594  -3.430  1.00 40.87     0.024 A 
ENDROOT
BRANCH   1   8
HETATM    8  O27   D T3000       6.097  12.699  -0.144  1.00 42.27    -0.326 OA
BRANCH   8   9
HETATM    9  C21   D T3000       5.988  13.126   1.278  1.00 47.98     0.145 C 
HETATM   10  C1    D T3000       6.553  14.562   1.349  1.00 44.93     0.038 C 
BRANCH   9  11
HETATM   11  C17   D T3000       6.733  12.187   2.312  1.00 51.22     0.029 A 
HETATM   12  C13   D T3000       5.964  11.417   3.282  1.00 51.61     0.057 A 
HETATM   13 CL     D T3000       4.238  11.461   3.381  1.00 53.92    -0.083 Cl
HETATM   14  C3    D T3000       6.629  10.568   4.221  1.00 51.64     0.013 A 
HETATM   15  C2    D T3000       8.037  10.460   4.233  1.00 51.88     0.031 A 
HETATM   16  C12   D T3000       8.822  11.195   3.308  1.00 53.21     0.150 A 
HETATM   17  F     D T3000      10.161  11.069   3.349  1.00 51.93    -0.203 F 
HETATM   18  C18   D T3000       8.193  12.057   2.345  1.00 53.17     0.084 A 
HETATM   19 CL2    D T3000       9.258  12.913   1.254  1.00 65.44    -0.080 Cl
ENDBRANCH   9  11
ENDBRANCH   8   9
ENDBRANCH   1   8
BRANCH   7  20
HETATM   20  C16   D T3000       6.859  15.032  -4.531  1.00 44.81     0.041 A 
HETATM   21  C6    D T3000       6.577  15.413  -5.916  1.00 45.20     0.122 A 
HETATM   22  N24   D T3000       7.697  15.714  -6.492  1.00 48.48    -0.168 NA
HETATM   23  N26   D T3000       8.667  15.570  -5.645  1.00 52.17    -0.252 N 
HETATM   24  C7    D T3000       8.228  15.152  -4.409  1.00 48.89     0.097 A 
BRANCH  23  25
HETATM   25  C20   D T3000      10.096  15.819  -5.926  1.00 57.73     0.110 C 
HETATM   26  C8    D T3000      10.355  15.691  -7.452  1.00 60.56     0.063 C 
HETATM   27  C10   D T3000      11.849  15.957  -7.749  1.00 62.17     0.292 C 
HETATM   28  N25   D T3000      12.760  15.100  -6.934  1.00 62.01     0.339 N 
HETATM   29  C11   D T3000      12.484  15.177  -5.467  1.00 60.06     0.292 C 
HETATM   30  C9    D T3000      11.008  14.857  -5.131  1.00 59.17     0.063 C 
ENDBRANCH  23  25
ENDBRANCH   7  20
TORSDOF 5
ENDMDL
