MODEL 1
REMARK VINA RESULT:      -7.1      0.000      0.000
REMARK  5 active torsions:
REMARK  status: ('A' for Active; 'I' for Inactive)
REMARK    1  A    between atoms: C17_7  and  C21_10 
REMARK    2  A    between atoms: C21_10  and  O27_12 
REMARK    3  A    between atoms: O27_12  and  C15_13 
REMARK    4  A    between atoms: C14_19  and  C16_20 
REMARK    5  A    between atoms: N26_23  and  C20_25 
ROOT
HETATM    1  C15   D T3000      44.747  22.514   3.431  1.00 38.99     0.125 A 
HETATM    2  C4    D T3000      43.770  22.953   2.481  1.00 40.94     0.029 A 
HETATM    3  C19   D T3000      45.918  23.341   3.546  1.00 37.27     0.173 A 
HETATM    4  N22   D T3000      46.931  22.995   4.463  1.00 36.61    -0.078 NA
HETATM    5  N23   D T3000      46.121  24.479   2.811  1.00 37.98    -0.228 NA
HETATM    6  C5    D T3000      45.157  24.860   1.907  1.00 40.12     0.100 A 
HETATM    7  C14   D T3000      43.950  24.126   1.699  1.00 40.87     0.024 A 
ENDROOT
BRANCH   1   8
HETATM    8  O27   D T3000      44.596  21.372   4.232  1.00 42.27    -0.326 OA
BRANCH   8   9
HETATM    9  C21   D T3000      43.433  21.105   5.124  1.00 47.98     0.145 C 
HETATM   10  C1    D T3000      43.790  19.848   5.946  1.00 44.93     0.038 C 
BRANCH   9  11
HETATM   11  C17   D T3000      42.054  20.902   4.371  1.00 51.22     0.029 A 
HETATM   12  C13   D T3000      41.891  19.799   3.434  1.00 51.61     0.057 A 
HETATM   13 CL     D T3000      43.143  18.659   3.077  1.00 53.92    -0.083 Cl
HETATM   14  C3    D T3000      40.652  19.610   2.747  1.00 51.64     0.013 A 
HETATM   15  C2    D T3000      39.564  20.486   2.958  1.00 51.88     0.031 A 
HETATM   16  C12   D T3000      39.682  21.574   3.860  1.00 53.21     0.150 A 
HETATM   17  F     D T3000      38.626  22.389   4.035  1.00 51.93    -0.203 F 
HETATM   18  C18   D T3000      40.910  21.797   4.572  1.00 53.17     0.084 A 
HETATM   19 CL2    D T3000      40.942  23.167   5.658  1.00 65.44    -0.080 Cl
ENDBRANCH   9  11
ENDBRANCH   8   9
ENDBRANCH   1   8
BRANCH   7  20
HETATM   20  C16   D T3000      42.872  24.520   0.710  1.00 44.81     0.041 A 
HETATM   21  C6    D T3000      42.449  25.845   0.256  1.00 45.20     0.122 A 
HETATM   22  N24   D T3000      41.486  25.694  -0.597  1.00 48.48    -0.168 NA
HETATM   23  N26   D T3000      41.238  24.430  -0.744  1.00 52.17    -0.252 N 
HETATM   24  C7    D T3000      42.056  23.640   0.031  1.00 48.89     0.097 A 
BRANCH  23  25
HETATM   25  C20   D T3000      40.208  23.855  -1.636  1.00 57.73     0.110 C 
HETATM   26  C8    D T3000      40.892  23.208  -2.870  1.00 60.56     0.063 C 
HETATM   27  C10   D T3000      39.816  22.601  -3.801  1.00 62.17     0.292 C 
HETATM   28  N25   D T3000      38.758  23.585  -4.176  1.00 62.01     0.339 N 
HETATM   29  C11   D T3000      38.130  24.252  -2.995  1.00 60.06     0.292 C 
HETATM   30  C9    D T3000      39.178  24.921  -2.074  1.00 59.17     0.063 C 
ENDBRANCH  23  25
ENDBRANCH   7  20
TORSDOF 5
ENDMDL
MODEL 2
REMARK VINA RESULT:      -6.9      1.200      2.321
REMARK  5 active torsions:
REMARK  status: ('A' for Active; 'I' for Inactive)
REMARK    1  A    between atoms: C17_7  and  C21_10 
REMARK    2  A    between atoms: C21_10  and  O27_12 
REMARK    3  A    between atoms: O27_12  and  C15_13 
REMARK    4  A    between atoms: C14_19  and  C16_20 
REMARK    5  A    between atoms: N26_23  and  C20_25 
ROOT
HETATM    1  C15   D T3000      44.858  22.504   3.431  1.00 38.99     0.125 A 
HETATM    2  C4    D T3000      44.186  22.978   2.258  1.00 40.94     0.029 A 
HETATM    3  C19   D T3000      46.005  23.269   3.841  1.00 37.27     0.173 A 
HETATM    4  N22   D T3000      46.725  22.885   4.990  1.00 36.61    -0.078 NA
HETATM    5  N23   D T3000      46.455  24.379   3.178  1.00 37.98    -0.228 NA
HETATM    6  C5    D T3000      45.781  24.795   2.055  1.00 40.12     0.100 A 
HETATM    7  C14   D T3000      44.628  24.125   1.544  1.00 40.87     0.024 A 
ENDROOT
BRANCH   1   8
HETATM    8  O27   D T3000      44.439  21.388   4.170  1.00 42.27    -0.326 OA
BRANCH   8   9
HETATM    9  C21   D T3000      43.266  21.365   5.088  1.00 47.98     0.145 C 
HETATM   10  C1    D T3000      43.526  20.231   6.103  1.00 44.93     0.038 C 
BRANCH   9  11
HETATM   11  C17   D T3000      41.869  21.157   4.371  1.00 51.22     0.029 A 
HETATM   12  C13   D T3000      40.772  22.080   4.631  1.00 51.61     0.057 A 
HETATM   13 CL     D T3000      40.898  23.432   5.703  1.00 53.92    -0.083 Cl
HETATM   14  C3    D T3000      39.507  21.898   3.991  1.00 51.64     0.013 A 
HETATM   15  C2    D T3000      39.291  20.824   3.100  1.00 51.88     0.031 A 
HETATM   16  C12   D T3000      40.332  19.901   2.822  1.00 53.21     0.150 A 
HETATM   17  F     D T3000      40.091  18.888   1.969  1.00 51.93    -0.203 F 
HETATM   18  C18   D T3000      41.620  20.050   3.442  1.00 53.17     0.084 A 
HETATM   19 CL2    D T3000      42.827  18.856   3.026  1.00 65.44    -0.080 Cl
ENDBRANCH   9  11
ENDBRANCH   8   9
ENDBRANCH   1   8
BRANCH   7  20
HETATM   20  C16   D T3000      43.867  24.558   0.309  1.00 44.81     0.041 A 
HETATM   21  C6    D T3000      43.661  25.894  -0.251  1.00 45.20     0.122 A 
HETATM   22  N24   D T3000      42.940  25.780  -1.321  1.00 48.48    -0.168 NA
HETATM   23  N26   D T3000      42.655  24.531  -1.514  1.00 52.17    -0.252 N 
HETATM   24  C7    D T3000      43.193  23.712  -0.548  1.00 48.89     0.097 A 
BRANCH  23  25
HETATM   25  C20   D T3000      41.849  23.997  -2.634  1.00 57.73     0.110 C 
HETATM   26  C8    D T3000      40.339  24.153  -2.307  1.00 60.56     0.063 C 
HETATM   27  C10   D T3000      39.496  23.600  -3.479  1.00 62.17     0.292 C 
HETATM   28  N25   D T3000      39.866  22.201  -3.846  1.00 62.01     0.339 N 
HETATM   29  C11   D T3000      41.327  22.030  -4.111  1.00 60.06     0.292 C 
HETATM   30  C9    D T3000      42.198  22.521  -2.930  1.00 59.17     0.063 C 
ENDBRANCH  23  25
ENDBRANCH   7  20
TORSDOF 5
ENDMDL
MODEL 3
REMARK VINA RESULT:      -6.8      4.753      7.027
REMARK  5 active torsions:
REMARK  status: ('A' for Active; 'I' for Inactive)
REMARK    1  A    between atoms: C17_7  and  C21_10 
REMARK    2  A    between atoms: C21_10  and  O27_12 
REMARK    3  A    between atoms: O27_12  and  C15_13 
REMARK    4  A    between atoms: C14_19  and  C16_20 
REMARK    5  A    between atoms: N26_23  and  C20_25 
ROOT
HETATM    1  C15   D T3000      42.590  22.323   1.297  1.00 38.99     0.125 A 
HETATM    2  C4    D T3000      43.625  21.338   1.201  1.00 40.94     0.029 A 
HETATM    3  C19   D T3000      42.703  23.433   0.389  1.00 37.27     0.173 A 
HETATM    4  N22   D T3000      41.724  24.448   0.403  1.00 36.61    -0.078 NA
HETATM    5  N23   D T3000      43.718  23.573  -0.518  1.00 37.98    -0.228 NA
HETATM    6  C5    D T3000      44.693  22.605  -0.572  1.00 40.12     0.100 A 
HETATM    7  C14   D T3000      44.696  21.454   0.274  1.00 40.87     0.024 A 
ENDROOT
BRANCH   1   8
HETATM    8  O27   D T3000      41.509  22.232   2.187  1.00 42.27    -0.326 OA
BRANCH   8   9
HETATM    9  C21   D T3000      41.223  21.061   3.063  1.00 47.98     0.145 C 
HETATM   10  C1    D T3000      39.691  21.019   3.250  1.00 44.93     0.038 C 
BRANCH   9  11
HETATM   11  C17   D T3000      41.953  21.092   4.468  1.00 51.22     0.029 A 
HETATM   12  C13   D T3000      41.727  22.203   5.382  1.00 51.61     0.057 A 
HETATM   13 CL     D T3000      40.681  23.534   5.025  1.00 53.92    -0.083 Cl
HETATM   14  C3    D T3000      42.385  22.241   6.651  1.00 51.64     0.013 A 
HETATM   15  C2    D T3000      43.266  21.209   7.044  1.00 51.88     0.031 A 
HETATM   16  C12   D T3000      43.515  20.110   6.182  1.00 53.21     0.150 A 
HETATM   17  F     D T3000      44.361  19.146   6.587  1.00 51.93    -0.203 F 
HETATM   18  C18   D T3000      42.872  20.034   4.899  1.00 53.17     0.084 A 
HETATM   19 CL2    D T3000      43.252  18.635   3.920  1.00 65.44    -0.080 Cl
ENDBRANCH   9  11
ENDBRANCH   8   9
ENDBRANCH   1   8
BRANCH   7  20
HETATM   20  C16   D T3000      45.756  20.373   0.239  1.00 44.81     0.041 A 
HETATM   21  C6    D T3000      45.842  19.114   0.979  1.00 45.20     0.122 A 
HETATM   22  N24   D T3000      46.931  18.507   0.625  1.00 48.48    -0.168 NA
HETATM   23  N26   D T3000      47.556  19.227  -0.253  1.00 52.17    -0.252 N 
HETATM   24  C7    D T3000      46.891  20.397  -0.544  1.00 48.89     0.097 A 
BRANCH  23  25
HETATM   25  C20   D T3000      48.837  18.872  -0.898  1.00 57.73     0.110 C 
HETATM   26  C8    D T3000      48.818  19.336  -2.380  1.00 60.56     0.063 C 
HETATM   27  C10   D T3000      50.160  18.971  -3.056  1.00 62.17     0.292 C 
HETATM   28  N25   D T3000      50.505  17.526  -2.907  1.00 62.01     0.339 N 
HETATM   29  C11   D T3000      50.475  17.057  -1.488  1.00 60.06     0.292 C 
HETATM   30  C9    D T3000      49.121  17.357  -0.801  1.00 59.17     0.063 C 
ENDBRANCH  23  25
ENDBRANCH   7  20
TORSDOF 5
ENDMDL
MODEL 4
REMARK VINA RESULT:      -6.8      1.405      2.052
REMARK  5 active torsions:
REMARK  status: ('A' for Active; 'I' for Inactive)
REMARK    1  A    between atoms: C17_7  and  C21_10 
REMARK    2  A    between atoms: C21_10  and  O27_12 
REMARK    3  A    between atoms: O27_12  and  C15_13 
REMARK    4  A    between atoms: C14_19  and  C16_20 
REMARK    5  A    between atoms: N26_23  and  C20_25 
ROOT
HETATM    1  C15   D T3000      45.286  22.240   3.967  1.00 38.99     0.125 A 
HETATM    2  C4    D T3000      44.917  22.951   2.779  1.00 40.94     0.029 A 
HETATM    3  C19   D T3000      46.332  22.840   4.750  1.00 37.27     0.173 A 
HETATM    4  N22   D T3000      46.757  22.218   5.941  1.00 36.61    -0.078 NA
HETATM    5  N23   D T3000      46.958  24.011   4.414  1.00 37.98    -0.228 NA
HETATM    6  C5    D T3000      46.574  24.657   3.263  1.00 40.12     0.100 A 
HETATM    7  C14   D T3000      45.548  24.167   2.399  1.00 40.87     0.024 A 
ENDROOT
BRANCH   1   8
HETATM    8  O27   D T3000      44.673  21.049   4.382  1.00 42.27    -0.326 OA
BRANCH   8   9
HETATM    9  C21   D T3000      43.452  20.970   5.232  1.00 47.98     0.145 C 
HETATM   10  C1    D T3000      43.637  19.744   6.152  1.00 44.93     0.038 C 
BRANCH   9  11
HETATM   11  C17   D T3000      42.092  20.859   4.428  1.00 51.22     0.029 A 
HETATM   12  C13   D T3000      41.913  19.803   3.440  1.00 51.61     0.057 A 
HETATM   13 CL     D T3000      43.125  18.623   3.077  1.00 53.92    -0.083 Cl
HETATM   14  C3    D T3000      40.691  19.697   2.707  1.00 51.64     0.013 A 
HETATM   15  C2    D T3000      39.635  20.611   2.919  1.00 51.88     0.031 A 
HETATM   16  C12   D T3000      39.769  21.656   3.870  1.00 53.21     0.150 A 
HETATM   17  F     D T3000      38.745  22.510   4.044  1.00 51.93    -0.203 F 
HETATM   18  C18   D T3000      40.982  21.795   4.629  1.00 53.17     0.084 A 
HETATM   19 CL2    D T3000      41.036  23.118   5.772  1.00 65.44    -0.080 Cl
ENDBRANCH   9  11
ENDBRANCH   8   9
ENDBRANCH   1   8
BRANCH   7  20
HETATM   20  C16   D T3000      45.104  24.855   1.125  1.00 44.81     0.041 A 
HETATM   21  C6    D T3000      45.739  25.934   0.367  1.00 45.20     0.122 A 
HETATM   22  N24   D T3000      44.995  26.202  -0.659  1.00 48.48    -0.168 NA
HETATM   23  N26   D T3000      43.957  25.427  -0.650  1.00 52.17    -0.252 N 
HETATM   24  C7    D T3000      43.953  24.565   0.423  1.00 48.89     0.097 A 
BRANCH  23  25
HETATM   25  C20   D T3000      42.875  25.429  -1.658  1.00 57.73     0.110 C 
HETATM   26  C8    D T3000      41.715  26.340  -1.172  1.00 60.56     0.063 C 
HETATM   27  C10   D T3000      40.585  26.347  -2.228  1.00 62.17     0.292 C 
HETATM   28  N25   D T3000      40.127  24.974  -2.591  1.00 62.01     0.339 N 
HETATM   29  C11   D T3000      41.244  24.073  -3.009  1.00 60.06     0.292 C 
HETATM   30  C9    D T3000      42.366  23.998  -1.946  1.00 59.17     0.063 C 
ENDBRANCH  23  25
ENDBRANCH   7  20
TORSDOF 5
ENDMDL
MODEL 5
REMARK VINA RESULT:      -6.7      2.394      6.954
REMARK  5 active torsions:
REMARK  status: ('A' for Active; 'I' for Inactive)
REMARK    1  A    between atoms: C17_7  and  C21_10 
REMARK    2  A    between atoms: C21_10  and  O27_12 
REMARK    3  A    between atoms: O27_12  and  C15_13 
REMARK    4  A    between atoms: C14_19  and  C16_20 
REMARK    5  A    between atoms: N26_23  and  C20_25 
ROOT
HETATM    1  C15   D T3000      41.747  22.973   1.162  1.00 38.99     0.125 A 
HETATM    2  C4    D T3000      43.005  23.311   1.757  1.00 40.94     0.029 A 
HETATM    3  C19   D T3000      41.530  23.486  -0.164  1.00 37.27     0.173 A 
HETATM    4  N22   D T3000      40.324  23.197  -0.835  1.00 36.61    -0.078 NA
HETATM    5  N23   D T3000      42.440  24.252  -0.842  1.00 37.98    -0.228 NA
HETATM    6  C5    D T3000      43.633  24.555  -0.229  1.00 40.12     0.100 A 
HETATM    7  C14   D T3000      43.971  24.107   1.083  1.00 40.87     0.024 A 
ENDROOT
BRANCH   1   8
HETATM    8  O27   D T3000      40.778  22.176   1.789  1.00 42.27    -0.326 OA
BRANCH   8   9
HETATM    9  C21   D T3000      41.070  20.959   2.598  1.00 47.98     0.145 C 
HETATM   10  C1    D T3000      39.751  20.160   2.679  1.00 44.93     0.038 C 
BRANCH   9  11
HETATM   11  C17   D T3000      41.633  21.247   4.049  1.00 51.22     0.029 A 
HETATM   12  C13   D T3000      41.098  22.353   4.833  1.00 51.61     0.057 A 
HETATM   13 CL     D T3000      39.846  23.404   4.266  1.00 53.92    -0.083 Cl
HETATM   14  C3    D T3000      41.603  22.623   6.142  1.00 51.64     0.013 A 
HETATM   15  C2    D T3000      42.630  21.831   6.702  1.00 51.88     0.031 A 
HETATM   16  C12   D T3000      43.181  20.747   5.972  1.00 53.21     0.150 A 
HETATM   17  F     D T3000      44.159  20.015   6.535  1.00 51.93    -0.203 F 
HETATM   18  C18   D T3000      42.699  20.441   4.653  1.00 53.17     0.084 A 
HETATM   19 CL2    D T3000      43.450  19.083   3.846  1.00 65.44    -0.080 Cl
ENDBRANCH   9  11
ENDBRANCH   8   9
ENDBRANCH   1   8
BRANCH   7  20
HETATM   20  C16   D T3000      45.275  24.426   1.784  1.00 44.81     0.041 A 
HETATM   21  C6    D T3000      46.437  25.181   1.314  1.00 45.20     0.122 A 
HETATM   22  N24   D T3000      47.323  25.194   2.259  1.00 48.48    -0.168 NA
HETATM   23  N26   D T3000      46.870  24.536   3.280  1.00 52.17    -0.252 N 
HETATM   24  C7    D T3000      45.609  24.031   3.063  1.00 48.89     0.097 A 
BRANCH  23  25
HETATM   25  C20   D T3000      47.589  24.329   4.555  1.00 57.73     0.110 C 
HETATM   26  C8    D T3000      46.876  23.222   5.379  1.00 60.56     0.063 C 
HETATM   27  C10   D T3000      47.629  23.000   6.711  1.00 62.17     0.292 C 
HETATM   28  N25   D T3000      47.819  24.264   7.483  1.00 62.01     0.339 N 
HETATM   29  C11   D T3000      48.458  25.352   6.682  1.00 60.06     0.292 C 
HETATM   30  C9    D T3000      47.692  25.639   5.368  1.00 59.17     0.063 C 
ENDBRANCH  23  25
ENDBRANCH   7  20
TORSDOF 5
ENDMDL
MODEL 6
REMARK VINA RESULT:      -6.6      2.206      6.674
REMARK  5 active torsions:
REMARK  status: ('A' for Active; 'I' for Inactive)
REMARK    1  A    between atoms: C17_7  and  C21_10 
REMARK    2  A    between atoms: C21_10  and  O27_12 
REMARK    3  A    between atoms: O27_12  and  C15_13 
REMARK    4  A    between atoms: C14_19  and  C16_20 
REMARK    5  A    between atoms: N26_23  and  C20_25 
ROOT
HETATM    1  C15   D T3000      41.872  23.138   1.049  1.00 38.99     0.125 A 
HETATM    2  C4    D T3000      43.128  23.471   1.651  1.00 40.94     0.029 A 
HETATM    3  C19   D T3000      41.656  23.668  -0.270  1.00 37.27     0.173 A 
HETATM    4  N22   D T3000      40.452  23.385  -0.947  1.00 36.61    -0.078 NA
HETATM    5  N23   D T3000      42.567  24.442  -0.938  1.00 37.98    -0.228 NA
HETATM    6  C5    D T3000      43.759  24.739  -0.320  1.00 40.12     0.100 A 
HETATM    7  C14   D T3000      44.095  24.275   0.988  1.00 40.87     0.024 A 
ENDROOT
BRANCH   1   8
HETATM    8  O27   D T3000      40.903  22.333   1.665  1.00 42.27    -0.326 OA
BRANCH   8   9
HETATM    9  C21   D T3000      41.186  21.058   2.382  1.00 47.98     0.145 C 
HETATM   10  C1    D T3000      39.862  20.263   2.400  1.00 44.93     0.038 C 
BRANCH   9  11
HETATM   11  C17   D T3000      41.745  21.235   3.853  1.00 51.22     0.029 A 
HETATM   12  C13   D T3000      42.797  20.354   4.344  1.00 51.61     0.057 A 
HETATM   13 CL     D T3000      43.499  19.088   3.397  1.00 53.92    -0.083 Cl
HETATM   14  C3    D T3000      43.305  20.505   5.671  1.00 51.64     0.013 A 
HETATM   15  C2    D T3000      42.801  21.503   6.534  1.00 51.88     0.031 A 
HETATM   16  C12   D T3000      41.775  22.380   6.096  1.00 53.21     0.150 A 
HETATM   17  F     D T3000      41.317  23.318   6.945  1.00 51.93    -0.203 F 
HETATM   18  C18   D T3000      41.238  22.263   4.768  1.00 53.17     0.084 A 
HETATM   19 CL2    D T3000      39.978  23.396   4.336  1.00 65.44    -0.080 Cl
ENDBRANCH   9  11
ENDBRANCH   8   9
ENDBRANCH   1   8
BRANCH   7  20
HETATM   20  C16   D T3000      45.397  24.587   1.695  1.00 44.81     0.041 A 
HETATM   21  C6    D T3000      46.589  25.285   1.211  1.00 45.20     0.122 A 
HETATM   22  N24   D T3000      47.460  25.315   2.169  1.00 48.48    -0.168 NA
HETATM   23  N26   D T3000      46.973  24.718   3.210  1.00 52.17    -0.252 N 
HETATM   24  C7    D T3000      45.700  24.241   2.996  1.00 48.89     0.097 A 
BRANCH  23  25
HETATM   25  C20   D T3000      47.666  24.548   4.505  1.00 57.73     0.110 C 
HETATM   26  C8    D T3000      47.369  23.132   5.071  1.00 60.56     0.063 C 
HETATM   27  C10   D T3000      48.097  22.951   6.423  1.00 62.17     0.292 C 
HETATM   28  N25   D T3000      47.785  24.038   7.396  1.00 62.01     0.339 N 
HETATM   29  C11   D T3000      48.018  25.407   6.842  1.00 60.06     0.292 C 
HETATM   30  C9    D T3000      47.254  25.641   5.517  1.00 59.17     0.063 C 
ENDBRANCH  23  25
ENDBRANCH   7  20
TORSDOF 5
ENDMDL
MODEL 7
REMARK VINA RESULT:      -6.6      1.660      2.641
REMARK  5 active torsions:
REMARK  status: ('A' for Active; 'I' for Inactive)
REMARK    1  A    between atoms: C17_7  and  C21_10 
REMARK    2  A    between atoms: C21_10  and  O27_12 
REMARK    3  A    between atoms: O27_12  and  C15_13 
REMARK    4  A    between atoms: C14_19  and  C16_20 
REMARK    5  A    between atoms: N26_23  and  C20_25 
ROOT
HETATM    1  C15   D T3000      44.136  21.961   2.667  1.00 38.99     0.125 A 
HETATM    2  C4    D T3000      43.269  22.846   1.948  1.00 40.94     0.029 A 
HETATM    3  C19   D T3000      44.962  21.107   1.856  1.00 37.27     0.173 A 
HETATM    4  N22   D T3000      45.855  20.209   2.475  1.00 36.61    -0.078 NA
HETATM    5  N23   D T3000      44.946  21.110   0.487  1.00 37.98    -0.228 NA
HETATM    6  C5    D T3000      44.095  21.974  -0.161  1.00 40.12     0.100 A 
HETATM    7  C14   D T3000      43.225  22.873   0.527  1.00 40.87     0.024 A 
ENDROOT
BRANCH   1   8
HETATM    8  O27   D T3000      44.219  21.920   4.066  1.00 42.27    -0.326 OA
BRANCH   8   9
HETATM    9  C21   D T3000      43.168  21.368   4.966  1.00 47.98     0.145 C 
HETATM   10  C1    D T3000      43.722  20.039   5.523  1.00 44.93     0.038 C 
BRANCH   9  11
HETATM   11  C17   D T3000      41.762  21.136   4.277  1.00 51.22     0.029 A 
HETATM   12  C13   D T3000      40.675  22.081   4.500  1.00 51.61     0.057 A 
HETATM   13 CL     D T3000      40.824  23.486   5.499  1.00 53.92    -0.083 Cl
HETATM   14  C3    D T3000      39.402  21.877   3.885  1.00 51.64     0.013 A 
HETATM   15  C2    D T3000      39.166  20.760   3.053  1.00 51.88     0.031 A 
HETATM   16  C12   D T3000      40.196  19.814   2.812  1.00 53.21     0.150 A 
HETATM   17  F     D T3000      39.937  18.761   2.016  1.00 51.93    -0.203 F 
HETATM   18  C18   D T3000      41.492  19.984   3.410  1.00 53.17     0.084 A 
HETATM   19 CL2    D T3000      42.684  18.759   3.042  1.00 65.44    -0.080 Cl
ENDBRANCH   9  11
ENDBRANCH   8   9
ENDBRANCH   1   8
BRANCH   7  20
HETATM   20  C16   D T3000      42.276  23.833  -0.158  1.00 44.81     0.041 A 
HETATM   21  C6    D T3000      42.009  25.247   0.109  1.00 45.20     0.122 A 
HETATM   22  N24   D T3000      41.115  25.659  -0.732  1.00 48.48    -0.168 NA
HETATM   23  N26   D T3000      40.773  24.679  -1.508  1.00 52.17    -0.252 N 
HETATM   24  C7    D T3000      41.448  23.516  -1.215  1.00 48.89     0.097 A 
BRANCH  23  25
HETATM   25  C20   D T3000      39.778  24.754  -2.599  1.00 57.73     0.110 C 
HETATM   26  C8    D T3000      38.424  25.261  -2.033  1.00 60.56     0.063 C 
HETATM   27  C10   D T3000      37.384  25.345  -3.174  1.00 62.17     0.292 C 
HETATM   28  N25   D T3000      37.252  24.065  -3.929  1.00 62.01     0.339 N 
HETATM   29  C11   D T3000      38.558  23.541  -4.433  1.00 60.06     0.292 C 
HETATM   30  C9    D T3000      39.604  23.390  -3.303  1.00 59.17     0.063 C 
ENDBRANCH  23  25
ENDBRANCH   7  20
TORSDOF 5
ENDMDL
MODEL 8
REMARK VINA RESULT:      -6.4      4.921      7.070
REMARK  5 active torsions:
REMARK  status: ('A' for Active; 'I' for Inactive)
REMARK    1  A    between atoms: C17_7  and  C21_10 
REMARK    2  A    between atoms: C21_10  and  O27_12 
REMARK    3  A    between atoms: O27_12  and  C15_13 
REMARK    4  A    between atoms: C14_19  and  C16_20 
REMARK    5  A    between atoms: N26_23  and  C20_25 
ROOT
HETATM    1  C15   D T3000      45.788  21.007   4.504  1.00 38.99     0.125 A 
HETATM    2  C4    D T3000      46.421  20.128   3.567  1.00 40.94     0.029 A 
HETATM    3  C19   D T3000      46.600  21.415   5.619  1.00 37.27     0.173 A 
HETATM    4  N22   D T3000      46.065  22.288   6.589  1.00 36.61    -0.078 NA
HETATM    5  N23   D T3000      47.894  21.011   5.806  1.00 37.98    -0.228 NA
HETATM    6  C5    D T3000      48.460  20.164   4.883  1.00 40.12     0.100 A 
HETATM    7  C14   D T3000      47.762  19.686   3.733  1.00 40.87     0.024 A 
ENDROOT
BRANCH   1   8
HETATM    8  O27   D T3000      44.474  21.478   4.364  1.00 42.27    -0.326 OA
BRANCH   8   9
HETATM    9  C21   D T3000      43.312  21.014   5.171  1.00 47.98     0.145 C 
HETATM   10  C1    D T3000      43.720  19.658   5.788  1.00 44.93     0.038 C 
BRANCH   9  11
HETATM   11  C17   D T3000      41.959  20.869   4.362  1.00 51.22     0.029 A 
HETATM   12  C13   D T3000      41.815  19.816   3.365  1.00 51.61     0.057 A 
HETATM   13 CL     D T3000      43.063  18.676   2.996  1.00 53.92    -0.083 Cl
HETATM   14  C3    D T3000      40.599  19.680   2.627  1.00 51.64     0.013 A 
HETATM   15  C2    D T3000      39.515  20.560   2.843  1.00 51.88     0.031 A 
HETATM   16  C12   D T3000      39.615  21.601   3.802  1.00 53.21     0.150 A 
HETATM   17  F     D T3000      38.564  22.422   3.981  1.00 51.93    -0.203 F 
HETATM   18  C18   D T3000      40.820  21.769   4.567  1.00 53.17     0.084 A 
HETATM   19 CL2    D T3000      40.831  23.083   5.721  1.00 65.44    -0.080 Cl
ENDBRANCH   9  11
ENDBRANCH   8   9
ENDBRANCH   1   8
BRANCH   7  20
HETATM   20  C16   D T3000      48.358  18.752   2.700  1.00 44.81     0.041 A 
HETATM   21  C6    D T3000      49.078  17.490   2.875  1.00 45.20     0.122 A 
HETATM   22  N24   D T3000      49.402  17.041   1.705  1.00 48.48    -0.168 NA
HETATM   23  N26   D T3000      48.980  17.865   0.798  1.00 52.17    -0.252 N 
HETATM   24  C7    D T3000      48.323  18.948   1.335  1.00 48.89     0.097 A 
BRANCH  23  25
HETATM   25  C20   D T3000      49.156  17.700  -0.661  1.00 57.73     0.110 C 
HETATM   26  C8    D T3000      50.531  17.037  -0.946  1.00 60.56     0.063 C 
HETATM   27  C10   D T3000      50.714  16.859  -2.472  1.00 62.17     0.292 C 
HETATM   28  N25   D T3000      50.519  18.131  -3.228  1.00 62.01     0.339 N 
HETATM   29  C11   D T3000      49.220  18.804  -2.920  1.00 60.06     0.292 C 
HETATM   30  C9    D T3000      49.032  19.049  -1.404  1.00 59.17     0.063 C 
ENDBRANCH  23  25
ENDBRANCH   7  20
TORSDOF 5
ENDMDL
MODEL 9
REMARK VINA RESULT:      -6.3      5.210      9.691
REMARK  5 active torsions:
REMARK  status: ('A' for Active; 'I' for Inactive)
REMARK    1  A    between atoms: C17_7  and  C21_10 
REMARK    2  A    between atoms: C21_10  and  O27_12 
REMARK    3  A    between atoms: O27_12  and  C15_13 
REMARK    4  A    between atoms: C14_19  and  C16_20 
REMARK    5  A    between atoms: N26_23  and  C20_25 
ROOT
HETATM    1  C15   D T3000      46.009  20.799   5.254  1.00 38.99     0.125 A 
HETATM    2  C4    D T3000      46.650  19.531   5.076  1.00 40.94     0.029 A 
HETATM    3  C19   D T3000      46.735  21.757   6.043  1.00 37.27     0.173 A 
HETATM    4  N22   D T3000      46.187  23.037   6.265  1.00 36.61    -0.078 NA
HETATM    5  N23   D T3000      47.959  21.510   6.604  1.00 37.98    -0.228 NA
HETATM    6  C5    D T3000      48.536  20.277   6.409  1.00 40.12     0.100 A 
HETATM    7  C14   D T3000      47.919  19.239   5.646  1.00 40.87     0.024 A 
ENDROOT
BRANCH   1   8
HETATM    8  O27   D T3000      44.767  21.129   4.692  1.00 42.27    -0.326 OA
BRANCH   8   9
HETATM    9  C21   D T3000      43.477  21.164   5.437  1.00 47.98     0.145 C 
HETATM   10  C1    D T3000      43.569  20.073   6.525  1.00 44.93     0.038 C 
BRANCH   9  11
HETATM   11  C17   D T3000      42.189  20.946   4.541  1.00 51.22     0.029 A 
HETATM   12  C13   D T3000      42.128  19.825   3.613  1.00 51.61     0.057 A 
HETATM   13 CL     D T3000      43.408  18.677   3.419  1.00 53.92    -0.083 Cl
HETATM   14  C3    D T3000      40.971  19.623   2.799  1.00 51.64     0.013 A 
HETATM   15  C2    D T3000      39.868  20.502   2.871  1.00 51.88     0.031 A 
HETATM   16  C12   D T3000      39.889  21.609   3.759  1.00 53.21     0.150 A 
HETATM   17  F     D T3000      38.822  22.427   3.800  1.00 51.93    -0.203 F 
HETATM   18  C18   D T3000      41.032  21.845   4.597  1.00 53.17     0.084 A 
HETATM   19 CL2    D T3000      40.947  23.237   5.653  1.00 65.44    -0.080 Cl
ENDBRANCH   9  11
ENDBRANCH   8   9
ENDBRANCH   1   8
BRANCH   7  20
HETATM   20  C16   D T3000      48.529  17.872   5.417  1.00 44.81     0.041 A 
HETATM   21  C6    D T3000      48.821  17.168   4.168  1.00 45.20     0.122 A 
HETATM   22  N24   D T3000      49.341  16.019   4.460  1.00 48.48    -0.168 NA
HETATM   23  N26   D T3000      49.416  15.898   5.749  1.00 52.17    -0.252 N 
HETATM   24  C7    D T3000      48.933  17.004   6.410  1.00 48.89     0.097 A 
BRANCH  23  25
HETATM   25  C20   D T3000      49.954  14.726   6.471  1.00 57.73     0.110 C 
HETATM   26  C8    D T3000      49.613  13.430   5.686  1.00 60.56     0.063 C 
HETATM   27  C10   D T3000      50.181  12.204   6.438  1.00 62.17     0.292 C 
HETATM   28  N25   D T3000      49.741  12.148   7.863  1.00 62.01     0.339 N 
HETATM   29  C11   D T3000      50.018  13.411   8.614  1.00 60.06     0.292 C 
HETATM   30  C9    D T3000      49.411  14.652   7.916  1.00 59.17     0.063 C 
ENDBRANCH  23  25
ENDBRANCH   7  20
TORSDOF 5
ENDMDL
