MODEL 1
REMARK VINA RESULT:    -8.388      0.000      0.000
REMARK INTER + INTRA:         -11.815
REMARK INTER:                 -10.840
REMARK INTRA:                  -0.975
REMARK UNBOUND:                -0.975
REMARK  5 active torsions:
REMARK  status: ('A' for Active; 'I' for Inactive)
REMARK    1  A    between atoms: C17_7  and  C21_10 
REMARK    2  A    between atoms: C21_10  and  O27_12 
REMARK    3  A    between atoms: O27_12  and  C15_13 
REMARK    4  A    between atoms: C14_19  and  C16_20 
REMARK    5  A    between atoms: N26_23  and  C20_25 
ROOT
HETATM    1  C15   D T3000      -3.738   2.375  13.332  1.00 38.99     0.125 A 
HETATM    2  C4    D T3000      -2.736   1.568  13.962  1.00 40.94     0.029 A 
HETATM    3  C19   D T3000      -5.082   1.869  13.409  1.00 37.27     0.173 A 
HETATM    4  N22   D T3000      -6.138   2.601  12.825  1.00 36.61    -0.078 NA
HETATM    5  N23   D T3000      -5.421   0.699  14.034  1.00 37.98    -0.228 NA
HETATM    6  C5    D T3000      -4.425  -0.045  14.623  1.00 40.12     0.100 A 
HETATM    7  C14   D T3000      -3.053   0.346  14.617  1.00 40.87     0.024 A 
ENDROOT
BRANCH   1   8
HETATM    8  O27   D T3000      -3.466   3.594  12.693  1.00 42.27    -0.326 OA
BRANCH   8   9
HETATM    9  C21   D T3000      -2.270   4.443  12.952  1.00 47.98     0.145 C 
HETATM   10  C1    D T3000      -2.765   5.906  12.960  1.00 44.93     0.038 C 
BRANCH   9  11
HETATM   11  C17   D T3000      -1.092   4.263  11.908  1.00 51.22     0.029 A 
HETATM   12  C13   D T3000      -1.289   4.640  10.514  1.00 51.61     0.057 A 
HETATM   13 CL     D T3000      -2.770   5.294   9.905  1.00 53.92    -0.083 Cl
HETATM   14  C3    D T3000      -0.234   4.477   9.565  1.00 51.64     0.013 A 
HETATM   15  C2    D T3000       1.017   3.947   9.952  1.00 51.88     0.031 A 
HETATM   16  C12   D T3000       1.249   3.565  11.299  1.00 53.21     0.150 A 
HETATM   17  F     D T3000       2.452   3.061  11.632  1.00 51.93    -0.203 F 
HETATM   18  C18   D T3000       0.215   3.715  12.285  1.00 53.17     0.084 A 
HETATM   19 CL2    D T3000       0.613   3.213  13.912  1.00 65.44    -0.080 Cl
ENDBRANCH   9  11
ENDBRANCH   8   9
ENDBRANCH   1   8
BRANCH   7  20
HETATM   20  C16   D T3000      -1.935  -0.453  15.255  1.00 44.81     0.041 A 
HETATM   21  C6    D T3000      -0.485  -0.328  15.109  1.00 45.20     0.122 A 
HETATM   22  N24   D T3000       0.078  -1.230  15.849  1.00 48.48    -0.168 NA
HETATM   23  N26   D T3000      -0.837  -1.922  16.452  1.00 52.17    -0.252 N 
HETATM   24  C7    D T3000      -2.109  -1.500  16.137  1.00 48.89     0.097 A 
BRANCH  23  25
HETATM   25  C20   D T3000      -0.592  -3.041  17.386  1.00 57.73     0.110 C 
HETATM   26  C8    D T3000       0.649  -3.848  16.917  1.00 60.56     0.063 C 
HETATM   27  C10   D T3000       0.909  -5.016  17.896  1.00 62.17     0.292 C 
HETATM   28  N25   D T3000      -0.294  -5.875  18.099  1.00 62.01     0.339 N 
HETATM   29  C11   D T3000      -1.508  -5.101  18.500  1.00 60.06     0.292 C 
HETATM   30  C9    D T3000      -1.829  -3.959  17.507  1.00 59.17     0.063 C 
ENDBRANCH  23  25
ENDBRANCH   7  20
TORSDOF 5
ENDMDL
MODEL 2
REMARK VINA RESULT:    -8.308      0.803      1.885
REMARK INTER + INTRA:         -11.710
REMARK INTER:                 -10.697
REMARK INTRA:                  -1.013
REMARK UNBOUND:                -0.975
REMARK  5 active torsions:
REMARK  status: ('A' for Active; 'I' for Inactive)
REMARK    1  A    between atoms: C17_7  and  C21_10 
REMARK    2  A    between atoms: C21_10  and  O27_12 
REMARK    3  A    between atoms: O27_12  and  C15_13 
REMARK    4  A    between atoms: C14_19  and  C16_20 
REMARK    5  A    between atoms: N26_23  and  C20_25 
ROOT
HETATM    1  C15   D T3000      -3.748   2.293  13.377  1.00 38.99     0.125 A 
HETATM    2  C4    D T3000      -2.761   1.467  14.005  1.00 40.94     0.029 A 
HETATM    3  C19   D T3000      -5.104   1.821  13.471  1.00 37.27     0.173 A 
HETATM    4  N22   D T3000      -6.146   2.574  12.891  1.00 36.61    -0.078 NA
HETATM    5  N23   D T3000      -5.465   0.665  14.109  1.00 37.98    -0.228 NA
HETATM    6  C5    D T3000      -4.482  -0.098  14.695  1.00 40.12     0.100 A 
HETATM    7  C14   D T3000      -3.101   0.259  14.672  1.00 40.87     0.024 A 
ENDROOT
BRANCH   1   8
HETATM    8  O27   D T3000      -3.453   3.499  12.725  1.00 42.27    -0.326 OA
BRANCH   8   9
HETATM    9  C21   D T3000      -2.333   4.413  13.089  1.00 47.98     0.145 C 
HETATM   10  C1    D T3000      -2.888   5.850  12.981  1.00 44.93     0.038 C 
BRANCH   9  11
HETATM   11  C17   D T3000      -1.033   4.253  12.200  1.00 51.22     0.029 A 
HETATM   12  C13   D T3000       0.194   3.731  12.788  1.00 51.61     0.057 A 
HETATM   13 CL     D T3000       0.327   3.259  14.448  1.00 53.92    -0.083 Cl
HETATM   14  C3    D T3000       1.373   3.587  11.995  1.00 51.64     0.013 A 
HETATM   15  C2    D T3000       1.378   3.948  10.629  1.00 51.88     0.031 A 
HETATM   16  C12   D T3000       0.206   4.462  10.017  1.00 53.21     0.150 A 
HETATM   17  F     D T3000       0.248   4.797   8.715  1.00 51.93    -0.203 F 
HETATM   18  C18   D T3000      -1.002   4.620  10.780  1.00 53.17     0.084 A 
HETATM   19 CL2    D T3000      -2.384   5.262   9.923  1.00 65.44    -0.080 Cl
ENDBRANCH   9  11
ENDBRANCH   8   9
ENDBRANCH   1   8
BRANCH   7  20
HETATM   20  C16   D T3000      -1.997  -0.562  15.307  1.00 44.81     0.041 A 
HETATM   21  C6    D T3000      -0.546  -0.490  15.128  1.00 45.20     0.122 A 
HETATM   22  N24   D T3000       0.002  -1.393  15.878  1.00 48.48    -0.168 NA
HETATM   23  N26   D T3000      -0.923  -2.039  16.516  1.00 52.17    -0.252 N 
HETATM   24  C7    D T3000      -2.186  -1.582  16.217  1.00 48.89     0.097 A 
BRANCH  23  25
HETATM   25  C20   D T3000      -0.696  -3.143  17.472  1.00 57.73     0.110 C 
HETATM   26  C8    D T3000       0.534  -3.977  17.020  1.00 60.56     0.063 C 
HETATM   27  C10   D T3000       0.776  -5.130  18.022  1.00 62.17     0.292 C 
HETATM   28  N25   D T3000      -0.440  -5.967  18.240  1.00 62.01     0.339 N 
HETATM   29  C11   D T3000      -1.643  -5.168  18.624  1.00 60.06     0.292 C 
HETATM   30  C9    D T3000      -1.946  -4.040  17.609  1.00 59.17     0.063 C 
ENDBRANCH  23  25
ENDBRANCH   7  20
TORSDOF 5
ENDMDL
MODEL 3
REMARK VINA RESULT:    -8.226      2.029      2.754
REMARK INTER + INTRA:         -11.605
REMARK INTER:                 -10.716
REMARK INTRA:                  -0.889
REMARK UNBOUND:                -0.975
REMARK  5 active torsions:
REMARK  status: ('A' for Active; 'I' for Inactive)
REMARK    1  A    between atoms: C17_7  and  C21_10 
REMARK    2  A    between atoms: C21_10  and  O27_12 
REMARK    3  A    between atoms: O27_12  and  C15_13 
REMARK    4  A    between atoms: C14_19  and  C16_20 
REMARK    5  A    between atoms: N26_23  and  C20_25 
ROOT
HETATM    1  C15   D T3000      -2.054   1.973  14.273  1.00 38.99     0.125 A 
HETATM    2  C4    D T3000      -1.525   0.795  14.894  1.00 40.94     0.029 A 
HETATM    3  C19   D T3000      -3.477   1.976  14.062  1.00 37.27     0.173 A 
HETATM    4  N22   D T3000      -4.091   3.098  13.465  1.00 36.61    -0.078 NA
HETATM    5  N23   D T3000      -4.302   0.943  14.417  1.00 37.98    -0.228 NA
HETATM    6  C5    D T3000      -3.749  -0.169  15.007  1.00 40.12     0.100 A 
HETATM    7  C14   D T3000      -2.352  -0.297  15.272  1.00 40.87     0.024 A 
ENDROOT
BRANCH   1   8
HETATM    8  O27   D T3000      -1.272   3.076  13.904  1.00 42.27    -0.326 OA
BRANCH   8   9
HETATM    9  C21   D T3000       0.143   3.001  13.441  1.00 47.98     0.145 C 
HETATM   10  C1    D T3000       1.006   3.595  14.575  1.00 44.93     0.038 C 
BRANCH   9  11
HETATM   11  C17   D T3000       0.433   3.748  12.075  1.00 51.22     0.029 A 
HETATM   12  C13   D T3000       1.222   3.093  11.039  1.00 51.61     0.057 A 
HETATM   13 CL     D T3000       1.885   1.504  11.209  1.00 53.92    -0.083 Cl
HETATM   14  C3    D T3000       1.492   3.761   9.805  1.00 51.64     0.013 A 
HETATM   15  C2    D T3000       1.005   5.064   9.562  1.00 51.88     0.031 A 
HETATM   16  C12   D T3000       0.234   5.738  10.545  1.00 53.21     0.150 A 
HETATM   17  F     D T3000      -0.212   6.979  10.280  1.00 51.93    -0.203 F 
HETATM   18  C18   D T3000      -0.062   5.100  11.798  1.00 53.17     0.084 A 
HETATM   19 CL2    D T3000      -1.020   6.023  12.933  1.00 65.44    -0.080 Cl
ENDBRANCH   9  11
ENDBRANCH   8   9
ENDBRANCH   1   8
BRANCH   7  20
HETATM   20  C16   D T3000      -1.715  -1.510  15.919  1.00 44.81     0.041 A 
HETATM   21  C6    D T3000      -0.318  -1.947  15.930  1.00 45.20     0.122 A 
HETATM   22  N24   D T3000      -0.242  -3.046  16.611  1.00 48.48    -0.168 NA
HETATM   23  N26   D T3000      -1.422  -3.369  17.038  1.00 52.17    -0.252 N 
HETATM   24  C7    D T3000      -2.387  -2.466  16.652  1.00 48.89     0.097 A 
BRANCH  23  25
HETATM   25  C20   D T3000      -1.745  -4.558  17.856  1.00 57.73     0.110 C 
HETATM   26  C8    D T3000      -3.269  -4.589  18.149  1.00 60.56     0.063 C 
HETATM   27  C10   D T3000      -3.608  -5.835  18.999  1.00 62.17     0.292 C 
HETATM   28  N25   D T3000      -2.781  -5.929  20.237  1.00 62.01     0.339 N 
HETATM   29  C11   D T3000      -1.312  -5.847  19.971  1.00 60.06     0.292 C 
HETATM   30  C9    D T3000      -0.932  -4.579  19.170  1.00 59.17     0.063 C 
ENDBRANCH  23  25
ENDBRANCH   7  20
TORSDOF 5
ENDMDL
MODEL 4
REMARK VINA RESULT:    -8.004      1.887      2.216
REMARK INTER + INTRA:         -11.319
REMARK INTER:                 -10.558
REMARK INTRA:                  -0.761
REMARK UNBOUND:                -0.975
REMARK  5 active torsions:
REMARK  status: ('A' for Active; 'I' for Inactive)
REMARK    1  A    between atoms: C17_7  and  C21_10 
REMARK    2  A    between atoms: C21_10  and  O27_12 
REMARK    3  A    between atoms: O27_12  and  C15_13 
REMARK    4  A    between atoms: C14_19  and  C16_20 
REMARK    5  A    between atoms: N26_23  and  C20_25 
ROOT
HETATM    1  C15   D T3000      -2.029   2.081  14.136  1.00 38.99     0.125 A 
HETATM    2  C4    D T3000      -1.536   0.892  14.763  1.00 40.94     0.029 A 
HETATM    3  C19   D T3000      -3.457   2.156  13.982  1.00 37.27     0.173 A 
HETATM    4  N22   D T3000      -4.036   3.294  13.383  1.00 36.61    -0.078 NA
HETATM    5  N23   D T3000      -4.320   1.176  14.394  1.00 37.98    -0.228 NA
HETATM    6  C5    D T3000      -3.801   0.050  14.989  1.00 40.12     0.100 A 
HETATM    7  C14   D T3000      -2.404  -0.147  15.200  1.00 40.87     0.024 A 
ENDROOT
BRANCH   1   8
HETATM    8  O27   D T3000      -1.206   3.133  13.708  1.00 42.27    -0.326 OA
BRANCH   8   9
HETATM    9  C21   D T3000       0.241   3.003  13.380  1.00 47.98     0.145 C 
HETATM   10  C1    D T3000       1.016   3.610  14.569  1.00 44.93     0.038 C 
BRANCH   9  11
HETATM   11  C17   D T3000       0.677   3.696  12.023  1.00 51.22     0.029 A 
HETATM   12  C13   D T3000       0.237   5.052  11.723  1.00 51.61     0.057 A 
HETATM   13 CL     D T3000      -0.760   5.987  12.785  1.00 53.92    -0.083 Cl
HETATM   14  C3    D T3000       0.621   5.683  10.501  1.00 51.64     0.013 A 
HETATM   15  C2    D T3000       1.430   5.010   9.558  1.00 51.88     0.031 A 
HETATM   16  C12   D T3000       1.877   3.688   9.810  1.00 53.21     0.150 A 
HETATM   17  F     D T3000       2.644   3.076   8.889  1.00 51.93    -0.203 F 
HETATM   18  C18   D T3000       1.515   3.018  11.029  1.00 53.17     0.084 A 
HETATM   19 CL2    D T3000       2.124   1.392  11.233  1.00 65.44    -0.080 Cl
ENDBRANCH   9  11
ENDBRANCH   8   9
ENDBRANCH   1   8
BRANCH   7  20
HETATM   20  C16   D T3000      -1.804  -1.377  15.850  1.00 44.81     0.041 A 
HETATM   21  C6    D T3000      -0.489  -1.993  15.668  1.00 45.20     0.122 A 
HETATM   22  N24   D T3000      -0.417  -3.034  16.436  1.00 48.48    -0.168 NA
HETATM   23  N26   D T3000      -1.529  -3.162  17.088  1.00 52.17    -0.252 N 
HETATM   24  C7    D T3000      -2.437  -2.174  16.781  1.00 48.89     0.097 A 
BRANCH  23  25
HETATM   25  C20   D T3000      -1.834  -4.228  18.066  1.00 57.73     0.110 C 
HETATM   26  C8    D T3000      -0.723  -5.312  18.016  1.00 60.56     0.063 C 
HETATM   27  C10   D T3000      -1.038  -6.425  19.042  1.00 62.17     0.292 C 
HETATM   28  N25   D T3000      -2.407  -6.994  18.872  1.00 62.01     0.339 N 
HETATM   29  C11   D T3000      -3.479  -5.953  18.866  1.00 60.06     0.292 C 
HETATM   30  C9    D T3000      -3.223  -4.853  17.808  1.00 59.17     0.063 C 
ENDBRANCH  23  25
ENDBRANCH   7  20
TORSDOF 5
ENDMDL
MODEL 5
REMARK VINA RESULT:    -7.724      1.996      2.889
REMARK INTER + INTRA:         -10.956
REMARK INTER:                 -10.061
REMARK INTRA:                  -0.895
REMARK UNBOUND:                -0.975
REMARK  5 active torsions:
REMARK  status: ('A' for Active; 'I' for Inactive)
REMARK    1  A    between atoms: C17_7  and  C21_10 
REMARK    2  A    between atoms: C21_10  and  O27_12 
REMARK    3  A    between atoms: O27_12  and  C15_13 
REMARK    4  A    between atoms: C14_19  and  C16_20 
REMARK    5  A    between atoms: N26_23  and  C20_25 
ROOT
HETATM    1  C15   D T3000      -1.962   1.831  14.439  1.00 38.99     0.125 A 
HETATM    2  C4    D T3000      -1.490   0.633  15.065  1.00 40.94     0.029 A 
HETATM    3  C19   D T3000      -3.382   1.900  14.220  1.00 37.27     0.173 A 
HETATM    4  N22   D T3000      -3.940   3.047  13.617  1.00 36.61    -0.078 NA
HETATM    5  N23   D T3000      -4.256   0.908  14.573  1.00 37.98    -0.228 NA
HETATM    6  C5    D T3000      -3.757  -0.227  15.170  1.00 40.12     0.100 A 
HETATM    7  C14   D T3000      -2.370  -0.419  15.442  1.00 40.87     0.024 A 
ENDROOT
BRANCH   1   8
HETATM    8  O27   D T3000      -1.127   2.896  14.070  1.00 42.27    -0.326 OA
BRANCH   8   9
HETATM    9  C21   D T3000       0.255   2.749  13.533  1.00 47.98     0.145 C 
HETATM   10  C1    D T3000       1.207   3.295  14.619  1.00 44.93     0.038 C 
BRANCH   9  11
HETATM   11  C17   D T3000       0.511   3.483  12.153  1.00 51.22     0.029 A 
HETATM   12  C13   D T3000       1.237   2.803  11.089  1.00 51.61     0.057 A 
HETATM   13 CL     D T3000       1.859   1.195  11.238  1.00 53.92    -0.083 Cl
HETATM   14  C3    D T3000       1.477   3.458   9.842  1.00 51.64     0.013 A 
HETATM   15  C2    D T3000       1.018   4.775   9.614  1.00 51.88     0.031 A 
HETATM   16  C12   D T3000       0.309   5.474  10.624  1.00 53.21     0.150 A 
HETATM   17  F     D T3000      -0.111   6.727  10.373  1.00 51.93    -0.203 F 
HETATM   18  C18   D T3000       0.046   4.849  11.892  1.00 53.17     0.084 A 
HETATM   19 CL2    D T3000      -0.838   5.803  13.061  1.00 65.44    -0.080 Cl
ENDBRANCH   9  11
ENDBRANCH   8   9
ENDBRANCH   1   8
BRANCH   7  20
HETATM   20  C16   D T3000      -1.792  -1.658  16.096  1.00 44.81     0.041 A 
HETATM   21  C6    D T3000      -2.432  -2.656  16.953  1.00 45.20     0.122 A 
HETATM   22  N24   D T3000      -1.544  -3.541  17.279  1.00 48.48    -0.168 NA
HETATM   23  N26   D T3000      -0.409  -3.230  16.736  1.00 52.17    -0.252 N 
HETATM   24  C7    D T3000      -0.483  -2.078  15.987  1.00 48.89     0.097 A 
BRANCH  23  25
HETATM   25  C20   D T3000       0.847  -3.997  16.872  1.00 57.73     0.110 C 
HETATM   26  C8    D T3000       0.613  -5.218  17.801  1.00 60.56     0.063 C 
HETATM   27  C10   D T3000       1.926  -6.024  17.940  1.00 62.17     0.292 C 
HETATM   28  N25   D T3000       3.076  -5.180  18.376  1.00 62.01     0.339 N 
HETATM   29  C11   D T3000       3.277  -3.973  17.519  1.00 60.06     0.292 C 
HETATM   30  C9    D T3000       1.996  -3.113  17.407  1.00 59.17     0.063 C 
ENDBRANCH  23  25
ENDBRANCH   7  20
TORSDOF 5
ENDMDL
MODEL 6
REMARK VINA RESULT:    -7.678      1.860      2.452
REMARK INTER + INTRA:         -10.897
REMARK INTER:                 -10.146
REMARK INTRA:                  -0.751
REMARK UNBOUND:                -0.975
REMARK  5 active torsions:
REMARK  status: ('A' for Active; 'I' for Inactive)
REMARK    1  A    between atoms: C17_7  and  C21_10 
REMARK    2  A    between atoms: C21_10  and  O27_12 
REMARK    3  A    between atoms: O27_12  and  C15_13 
REMARK    4  A    between atoms: C14_19  and  C16_20 
REMARK    5  A    between atoms: N26_23  and  C20_25 
ROOT
HETATM    1  C15   D T3000      -2.034   1.859  14.405  1.00 38.99     0.125 A 
HETATM    2  C4    D T3000      -1.507   0.703  15.066  1.00 40.94     0.029 A 
HETATM    3  C19   D T3000      -3.458   1.861  14.198  1.00 37.27     0.173 A 
HETATM    4  N22   D T3000      -4.069   2.963  13.563  1.00 36.61    -0.078 NA
HETATM    5  N23   D T3000      -4.285   0.844  14.591  1.00 37.98    -0.228 NA
HETATM    6  C5    D T3000      -3.734  -0.248  15.219  1.00 40.12     0.100 A 
HETATM    7  C14   D T3000      -2.338  -0.373  15.484  1.00 40.87     0.024 A 
ENDROOT
BRANCH   1   8
HETATM    8  O27   D T3000      -1.249   2.946  13.994  1.00 42.27    -0.326 OA
BRANCH   8   9
HETATM    9  C21   D T3000       0.175   2.854  13.564  1.00 47.98     0.145 C 
HETATM   10  C1    D T3000       1.013   3.520  14.676  1.00 44.93     0.038 C 
BRANCH   9  11
HETATM   11  C17   D T3000       0.486   3.521  12.161  1.00 51.22     0.029 A 
HETATM   12  C13   D T3000      -0.152   4.778  11.794  1.00 51.61     0.057 A 
HETATM   13 CL     D T3000      -1.264   5.617  12.821  1.00 53.92    -0.083 Cl
HETATM   14  C3    D T3000       0.119   5.385  10.530  1.00 51.64     0.013 A 
HETATM   15  C2    D T3000       1.006   4.783   9.610  1.00 51.88     0.031 A 
HETATM   16  C12   D T3000       1.648   3.558   9.927  1.00 53.21     0.150 A 
HETATM   17  F     D T3000       2.485   3.012   9.027  1.00 51.93    -0.203 F 
HETATM   18  C18   D T3000       1.403   2.916  11.190  1.00 53.17     0.084 A 
HETATM   19 CL2    D T3000       2.248   1.412  11.474  1.00 65.44    -0.080 Cl
ENDBRANCH   9  11
ENDBRANCH   8   9
ENDBRANCH   1   8
BRANCH   7  20
HETATM   20  C16   D T3000      -1.703  -1.564  16.172  1.00 44.81     0.041 A 
HETATM   21  C6    D T3000      -2.315  -2.630  16.966  1.00 45.20     0.122 A 
HETATM   22  N24   D T3000      -1.378  -3.435  17.356  1.00 48.48    -0.168 NA
HETATM   23  N26   D T3000      -0.237  -3.014  16.909  1.00 52.17    -0.252 N 
HETATM   24  C7    D T3000      -0.356  -1.861  16.166  1.00 48.89     0.097 A 
BRANCH  23  25
HETATM   25  C20   D T3000       1.070  -3.665  17.139  1.00 57.73     0.110 C 
HETATM   26  C8    D T3000       1.104  -5.035  16.409  1.00 60.56     0.063 C 
HETATM   27  C10   D T3000       2.472  -5.715  16.645  1.00 62.17     0.292 C 
HETATM   28  N25   D T3000       2.818  -5.825  18.092  1.00 62.01     0.339 N 
HETATM   29  C11   D T3000       2.737  -4.520  18.817  1.00 60.06     0.292 C 
HETATM   30  C9    D T3000       1.358  -3.840  18.647  1.00 59.17     0.063 C 
ENDBRANCH  23  25
ENDBRANCH   7  20
TORSDOF 5
ENDMDL
MODEL 7
REMARK VINA RESULT:    -7.450      4.069      7.576
REMARK INTER + INTRA:         -10.602
REMARK INTER:                  -9.488
REMARK INTRA:                  -1.114
REMARK UNBOUND:                -0.975
REMARK  5 active torsions:
REMARK  status: ('A' for Active; 'I' for Inactive)
REMARK    1  A    between atoms: C17_7  and  C21_10 
REMARK    2  A    between atoms: C21_10  and  O27_12 
REMARK    3  A    between atoms: O27_12  and  C15_13 
REMARK    4  A    between atoms: C14_19  and  C16_20 
REMARK    5  A    between atoms: N26_23  and  C20_25 
ROOT
HETATM    1  C15   D T3000       2.640   4.047  10.262  1.00 38.99     0.125 A 
HETATM    2  C4    D T3000       1.378   3.973  10.935  1.00 40.94     0.029 A 
HETATM    3  C19   D T3000       3.037   5.359   9.828  1.00 37.27     0.173 A 
HETATM    4  N22   D T3000       4.270   5.531   9.164  1.00 36.61    -0.078 NA
HETATM    5  N23   D T3000       2.285   6.486  10.025  1.00 37.98    -0.228 NA
HETATM    6  C5    D T3000       1.078   6.367  10.673  1.00 40.12     0.100 A 
HETATM    7  C14   D T3000       0.570   5.123  11.153  1.00 40.87     0.024 A 
ENDROOT
BRANCH   1   8
HETATM    8  O27   D T3000       3.471   2.938  10.045  1.00 42.27    -0.326 OA
BRANCH   8   9
HETATM    9  C21   D T3000       4.470   2.417  11.020  1.00 47.98     0.145 C 
HETATM   10  C1    D T3000       5.224   1.274  10.307  1.00 44.93     0.038 C 
BRANCH   9  11
HETATM   11  C17   D T3000       3.855   1.906  12.388  1.00 51.22     0.029 A 
HETATM   12  C13   D T3000       4.523   2.209  13.646  1.00 51.61     0.057 A 
HETATM   13 CL     D T3000       5.991   3.121  13.750  1.00 53.92    -0.083 Cl
HETATM   14  C3    D T3000       3.979   1.749  14.884  1.00 51.64     0.013 A 
HETATM   15  C2    D T3000       2.787   0.991  14.917  1.00 51.88     0.031 A 
HETATM   16  C12   D T3000       2.106   0.672  13.714  1.00 53.21     0.150 A 
HETATM   17  F     D T3000       0.975  -0.053  13.782  1.00 51.93    -0.203 F 
HETATM   18  C18   D T3000       2.620   1.118  12.448  1.00 53.17     0.084 A 
HETATM   19 CL2    D T3000       1.698   0.667  11.032  1.00 65.44    -0.080 Cl
ENDBRANCH   9  11
ENDBRANCH   8   9
ENDBRANCH   1   8
BRANCH   7  20
HETATM   20  C16   D T3000      -0.756   4.962  11.869  1.00 44.81     0.041 A 
HETATM   21  C6    D T3000      -1.797   5.949  12.157  1.00 45.20     0.122 A 
HETATM   22  N24   D T3000      -2.756   5.354  12.793  1.00 48.48    -0.168 NA
HETATM   23  N26   D T3000      -2.455   4.103  12.950  1.00 52.17    -0.252 N 
HETATM   24  C7    D T3000      -1.233   3.783  12.404  1.00 48.89     0.097 A 
BRANCH  23  25
HETATM   25  C20   D T3000      -3.298   3.095  13.627  1.00 57.73     0.110 C 
HETATM   26  C8    D T3000      -2.401   1.960  14.190  1.00 60.56     0.063 C 
HETATM   27  C10   D T3000      -3.282   0.907  14.902  1.00 62.17     0.292 C 
HETATM   28  N25   D T3000      -4.382   0.395  14.034  1.00 62.01     0.339 N 
HETATM   29  C11   D T3000      -5.220   1.483  13.445  1.00 60.06     0.292 C 
HETATM   30  C9    D T3000      -4.372   2.524  12.674  1.00 59.17     0.063 C 
ENDBRANCH  23  25
ENDBRANCH   7  20
TORSDOF 5
ENDMDL
MODEL 8
REMARK VINA RESULT:    -7.247      4.115      7.170
REMARK INTER + INTRA:         -10.340
REMARK INTER:                  -9.537
REMARK INTRA:                  -0.803
REMARK UNBOUND:                -0.975
REMARK  5 active torsions:
REMARK  status: ('A' for Active; 'I' for Inactive)
REMARK    1  A    between atoms: C17_7  and  C21_10 
REMARK    2  A    between atoms: C21_10  and  O27_12 
REMARK    3  A    between atoms: O27_12  and  C15_13 
REMARK    4  A    between atoms: C14_19  and  C16_20 
REMARK    5  A    between atoms: N26_23  and  C20_25 
ROOT
HETATM    1  C15   D T3000      -0.656  -3.008  17.019  1.00 38.99     0.125 A 
HETATM    2  C4    D T3000      -1.878  -3.639  17.419  1.00 40.94     0.029 A 
HETATM    3  C19   D T3000       0.546  -3.587  17.556  1.00 37.27     0.173 A 
HETATM    4  N22   D T3000       1.799  -3.039  17.210  1.00 36.61    -0.078 NA
HETATM    5  N23   D T3000       0.562  -4.667  18.397  1.00 37.98    -0.228 NA
HETATM    6  C5    D T3000      -0.636  -5.237  18.758  1.00 40.12     0.100 A 
HETATM    7  C14   D T3000      -1.898  -4.759  18.294  1.00 40.87     0.024 A 
ENDROOT
BRANCH   1   8
HETATM    8  O27   D T3000      -0.596  -1.913  16.145  1.00 42.27    -0.326 OA
BRANCH   8   9
HETATM    9  C21   D T3000      -1.622  -1.588  15.114  1.00 47.98     0.145 C 
HETATM   10  C1    D T3000      -1.269  -2.426  13.866  1.00 44.93     0.038 C 
BRANCH   9  11
HETATM   11  C17   D T3000      -1.721  -0.052  14.740  1.00 51.22     0.029 A 
HETATM   12  C13   D T3000      -0.513   0.703  14.435  1.00 51.61     0.057 A 
HETATM   13 CL     D T3000       1.073   0.012  14.454  1.00 53.92    -0.083 Cl
HETATM   14  C3    D T3000      -0.592   2.090  14.101  1.00 51.64     0.013 A 
HETATM   15  C2    D T3000      -1.836   2.759  14.062  1.00 51.88     0.031 A 
HETATM   16  C12   D T3000      -3.036   2.060  14.354  1.00 53.21     0.150 A 
HETATM   17  F     D T3000      -4.203   2.729  14.309  1.00 51.93    -0.203 F 
HETATM   18  C18   D T3000      -3.000   0.664  14.693  1.00 53.17     0.084 A 
HETATM   19 CL2    D T3000      -4.538  -0.094  15.033  1.00 65.44    -0.080 Cl
ENDBRANCH   9  11
ENDBRANCH   8   9
ENDBRANCH   1   8
BRANCH   7  20
HETATM   20  C16   D T3000      -3.233  -5.367  18.675  1.00 44.81     0.041 A 
HETATM   21  C6    D T3000      -4.593  -4.898  18.406  1.00 45.20     0.122 A 
HETATM   22  N24   D T3000      -5.425  -5.743  18.926  1.00 48.48    -0.168 NA
HETATM   23  N26   D T3000      -4.763  -6.698  19.500  1.00 52.17    -0.252 N 
HETATM   24  C7    D T3000      -3.401  -6.537  19.386  1.00 48.89     0.097 A 
BRANCH  23  25
HETATM   25  C20   D T3000      -5.359  -7.854  20.204  1.00 57.73     0.110 C 
HETATM   26  C8    D T3000      -4.487  -9.116  19.962  1.00 60.56     0.063 C 
HETATM   27  C10   D T3000      -5.106 -10.324  20.702  1.00 62.17     0.292 C 
HETATM   28  N25   D T3000      -6.541 -10.539  20.353  1.00 62.01     0.339 N 
HETATM   29  C11   D T3000      -7.379  -9.315  20.532  1.00 60.06     0.292 C 
HETATM   30  C9    D T3000      -6.817  -8.100  19.756  1.00 59.17     0.063 C 
ENDBRANCH  23  25
ENDBRANCH   7  20
TORSDOF 5
ENDMDL
MODEL 9
REMARK VINA RESULT:    -7.199      2.943      4.207
REMARK INTER + INTRA:         -10.278
REMARK INTER:                  -9.692
REMARK INTRA:                  -0.585
REMARK UNBOUND:                -0.975
REMARK  5 active torsions:
REMARK  status: ('A' for Active; 'I' for Inactive)
REMARK    1  A    between atoms: C17_7  and  C21_10 
REMARK    2  A    between atoms: C21_10  and  O27_12 
REMARK    3  A    between atoms: O27_12  and  C15_13 
REMARK    4  A    between atoms: C14_19  and  C16_20 
REMARK    5  A    between atoms: N26_23  and  C20_25 
ROOT
HETATM    1  C15   D T3000      -0.089   4.130  12.685  1.00 38.99     0.125 A 
HETATM    2  C4    D T3000      -0.548   2.943  13.342  1.00 40.94     0.029 A 
HETATM    3  C19   D T3000      -1.088   5.141  12.462  1.00 37.27     0.173 A 
HETATM    4  N22   D T3000      -0.727   6.350  11.829  1.00 36.61    -0.078 NA
HETATM    5  N23   D T3000      -2.398   5.014  12.837  1.00 37.98    -0.228 NA
HETATM    6  C5    D T3000      -2.794   3.855  13.463  1.00 40.12     0.100 A 
HETATM    7  C14   D T3000      -1.902   2.777  13.743  1.00 40.87     0.024 A 
ENDROOT
BRANCH   1   8
HETATM    8  O27   D T3000       1.241   4.337  12.292  1.00 42.27    -0.326 OA
BRANCH   8   9
HETATM    9  C21   D T3000       1.734   4.272  10.887  1.00 47.98     0.145 C 
HETATM   10  C1    D T3000       0.581   3.685  10.045  1.00 44.93     0.038 C 
BRANCH   9  11
HETATM   11  C17   D T3000       3.055   3.421  10.688  1.00 51.22     0.029 A 
HETATM   12  C13   D T3000       4.283   4.072  10.251  1.00 51.61     0.057 A 
HETATM   13 CL     D T3000       4.397   5.767   9.923  1.00 53.92    -0.083 Cl
HETATM   14  C3    D T3000       5.478   3.312  10.064  1.00 51.64     0.013 A 
HETATM   15  C2    D T3000       5.497   1.919  10.297  1.00 51.88     0.031 A 
HETATM   16  C12   D T3000       4.322   1.245  10.722  1.00 53.21     0.150 A 
HETATM   17  F     D T3000       4.376  -0.082  10.932  1.00 51.93    -0.203 F 
HETATM   18  C18   D T3000       3.100   1.974  10.923  1.00 53.17     0.084 A 
HETATM   19 CL2    D T3000       1.716   1.043  11.448  1.00 65.44    -0.080 Cl
ENDBRANCH   9  11
ENDBRANCH   8   9
ENDBRANCH   1   8
BRANCH   7  20
HETATM   20  C16   D T3000      -2.310   1.489  14.428  1.00 44.81     0.041 A 
HETATM   21  C6    D T3000      -3.602   1.085  14.984  1.00 45.20     0.122 A 
HETATM   22  N24   D T3000      -3.479  -0.108  15.474  1.00 48.48    -0.168 NA
HETATM   23  N26   D T3000      -2.262  -0.519  15.302  1.00 52.17    -0.252 N 
HETATM   24  C7    D T3000      -1.478   0.413  14.661  1.00 48.89     0.097 A 
BRANCH  23  25
HETATM   25  C20   D T3000      -1.731  -1.832  15.724  1.00 57.73     0.110 C 
HETATM   26  C8    D T3000      -2.603  -2.400  16.877  1.00 60.56     0.063 C 
HETATM   27  C10   D T3000      -2.050  -3.776  17.315  1.00 62.17     0.292 C 
HETATM   28  N25   D T3000      -0.599  -3.731  17.658  1.00 62.01     0.339 N 
HETATM   29  C11   D T3000       0.243  -3.137  16.575  1.00 60.06     0.292 C 
HETATM   30  C9    D T3000      -0.250  -1.733  16.153  1.00 59.17     0.063 C 
ENDBRANCH  23  25
ENDBRANCH   7  20
TORSDOF 5
ENDMDL
