MODEL 1
REMARK VINA RESULT:    -8.661      0.000      0.000
REMARK INTER + INTRA:         -11.854
REMARK INTER:                 -11.192
REMARK INTRA:                  -0.662
REMARK UNBOUND:                -0.662
REMARK  5 active torsions:
REMARK  status: ('A' for Active; 'I' for Inactive)
REMARK    1  A    between atoms: C17_7  and  C21_10 
REMARK    2  A    between atoms: C21_10  and  O27_12 
REMARK    3  A    between atoms: O27_12  and  C15_13 
REMARK    4  A    between atoms: C14_19  and  C16_20 
REMARK    5  A    between atoms: N26_23  and  C20_25 
ROOT
HETATM    1  C15   D T3000       9.868  -5.322  -2.455  1.00 38.99     0.125 A 
HETATM    2  C4    D T3000       9.254  -4.516  -3.469  1.00 40.94     0.029 A 
HETATM    3  C19   D T3000      10.397  -4.604  -1.328  1.00 37.27     0.173 A 
HETATM    4  N22   D T3000      11.011  -5.312  -0.275  1.00 36.61    -0.078 NA
HETATM    5  N23   D T3000      10.339  -3.242  -1.197  1.00 37.98    -0.228 NA
HETATM    6  C5    D T3000       9.744  -2.508  -2.197  1.00 40.12     0.100 A 
HETATM    7  C14   D T3000       9.180  -3.101  -3.367  1.00 40.87     0.024 A 
ENDROOT
BRANCH   1   8
HETATM    8  O27   D T3000       9.943  -6.721  -2.513  1.00 42.27    -0.326 OA
BRANCH   8   9
HETATM    9  C21   D T3000       9.053  -7.653  -1.764  1.00 47.98     0.145 C 
HETATM   10  C1    D T3000       9.978  -8.674  -1.065  1.00 44.93     0.038 C 
BRANCH   9  11
HETATM   11  C17   D T3000       7.976  -8.399  -2.652  1.00 51.22     0.029 A 
HETATM   12  C13   D T3000       6.827  -9.037  -2.023  1.00 51.61     0.057 A 
HETATM   13 CL     D T3000       6.552  -9.035  -0.315  1.00 53.92    -0.083 Cl
HETATM   14  C3    D T3000       5.852  -9.716  -2.817  1.00 51.64     0.013 A 
HETATM   15  C2    D T3000       5.980  -9.785  -4.223  1.00 51.88     0.031 A 
HETATM   16  C12   D T3000       7.085  -9.180  -4.874  1.00 53.21     0.150 A 
HETATM   17  F     D T3000       7.176  -9.267  -6.214  1.00 51.93    -0.203 F 
HETATM   18  C18   D T3000       8.085  -8.485  -4.112  1.00 53.17     0.084 A 
HETATM   19 CL2    D T3000       9.401  -7.777  -5.020  1.00 65.44    -0.080 Cl
ENDBRANCH   9  11
ENDBRANCH   8   9
ENDBRANCH   1   8
BRANCH   7  20
HETATM   20  C16   D T3000       8.521  -2.320  -4.485  1.00 44.81     0.041 A 
HETATM   21  C6    D T3000       7.641  -2.775  -5.562  1.00 45.20     0.122 A 
HETATM   22  N24   D T3000       7.321  -1.750  -6.286  1.00 48.48    -0.168 NA
HETATM   23  N26   D T3000       7.891  -0.690  -5.805  1.00 52.17    -0.252 N 
HETATM   24  C7    D T3000       8.651  -0.961  -4.689  1.00 48.89     0.097 A 
BRANCH  23  25
HETATM   25  C20   D T3000       7.767   0.677  -6.355  1.00 57.73     0.110 C 
HETATM   26  C8    D T3000       7.269   0.602  -7.824  1.00 60.56     0.063 C 
HETATM   27  C10   D T3000       7.134   2.032  -8.398  1.00 62.17     0.292 C 
HETATM   28  N25   D T3000       8.385   2.833  -8.252  1.00 62.01     0.339 N 
HETATM   29  C11   D T3000       8.902   2.866  -6.850  1.00 60.06     0.292 C 
HETATM   30  C9    D T3000       9.103   1.447  -6.266  1.00 59.17     0.063 C 
ENDBRANCH  23  25
ENDBRANCH   7  20
TORSDOF 5
ENDMDL
MODEL 2
REMARK VINA RESULT:    -8.171      4.541      9.645
REMARK INTER + INTRA:         -11.221
REMARK INTER:                 -10.529
REMARK INTRA:                  -0.692
REMARK UNBOUND:                -0.662
REMARK  5 active torsions:
REMARK  status: ('A' for Active; 'I' for Inactive)
REMARK    1  A    between atoms: C17_7  and  C21_10 
REMARK    2  A    between atoms: C21_10  and  O27_12 
REMARK    3  A    between atoms: O27_12  and  C15_13 
REMARK    4  A    between atoms: C14_19  and  C16_20 
REMARK    5  A    between atoms: N26_23  and  C20_25 
ROOT
HETATM    1  C15   D T3000       9.913  -3.139  -3.062  1.00 38.99     0.125 A 
HETATM    2  C4    D T3000      10.202  -3.005  -1.665  1.00 40.94     0.029 A 
HETATM    3  C19   D T3000       9.725  -4.485  -3.531  1.00 37.27     0.173 A 
HETATM    4  N22   D T3000       9.427  -4.716  -4.889  1.00 36.61    -0.078 NA
HETATM    5  N23   D T3000       9.809  -5.589  -2.726  1.00 37.98    -0.228 NA
HETATM    6  C5    D T3000      10.093  -5.414  -1.392  1.00 40.12     0.100 A 
HETATM    7  C14   D T3000      10.300  -4.130  -0.802  1.00 40.87     0.024 A 
ENDROOT
BRANCH   1   8
HETATM    8  O27   D T3000       9.790  -2.051  -3.938  1.00 42.27    -0.326 OA
BRANCH   8   9
HETATM    9  C21   D T3000       8.929  -0.858  -3.699  1.00 47.98     0.145 C 
HETATM   10  C1    D T3000       7.619  -1.381  -3.072  1.00 44.93     0.038 C 
BRANCH   9  11
HETATM   11  C17   D T3000       8.620   0.006  -4.990  1.00 51.22     0.029 A 
HETATM   12  C13   D T3000       9.089   1.383  -5.075  1.00 51.61     0.057 A 
HETATM   13 CL     D T3000       9.990   2.162  -3.822  1.00 53.92    -0.083 Cl
HETATM   14  C3    D T3000       8.811   2.170  -6.235  1.00 51.64     0.013 A 
HETATM   15  C2    D T3000       8.077   1.636  -7.318  1.00 51.88     0.031 A 
HETATM   16  C12   D T3000       7.600   0.301  -7.274  1.00 53.21     0.150 A 
HETATM   17  F     D T3000       6.904  -0.175  -8.321  1.00 51.93    -0.203 F 
HETATM   18  C18   D T3000       7.861  -0.525  -6.127  1.00 53.17     0.084 A 
HETATM   19 CL2    D T3000       7.227  -2.154  -6.181  1.00 65.44    -0.080 Cl
ENDBRANCH   9  11
ENDBRANCH   8   9
ENDBRANCH   1   8
BRANCH   7  20
HETATM   20  C16   D T3000      10.615  -3.906   0.662  1.00 44.81     0.041 A 
HETATM   21  C6    D T3000      11.308  -2.796   1.318  1.00 45.20     0.122 A 
HETATM   22  N24   D T3000      11.345  -3.036   2.591  1.00 48.48    -0.168 NA
HETATM   23  N26   D T3000      10.762  -4.168   2.831  1.00 52.17    -0.252 N 
HETATM   24  C7    D T3000      10.283  -4.767   1.688  1.00 48.89     0.097 A 
BRANCH  23  25
HETATM   25  C20   D T3000      10.601  -4.785   4.165  1.00 57.73     0.110 C 
HETATM   26  C8    D T3000       9.092  -5.021   4.449  1.00 60.56     0.063 C 
HETATM   27  C10   D T3000       8.924  -5.672   5.842  1.00 62.17     0.292 C 
HETATM   28  N25   D T3000       9.602  -4.899   6.924  1.00 62.01     0.339 N 
HETATM   29  C11   D T3000      11.041  -4.622   6.635  1.00 60.06     0.292 C 
HETATM   30  C9    D T3000      11.240  -3.917   5.272  1.00 59.17     0.063 C 
ENDBRANCH  23  25
ENDBRANCH   7  20
TORSDOF 5
ENDMDL
MODEL 3
REMARK VINA RESULT:    -8.050      4.736      9.754
REMARK INTER + INTRA:         -11.065
REMARK INTER:                 -10.483
REMARK INTRA:                  -0.582
REMARK UNBOUND:                -0.662
REMARK  5 active torsions:
REMARK  status: ('A' for Active; 'I' for Inactive)
REMARK    1  A    between atoms: C17_7  and  C21_10 
REMARK    2  A    between atoms: C21_10  and  O27_12 
REMARK    3  A    between atoms: O27_12  and  C15_13 
REMARK    4  A    between atoms: C14_19  and  C16_20 
REMARK    5  A    between atoms: N26_23  and  C20_25 
ROOT
HETATM    1  C15   D T3000       9.963  -3.136  -2.991  1.00 38.99     0.125 A 
HETATM    2  C4    D T3000      10.265  -2.944  -1.604  1.00 40.94     0.029 A 
HETATM    3  C19   D T3000       9.786  -4.502  -3.404  1.00 37.27     0.173 A 
HETATM    4  N22   D T3000       9.476  -4.789  -4.749  1.00 36.61    -0.078 NA
HETATM    5  N23   D T3000       9.893  -5.573  -2.558  1.00 37.98    -0.228 NA
HETATM    6  C5    D T3000      10.189  -5.341  -1.235  1.00 40.12     0.100 A 
HETATM    7  C14   D T3000      10.387  -4.033  -0.699  1.00 40.87     0.024 A 
ENDROOT
BRANCH   1   8
HETATM    8  O27   D T3000       9.817  -2.085  -3.908  1.00 42.27    -0.326 OA
BRANCH   8   9
HETATM    9  C21   D T3000       8.901  -0.922  -3.732  1.00 47.98     0.145 C 
HETATM   10  C1    D T3000       7.610  -1.475  -3.092  1.00 44.93     0.038 C 
BRANCH   9  11
HETATM   11  C17   D T3000       8.567  -0.136  -5.065  1.00 51.22     0.029 A 
HETATM   12  C13   D T3000       7.802  -0.784  -6.122  1.00 51.61     0.057 A 
HETATM   13 CL     D T3000       7.216  -2.408  -6.016  1.00 53.92    -0.083 Cl
HETATM   14  C3    D T3000       7.499  -0.082  -7.329  1.00 51.64     0.013 A 
HETATM   15  C2    D T3000       7.933   1.247  -7.527  1.00 51.88     0.031 A 
HETATM   16  C12   D T3000       8.683   1.914  -6.523  1.00 53.21     0.150 A 
HETATM   17  F     D T3000       9.082   3.180  -6.745  1.00 51.93    -0.203 F 
HETATM   18  C18   D T3000       9.006   1.245  -5.293  1.00 53.17     0.084 A 
HETATM   19 CL2    D T3000       9.932   2.163  -4.129  1.00 65.44    -0.080 Cl
ENDBRANCH   9  11
ENDBRANCH   8   9
ENDBRANCH   1   8
BRANCH   7  20
HETATM   20  C16   D T3000      10.715  -3.747   0.752  1.00 44.81     0.041 A 
HETATM   21  C6    D T3000      11.591  -2.732   1.338  1.00 45.20     0.122 A 
HETATM   22  N24   D T3000      11.564  -2.866   2.626  1.00 48.48    -0.168 NA
HETATM   23  N26   D T3000      10.778  -3.848   2.938  1.00 52.17    -0.252 N 
HETATM   24  C7    D T3000      10.214  -4.444   1.833  1.00 48.89     0.097 A 
BRANCH  23  25
HETATM   25  C20   D T3000      10.485  -4.311   4.312  1.00 57.73     0.110 C 
HETATM   26  C8    D T3000      11.560  -5.341   4.753  1.00 60.56     0.063 C 
HETATM   27  C10   D T3000      11.257  -5.822   6.192  1.00 62.17     0.292 C 
HETATM   28  N25   D T3000       9.865  -6.337   6.346  1.00 62.01     0.339 N 
HETATM   29  C11   D T3000       8.826  -5.373   5.874  1.00 60.06     0.292 C 
HETATM   30  C9    D T3000       9.068  -4.917   4.416  1.00 59.17     0.063 C 
ENDBRANCH  23  25
ENDBRANCH   7  20
TORSDOF 5
ENDMDL
MODEL 4
REMARK VINA RESULT:    -8.045      4.753      8.936
REMARK INTER + INTRA:         -11.059
REMARK INTER:                 -10.244
REMARK INTRA:                  -0.814
REMARK UNBOUND:                -0.662
REMARK  5 active torsions:
REMARK  status: ('A' for Active; 'I' for Inactive)
REMARK    1  A    between atoms: C17_7  and  C21_10 
REMARK    2  A    between atoms: C21_10  and  O27_12 
REMARK    3  A    between atoms: O27_12  and  C15_13 
REMARK    4  A    between atoms: C14_19  and  C16_20 
REMARK    5  A    between atoms: N26_23  and  C20_25 
ROOT
HETATM    1  C15   D T3000      10.004  -3.058  -2.768  1.00 38.99     0.125 A 
HETATM    2  C4    D T3000      10.412  -2.668  -1.451  1.00 40.94     0.029 A 
HETATM    3  C19   D T3000       9.900  -4.474  -2.992  1.00 37.27     0.173 A 
HETATM    4  N22   D T3000       9.496  -4.954  -4.254  1.00 36.61    -0.078 NA
HETATM    5  N23   D T3000      10.166  -5.417  -2.035  1.00 37.98    -0.228 NA
HETATM    6  C5    D T3000      10.559  -4.998  -0.786  1.00 40.12     0.100 A 
HETATM    7  C14   D T3000      10.699  -3.620  -0.436  1.00 40.87     0.024 A 
ENDROOT
BRANCH   1   8
HETATM    8  O27   D T3000       9.695  -2.147  -3.788  1.00 42.27    -0.326 OA
BRANCH   8   9
HETATM    9  C21   D T3000       8.834  -0.942  -3.622  1.00 47.98     0.145 C 
HETATM   10  C1    D T3000       7.511  -1.433  -2.994  1.00 44.93     0.038 C 
BRANCH   9  11
HETATM   11  C17   D T3000       8.550  -0.140  -4.957  1.00 51.22     0.029 A 
HETATM   12  C13   D T3000       9.012   1.235  -5.094  1.00 51.61     0.057 A 
HETATM   13 CL     D T3000       9.878   2.077  -3.857  1.00 53.92    -0.083 Cl
HETATM   14  C3    D T3000       8.757   1.966  -6.295  1.00 51.64     0.013 A 
HETATM   15  C2    D T3000       8.053   1.379  -7.369  1.00 51.88     0.031 A 
HETATM   16  C12   D T3000       7.583   0.043  -7.275  1.00 53.21     0.150 A 
HETATM   17  F     D T3000       6.914  -0.485  -8.316  1.00 51.93    -0.203 F 
HETATM   18  C18   D T3000       7.822  -0.728  -6.086  1.00 53.17     0.084 A 
HETATM   19 CL2    D T3000       7.199  -2.362  -6.081  1.00 65.44    -0.080 Cl
ENDBRANCH   9  11
ENDBRANCH   8   9
ENDBRANCH   1   8
BRANCH   7  20
HETATM   20  C16   D T3000      11.131  -3.128   0.930  1.00 44.81     0.041 A 
HETATM   21  C6    D T3000      11.035  -3.776   2.238  1.00 45.20     0.122 A 
HETATM   22  N24   D T3000      11.534  -2.974   3.126  1.00 48.48    -0.168 NA
HETATM   23  N26   D T3000      11.935  -1.888   2.545  1.00 52.17    -0.252 N 
HETATM   24  C7    D T3000      11.721  -1.907   1.185  1.00 48.89     0.097 A 
BRANCH  23  25
HETATM   25  C20   D T3000      12.562  -0.733   3.222  1.00 57.73     0.110 C 
HETATM   26  C8    D T3000      13.359   0.107   2.187  1.00 60.56     0.063 C 
HETATM   27  C10   D T3000      14.011   1.318   2.893  1.00 62.17     0.292 C 
HETATM   28  N25   D T3000      14.836   0.921   4.073  1.00 62.01     0.339 N 
HETATM   29  C11   D T3000      14.093   0.069   5.049  1.00 60.06     0.292 C 
HETATM   30  C9    D T3000      13.476  -1.185   4.383  1.00 59.17     0.063 C 
ENDBRANCH  23  25
ENDBRANCH   7  20
TORSDOF 5
ENDMDL
MODEL 5
REMARK VINA RESULT:    -8.003      4.883      8.920
REMARK INTER + INTRA:         -11.004
REMARK INTER:                 -10.299
REMARK INTRA:                  -0.704
REMARK UNBOUND:                -0.662
REMARK  5 active torsions:
REMARK  status: ('A' for Active; 'I' for Inactive)
REMARK    1  A    between atoms: C17_7  and  C21_10 
REMARK    2  A    between atoms: C21_10  and  O27_12 
REMARK    3  A    between atoms: O27_12  and  C15_13 
REMARK    4  A    between atoms: C14_19  and  C16_20 
REMARK    5  A    between atoms: N26_23  and  C20_25 
ROOT
HETATM    1  C15   D T3000       9.927  -3.144  -3.054  1.00 38.99     0.125 A 
HETATM    2  C4    D T3000      10.322  -2.749  -1.735  1.00 40.94     0.029 A 
HETATM    3  C19   D T3000       9.838  -4.562  -3.276  1.00 37.27     0.173 A 
HETATM    4  N22   D T3000       9.448  -5.048  -4.541  1.00 36.61    -0.078 NA
HETATM    5  N23   D T3000      10.107  -5.501  -2.317  1.00 37.98    -0.228 NA
HETATM    6  C5    D T3000      10.488  -5.075  -1.065  1.00 40.12     0.100 A 
HETATM    7  C14   D T3000      10.612  -3.696  -0.717  1.00 40.87     0.024 A 
ENDROOT
BRANCH   1   8
HETATM    8  O27   D T3000       9.615  -2.238  -4.078  1.00 42.27    -0.326 OA
BRANCH   8   9
HETATM    9  C21   D T3000       8.787  -1.010  -3.906  1.00 47.98     0.145 C 
HETATM   10  C1    D T3000       7.490  -1.453  -3.194  1.00 44.93     0.038 C 
BRANCH   9  11
HETATM   11  C17   D T3000       8.449  -0.246  -5.250  1.00 51.22     0.029 A 
HETATM   12  C13   D T3000       7.691  -0.916  -6.299  1.00 51.61     0.057 A 
HETATM   13 CL     D T3000       7.117  -2.542  -6.170  1.00 53.92    -0.083 Cl
HETATM   14  C3    D T3000       7.384  -0.234  -7.517  1.00 51.64     0.013 A 
HETATM   15  C2    D T3000       7.809   1.096  -7.733  1.00 51.88     0.031 A 
HETATM   16  C12   D T3000       8.552   1.784  -6.738  1.00 53.21     0.150 A 
HETATM   17  F     D T3000       8.942   3.048  -6.977  1.00 51.93    -0.203 F 
HETATM   18  C18   D T3000       8.878   1.135  -5.498  1.00 53.17     0.084 A 
HETATM   19 CL2    D T3000       9.795   2.077  -4.345  1.00 65.44    -0.080 Cl
ENDBRANCH   9  11
ENDBRANCH   8   9
ENDBRANCH   1   8
BRANCH   7  20
HETATM   20  C16   D T3000      11.030  -3.197   0.651  1.00 44.81     0.041 A 
HETATM   21  C6    D T3000      10.880  -3.819   1.967  1.00 45.20     0.122 A 
HETATM   22  N24   D T3000      11.387  -3.022   2.853  1.00 48.48    -0.168 NA
HETATM   23  N26   D T3000      11.842  -1.961   2.265  1.00 52.17    -0.252 N 
HETATM   24  C7    D T3000      11.659  -1.995   0.901  1.00 48.89     0.097 A 
BRANCH  23  25
HETATM   25  C20   D T3000      12.496  -0.819   2.939  1.00 57.73     0.110 C 
HETATM   26  C8    D T3000      13.334  -0.017   1.905  1.00 60.56     0.063 C 
HETATM   27  C10   D T3000      14.014   1.181   2.608  1.00 62.17     0.292 C 
HETATM   28  N25   D T3000      14.809   0.772   3.804  1.00 62.01     0.339 N 
HETATM   29  C11   D T3000      14.025  -0.045   4.779  1.00 60.06     0.292 C 
HETATM   30  C9    D T3000      13.378  -1.285   4.118  1.00 59.17     0.063 C 
ENDBRANCH  23  25
ENDBRANCH   7  20
TORSDOF 5
ENDMDL
MODEL 6
REMARK VINA RESULT:    -7.946      5.206      7.435
REMARK INTER + INTRA:         -10.931
REMARK INTER:                 -10.138
REMARK INTRA:                  -0.792
REMARK UNBOUND:                -0.662
REMARK  5 active torsions:
REMARK  status: ('A' for Active; 'I' for Inactive)
REMARK    1  A    between atoms: C17_7  and  C21_10 
REMARK    2  A    between atoms: C21_10  and  O27_12 
REMARK    3  A    between atoms: O27_12  and  C15_13 
REMARK    4  A    between atoms: C14_19  and  C16_20 
REMARK    5  A    between atoms: N26_23  and  C20_25 
ROOT
HETATM    1  C15   D T3000      10.263  -2.788   0.323  1.00 38.99     0.125 A 
HETATM    2  C4    D T3000      10.390  -1.885  -0.782  1.00 40.94     0.029 A 
HETATM    3  C19   D T3000       9.387  -3.908   0.112  1.00 37.27     0.173 A 
HETATM    4  N22   D T3000       9.205  -4.856   1.139  1.00 36.61    -0.078 NA
HETATM    5  N23   D T3000       8.703  -4.130  -1.053  1.00 37.98    -0.228 NA
HETATM    6  C5    D T3000       8.852  -3.235  -2.087  1.00 40.12     0.100 A 
HETATM    7  C14   D T3000       9.692  -2.083  -2.004  1.00 40.87     0.024 A 
ENDROOT
BRANCH   1   8
HETATM    8  O27   D T3000      10.949  -2.634   1.536  1.00 42.27    -0.326 OA
BRANCH   8   9
HETATM    9  C21   D T3000      12.431  -2.547   1.671  1.00 47.98     0.145 C 
HETATM   10  C1    D T3000      12.825  -3.515   2.808  1.00 44.93     0.038 C 
BRANCH   9  11
HETATM   11  C17   D T3000      12.986  -1.093   1.963  1.00 51.22     0.029 A 
HETATM   12  C13   D T3000      12.801  -0.494   3.278  1.00 51.61     0.057 A 
HETATM   13 CL     D T3000      11.992  -1.289   4.584  1.00 53.92    -0.083 Cl
HETATM   14  C3    D T3000      13.296   0.820   3.549  1.00 51.64     0.013 A 
HETATM   15  C2    D T3000      13.967   1.564   2.554  1.00 51.88     0.031 A 
HETATM   16  C12   D T3000      14.165   1.018   1.259  1.00 53.21     0.150 A 
HETATM   17  F     D T3000      14.807   1.754   0.335  1.00 51.93    -0.203 F 
HETATM   18  C18   D T3000      13.686  -0.301   0.947  1.00 53.17     0.084 A 
HETATM   19 CL2    D T3000      13.986  -0.873  -0.678  1.00 65.44    -0.080 Cl
ENDBRANCH   9  11
ENDBRANCH   8   9
ENDBRANCH   1   8
BRANCH   7  20
HETATM   20  C16   D T3000       9.875  -1.080  -3.124  1.00 44.81     0.041 A 
HETATM   21  C6    D T3000      11.100  -0.540  -3.714  1.00 45.20     0.122 A 
HETATM   22  N24   D T3000      10.768   0.294  -4.648  1.00 48.48    -0.168 NA
HETATM   23  N26   D T3000       9.476   0.357  -4.727  1.00 52.17    -0.252 N 
HETATM   24  C7    D T3000       8.852  -0.465  -3.816  1.00 48.89     0.097 A 
BRANCH  23  25
HETATM   25  C20   D T3000       8.713   1.198  -5.674  1.00 57.73     0.110 C 
HETATM   26  C8    D T3000       7.880   0.290  -6.620  1.00 60.56     0.063 C 
HETATM   27  C10   D T3000       7.077   1.169  -7.607  1.00 62.17     0.292 C 
HETATM   28  N25   D T3000       7.939   2.138  -8.347  1.00 62.01     0.339 N 
HETATM   29  C11   D T3000       8.783   2.980  -7.447  1.00 60.06     0.292 C 
HETATM   30  C9    D T3000       9.644   2.128  -6.484  1.00 59.17     0.063 C 
ENDBRANCH  23  25
ENDBRANCH   7  20
TORSDOF 5
ENDMDL
MODEL 7
REMARK VINA RESULT:    -7.936      5.785      9.138
REMARK INTER + INTRA:         -10.917
REMARK INTER:                 -10.071
REMARK INTRA:                  -0.847
REMARK UNBOUND:                -0.662
REMARK  5 active torsions:
REMARK  status: ('A' for Active; 'I' for Inactive)
REMARK    1  A    between atoms: C17_7  and  C21_10 
REMARK    2  A    between atoms: C21_10  and  O27_12 
REMARK    3  A    between atoms: O27_12  and  C15_13 
REMARK    4  A    between atoms: C14_19  and  C16_20 
REMARK    5  A    between atoms: N26_23  and  C20_25 
ROOT
HETATM    1  C15   D T3000      10.887  -1.951  -2.675  1.00 38.99     0.125 A 
HETATM    2  C4    D T3000      12.158  -1.325  -2.465  1.00 40.94     0.029 A 
HETATM    3  C19   D T3000      10.461  -2.853  -1.639  1.00 37.27     0.173 A 
HETATM    4  N22   D T3000       9.219  -3.510  -1.753  1.00 36.61    -0.078 NA
HETATM    5  N23   D T3000      11.195  -3.122  -0.515  1.00 37.98    -0.228 NA
HETATM    6  C5    D T3000      12.412  -2.500  -0.357  1.00 40.12     0.100 A 
HETATM    7  C14   D T3000      12.947  -1.583  -1.312  1.00 40.87     0.024 A 
ENDROOT
BRANCH   1   8
HETATM    8  O27   D T3000      10.073  -1.706  -3.791  1.00 42.27    -0.326 OA
BRANCH   8   9
HETATM    9  C21   D T3000       9.475  -0.386  -4.135  1.00 47.98     0.145 C 
HETATM   10  C1    D T3000       8.582   0.015  -2.940  1.00 44.93     0.038 C 
BRANCH   9  11
HETATM   11  C17   D T3000       8.642  -0.366  -5.481  1.00 51.22     0.029 A 
HETATM   12  C13   D T3000       8.651   0.820  -6.327  1.00 51.61     0.057 A 
HETATM   13 CL     D T3000       9.541   2.254  -5.949  1.00 53.92    -0.083 Cl
HETATM   14  C3    D T3000       7.899   0.847  -7.542  1.00 51.64     0.013 A 
HETATM   15  C2    D T3000       7.130  -0.268  -7.947  1.00 51.88     0.031 A 
HETATM   16  C12   D T3000       7.092  -1.441  -7.150  1.00 53.21     0.150 A 
HETATM   17  F     D T3000       6.348  -2.483  -7.564  1.00 51.93    -0.203 F 
HETATM   18  C18   D T3000       7.837  -1.510  -5.923  1.00 53.17     0.084 A 
HETATM   19 CL2    D T3000       7.716  -3.004  -5.023  1.00 65.44    -0.080 Cl
ENDBRANCH   9  11
ENDBRANCH   8   9
ENDBRANCH   1   8
BRANCH   7  20
HETATM   20  C16   D T3000      14.283  -0.885  -1.166  1.00 44.81     0.041 A 
HETATM   21  C6    D T3000      14.636   0.522  -1.353  1.00 45.20     0.122 A 
HETATM   22  N24   D T3000      15.904   0.658  -1.119  1.00 48.48    -0.168 NA
HETATM   23  N26   D T3000      16.408  -0.495  -0.808  1.00 52.17    -0.252 N 
HETATM   24  C7    D T3000      15.467  -1.500  -0.814  1.00 48.89     0.097 A 
BRANCH  23  25
HETATM   25  C20   D T3000      17.825  -0.750  -0.472  1.00 57.73     0.110 C 
HETATM   26  C8    D T3000      18.594   0.598  -0.405  1.00 60.56     0.063 C 
HETATM   27  C10   D T3000      20.075   0.331  -0.048  1.00 62.17     0.292 C 
HETATM   28  N25   D T3000      20.719  -0.657  -0.962  1.00 62.01     0.339 N 
HETATM   29  C11   D T3000      19.958  -1.937  -1.074  1.00 60.06     0.292 C 
HETATM   30  C9    D T3000      18.484  -1.710  -1.488  1.00 59.17     0.063 C 
ENDBRANCH  23  25
ENDBRANCH   7  20
TORSDOF 5
ENDMDL
MODEL 8
REMARK VINA RESULT:    -7.869      4.115      8.574
REMARK INTER + INTRA:         -10.830
REMARK INTER:                  -9.880
REMARK INTRA:                  -0.950
REMARK UNBOUND:                -0.662
REMARK  5 active torsions:
REMARK  status: ('A' for Active; 'I' for Inactive)
REMARK    1  A    between atoms: C17_7  and  C21_10 
REMARK    2  A    between atoms: C21_10  and  O27_12 
REMARK    3  A    between atoms: O27_12  and  C15_13 
REMARK    4  A    between atoms: C14_19  and  C16_20 
REMARK    5  A    between atoms: N26_23  and  C20_25 
ROOT
HETATM    1  C15   D T3000      10.313  -2.820  -1.689  1.00 38.99     0.125 A 
HETATM    2  C4    D T3000       9.666  -4.098  -1.705  1.00 40.94     0.029 A 
HETATM    3  C19   D T3000      11.228  -2.600  -0.602  1.00 37.27     0.173 A 
HETATM    4  N22   D T3000      11.919  -1.375  -0.507  1.00 36.61    -0.078 NA
HETATM    5  N23   D T3000      11.488  -3.526   0.372  1.00 37.98    -0.228 NA
HETATM    6  C5    D T3000      10.841  -4.739   0.320  1.00 40.12     0.100 A 
HETATM    7  C14   D T3000       9.910  -5.081  -0.708  1.00 40.87     0.024 A 
ENDROOT
BRANCH   1   8
HETATM    8  O27   D T3000      10.111  -1.834  -2.666  1.00 42.27    -0.326 OA
BRANCH   8   9
HETATM    9  C21   D T3000       9.937  -2.100  -4.122  1.00 47.98     0.145 C 
HETATM   10  C1    D T3000      11.342  -2.415  -4.679  1.00 44.93     0.038 C 
BRANCH   9  11
HETATM   11  C17   D T3000       9.270  -0.918  -4.936  1.00 51.22     0.029 A 
HETATM   12  C13   D T3000       8.036  -1.148  -5.676  1.00 51.61     0.057 A 
HETATM   13 CL     D T3000       7.225  -2.675  -5.726  1.00 53.92    -0.083 Cl
HETATM   14  C3    D T3000       7.429  -0.088  -6.417  1.00 51.64     0.013 A 
HETATM   15  C2    D T3000       8.009   1.200  -6.452  1.00 51.88     0.031 A 
HETATM   16  C12   D T3000       9.211   1.466  -5.748  1.00 53.21     0.150 A 
HETATM   17  F     D T3000       9.737   2.702  -5.804  1.00 51.93    -0.203 F 
HETATM   18  C18   D T3000       9.852   0.428  -4.988  1.00 53.17     0.084 A 
HETATM   19 CL2    D T3000      11.327   0.867  -4.160  1.00 65.44    -0.080 Cl
ENDBRANCH   9  11
ENDBRANCH   8   9
ENDBRANCH   1   8
BRANCH   7  20
HETATM   20  C16   D T3000       9.182  -6.406  -0.791  1.00 44.81     0.041 A 
HETATM   21  C6    D T3000       8.819  -7.350   0.267  1.00 45.20     0.122 A 
HETATM   22  N24   D T3000       8.203  -8.352  -0.277  1.00 48.48    -0.168 NA
HETATM   23  N26   D T3000       8.130  -8.167  -1.557  1.00 52.17    -0.252 N 
HETATM   24  C7    D T3000       8.713  -6.985  -1.953  1.00 48.89     0.097 A 
BRANCH  23  25
HETATM   25  C20   D T3000       7.498  -9.090  -2.524  1.00 57.73     0.110 C 
HETATM   26  C8    D T3000       7.912  -8.693  -3.968  1.00 60.56     0.063 C 
HETATM   27  C10   D T3000       7.256  -9.662  -4.979  1.00 62.17     0.292 C 
HETATM   28  N25   D T3000       5.776  -9.758  -4.808  1.00 62.01     0.339 N 
HETATM   29  C11   D T3000       5.366 -10.087  -3.410  1.00 60.06     0.292 C 
HETATM   30  C9    D T3000       5.960  -9.100  -2.377  1.00 59.17     0.063 C 
ENDBRANCH  23  25
ENDBRANCH   7  20
TORSDOF 5
ENDMDL
MODEL 9
REMARK VINA RESULT:    -7.734      5.180      7.442
REMARK INTER + INTRA:         -10.656
REMARK INTER:                  -9.551
REMARK INTRA:                  -1.105
REMARK UNBOUND:                -0.662
REMARK  5 active torsions:
REMARK  status: ('A' for Active; 'I' for Inactive)
REMARK    1  A    between atoms: C17_7  and  C21_10 
REMARK    2  A    between atoms: C21_10  and  O27_12 
REMARK    3  A    between atoms: O27_12  and  C15_13 
REMARK    4  A    between atoms: C14_19  and  C16_20 
REMARK    5  A    between atoms: N26_23  and  C20_25 
ROOT
HETATM    1  C15   D T3000      10.360  -2.906   0.638  1.00 38.99     0.125 A 
HETATM    2  C4    D T3000      10.495  -2.031  -0.488  1.00 40.94     0.029 A 
HETATM    3  C19   D T3000       9.483  -4.030   0.448  1.00 37.27     0.173 A 
HETATM    4  N22   D T3000       9.294  -4.952   1.497  1.00 36.61    -0.078 NA
HETATM    5  N23   D T3000       8.805  -4.278  -0.715  1.00 37.98    -0.228 NA
HETATM    6  C5    D T3000       8.961  -3.408  -1.768  1.00 40.12     0.100 A 
HETATM    7  C14   D T3000       9.803  -2.256  -1.709  1.00 40.87     0.024 A 
ENDROOT
BRANCH   1   8
HETATM    8  O27   D T3000      11.042  -2.725   1.850  1.00 42.27    -0.326 OA
BRANCH   8   9
HETATM    9  C21   D T3000      12.504  -2.939   2.046  1.00 47.98     0.145 C 
HETATM   10  C1    D T3000      12.702  -3.261   3.543  1.00 44.93     0.038 C 
BRANCH   9  11
HETATM   11  C17   D T3000      13.415  -1.718   1.615  1.00 51.22     0.029 A 
HETATM   12  C13   D T3000      14.478  -1.911   0.638  1.00 51.61     0.057 A 
HETATM   13 CL     D T3000      14.821  -3.432  -0.110  1.00 53.92    -0.083 Cl
HETATM   14  C3    D T3000      15.307  -0.815   0.246  1.00 51.64     0.013 A 
HETATM   15  C2    D T3000      15.120   0.472   0.798  1.00 51.88     0.031 A 
HETATM   16  C12   D T3000      14.098   0.702   1.755  1.00 53.21     0.150 A 
HETATM   17  F     D T3000      13.949   1.939   2.261  1.00 51.93    -0.203 F 
HETATM   18  C18   D T3000      13.240  -0.373   2.173  1.00 53.17     0.084 A 
HETATM   19 CL2    D T3000      12.016   0.025   3.356  1.00 65.44    -0.080 Cl
ENDBRANCH   9  11
ENDBRANCH   8   9
ENDBRANCH   1   8
BRANCH   7  20
HETATM   20  C16   D T3000       9.994  -1.281  -2.851  1.00 44.81     0.041 A 
HETATM   21  C6    D T3000      11.221  -0.815  -3.498  1.00 45.20     0.122 A 
HETATM   22  N24   D T3000      10.896   0.022  -4.432  1.00 48.48    -0.168 NA
HETATM   23  N26   D T3000       9.607   0.152  -4.461  1.00 52.17    -0.252 N 
HETATM   24  C7    D T3000       8.977  -0.622  -3.513  1.00 48.89     0.097 A 
BRANCH  23  25
HETATM   25  C20   D T3000       8.852   1.019  -5.391  1.00 57.73     0.110 C 
HETATM   26  C8    D T3000       7.972   0.140  -6.321  1.00 60.56     0.063 C 
HETATM   27  C10   D T3000       7.178   1.047  -7.290  1.00 62.17     0.292 C 
HETATM   28  N25   D T3000       8.054   1.990  -8.046  1.00 62.01     0.339 N 
HETATM   29  C11   D T3000       8.943   2.802  -7.162  1.00 60.06     0.292 C 
HETATM   30  C9    D T3000       9.795   1.921  -6.218  1.00 59.17     0.063 C 
ENDBRANCH  23  25
ENDBRANCH   7  20
TORSDOF 5
ENDMDL
