MODEL 1
REMARK VINA RESULT:    -8.727      0.000      0.000
REMARK INTER + INTRA:         -12.220
REMARK INTER:                 -11.278
REMARK INTRA:                  -0.942
REMARK UNBOUND:                -0.942
REMARK  5 active torsions:
REMARK  status: ('A' for Active; 'I' for Inactive)
REMARK    1  A    between atoms: C17_7  and  C21_10 
REMARK    2  A    between atoms: C21_10  and  O27_12 
REMARK    3  A    between atoms: O27_12  and  C15_13 
REMARK    4  A    between atoms: C14_19  and  C16_20 
REMARK    5  A    between atoms: N26_23  and  C20_25 
ROOT
HETATM    1  C15   D T3000     -14.870   5.149  -0.912  1.00 38.99     0.125 A 
HETATM    2  C4    D T3000     -14.381   4.576  -2.130  1.00 40.94     0.029 A 
HETATM    3  C19   D T3000     -14.241   6.380  -0.510  1.00 37.27     0.173 A 
HETATM    4  N22   D T3000     -14.663   7.025   0.670  1.00 36.61    -0.078 NA
HETATM    5  N23   D T3000     -13.241   6.990  -1.217  1.00 37.98    -0.228 NA
HETATM    6  C5    D T3000     -12.801   6.399  -2.379  1.00 40.12     0.100 A 
HETATM    7  C14   D T3000     -13.341   5.179  -2.887  1.00 40.87     0.024 A 
ENDROOT
BRANCH   1   8
HETATM    8  O27   D T3000     -15.907   4.592  -0.149  1.00 42.27    -0.326 OA
BRANCH   8   9
HETATM    9  C21   D T3000     -17.311   4.421  -0.617  1.00 47.98     0.145 C 
HETATM   10  C1    D T3000     -17.868   5.840  -0.856  1.00 44.93     0.038 C 
BRANCH   9  11
HETATM   11  C17   D T3000     -18.247   3.618   0.376  1.00 51.22     0.029 A 
HETATM   12  C13   D T3000     -19.077   2.530  -0.123  1.00 51.61     0.057 A 
HETATM   13 CL     D T3000     -19.109   2.039  -1.782  1.00 53.92    -0.083 Cl
HETATM   14  C3    D T3000     -19.927   1.803   0.765  1.00 51.64     0.013 A 
HETATM   15  C2    D T3000     -19.986   2.121   2.141  1.00 51.88     0.031 A 
HETATM   16  C12   D T3000     -19.195   3.176   2.668  1.00 53.21     0.150 A 
HETATM   17  F     D T3000     -19.276   3.453   3.981  1.00 51.93    -0.203 F 
HETATM   18  C18   D T3000     -18.325   3.930   1.807  1.00 53.17     0.084 A 
HETATM   19 CL2    D T3000     -17.398   5.204   2.564  1.00 65.44    -0.080 Cl
ENDBRANCH   9  11
ENDBRANCH   8   9
ENDBRANCH   1   8
BRANCH   7  20
HETATM   20  C16   D T3000     -12.876   4.506  -4.161  1.00 44.81     0.041 A 
HETATM   21  C6    D T3000     -13.649   4.013  -5.303  1.00 45.20     0.122 A 
HETATM   22  N24   D T3000     -12.824   3.509  -6.165  1.00 48.48    -0.168 NA
HETATM   23  N26   D T3000     -11.613   3.614  -5.713  1.00 52.17    -0.252 N 
HETATM   24  C7    D T3000     -11.564   4.222  -4.478  1.00 48.89     0.097 A 
BRANCH  23  25
HETATM   25  C20   D T3000     -10.393   3.155  -6.410  1.00 57.73     0.110 C 
HETATM   26  C8    D T3000     -10.718   1.887  -7.245  1.00 60.56     0.063 C 
HETATM   27  C10   D T3000      -9.444   1.410  -7.980  1.00 62.17     0.292 C 
HETATM   28  N25   D T3000      -8.287   1.212  -7.057  1.00 62.01     0.339 N 
HETATM   29  C11   D T3000      -8.000   2.410  -6.210  1.00 60.06     0.292 C 
HETATM   30  C9    D T3000      -9.243   2.878  -5.416  1.00 59.17     0.063 C 
ENDBRANCH  23  25
ENDBRANCH   7  20
TORSDOF 5
ENDMDL
MODEL 2
REMARK VINA RESULT:    -8.488      1.371      2.209
REMARK INTER + INTRA:         -11.911
REMARK INTER:                 -11.130
REMARK INTRA:                  -0.781
REMARK UNBOUND:                -0.942
REMARK  5 active torsions:
REMARK  status: ('A' for Active; 'I' for Inactive)
REMARK    1  A    between atoms: C17_7  and  C21_10 
REMARK    2  A    between atoms: C21_10  and  O27_12 
REMARK    3  A    between atoms: O27_12  and  C15_13 
REMARK    4  A    between atoms: C14_19  and  C16_20 
REMARK    5  A    between atoms: N26_23  and  C20_25 
ROOT
HETATM    1  C15   D T3000     -14.748   5.868  -1.305  1.00 38.99     0.125 A 
HETATM    2  C4    D T3000     -14.249   5.142  -2.434  1.00 40.94     0.029 A 
HETATM    3  C19   D T3000     -13.919   6.951  -0.848  1.00 37.27     0.173 A 
HETATM    4  N22   D T3000     -14.333   7.730   0.252  1.00 36.61    -0.078 NA
HETATM    5  N23   D T3000     -12.727   7.294  -1.426  1.00 37.98    -0.228 NA
HETATM    6  C5    D T3000     -12.286   6.565  -2.507  1.00 40.12     0.100 A 
HETATM    7  C14   D T3000     -13.014   5.468  -3.058  1.00 40.87     0.024 A 
ENDROOT
BRANCH   1   8
HETATM    8  O27   D T3000     -15.971   5.587  -0.677  1.00 42.27    -0.326 OA
BRANCH   8   9
HETATM    9  C21   D T3000     -16.124   4.770   0.560  1.00 47.98     0.145 C 
HETATM   10  C1    D T3000     -14.873   3.871   0.648  1.00 44.93     0.038 C 
BRANCH   9  11
HETATM   11  C17   D T3000     -17.442   3.893   0.615  1.00 51.22     0.029 A 
HETATM   12  C13   D T3000     -18.202   3.795   1.854  1.00 51.61     0.057 A 
HETATM   13 CL     D T3000     -17.747   4.601   3.316  1.00 53.92    -0.083 Cl
HETATM   14  C3    D T3000     -19.389   3.003   1.914  1.00 51.64     0.013 A 
HETATM   15  C2    D T3000     -19.851   2.297   0.781  1.00 51.88     0.031 A 
HETATM   16  C12   D T3000     -19.138   2.362  -0.446  1.00 53.21     0.150 A 
HETATM   17  F     D T3000     -19.605   1.677  -1.504  1.00 51.93    -0.203 F 
HETATM   18  C18   D T3000     -17.941   3.151  -0.548  1.00 53.17     0.084 A 
HETATM   19 CL2    D T3000     -17.147   3.159  -2.105  1.00 65.44    -0.080 Cl
ENDBRANCH   9  11
ENDBRANCH   8   9
ENDBRANCH   1   8
BRANCH   7  20
HETATM   20  C16   D T3000     -12.553   4.648  -4.244  1.00 44.81     0.041 A 
HETATM   21  C6    D T3000     -13.332   3.977  -5.286  1.00 45.20     0.122 A 
HETATM   22  N24   D T3000     -12.507   3.394  -6.097  1.00 48.48    -0.168 NA
HETATM   23  N26   D T3000     -11.292   3.606  -5.700  1.00 52.17    -0.252 N 
HETATM   24  C7    D T3000     -11.237   4.375  -4.560  1.00 48.89     0.097 A 
BRANCH  23  25
HETATM   25  C20   D T3000     -10.071   3.105  -6.366  1.00 57.73     0.110 C 
HETATM   26  C8    D T3000     -10.415   1.838  -7.196  1.00 60.56     0.063 C 
HETATM   27  C10   D T3000      -9.140   1.316  -7.898  1.00 62.17     0.292 C 
HETATM   28  N25   D T3000      -8.008   1.096  -6.949  1.00 62.01     0.339 N 
HETATM   29  C11   D T3000      -7.704   2.295  -6.108  1.00 60.06     0.292 C 
HETATM   30  C9    D T3000      -8.950   2.807  -5.346  1.00 59.17     0.063 C 
ENDBRANCH  23  25
ENDBRANCH   7  20
TORSDOF 5
ENDMDL
MODEL 3
REMARK VINA RESULT:    -8.353      3.264      4.867
REMARK INTER + INTRA:         -11.737
REMARK INTER:                 -11.107
REMARK INTRA:                  -0.629
REMARK UNBOUND:                -0.942
REMARK  5 active torsions:
REMARK  status: ('A' for Active; 'I' for Inactive)
REMARK    1  A    between atoms: C17_7  and  C21_10 
REMARK    2  A    between atoms: C21_10  and  O27_12 
REMARK    3  A    between atoms: O27_12  and  C15_13 
REMARK    4  A    between atoms: C14_19  and  C16_20 
REMARK    5  A    between atoms: N26_23  and  C20_25 
ROOT
HETATM    1  C15   D T3000     -11.885   5.223  -3.596  1.00 38.99     0.125 A 
HETATM    2  C4    D T3000     -12.006   4.193  -4.583  1.00 40.94     0.029 A 
HETATM    3  C19   D T3000     -10.571   5.791  -3.450  1.00 37.27     0.173 A 
HETATM    4  N22   D T3000     -10.356   6.819  -2.510  1.00 36.61    -0.078 NA
HETATM    5  N23   D T3000      -9.486   5.398  -4.186  1.00 37.98    -0.228 NA
HETATM    6  C5    D T3000      -9.650   4.401  -5.120  1.00 40.12     0.100 A 
HETATM    7  C14   D T3000     -10.900   3.758  -5.363  1.00 40.87     0.024 A 
ENDROOT
BRANCH   1   8
HETATM    8  O27   D T3000     -12.958   5.691  -2.822  1.00 42.27    -0.326 OA
BRANCH   8   9
HETATM    9  C21   D T3000     -14.114   4.862  -2.381  1.00 47.98     0.145 C 
HETATM   10  C1    D T3000     -15.246   5.112  -3.401  1.00 44.93     0.038 C 
BRANCH   9  11
HETATM   11  C17   D T3000     -14.619   5.159  -0.910  1.00 51.22     0.029 A 
HETATM   12  C13   D T3000     -15.393   4.158  -0.188  1.00 51.61     0.057 A 
HETATM   13 CL     D T3000     -15.810   2.615  -0.853  1.00 53.92    -0.083 Cl
HETATM   14  C3    D T3000     -15.856   4.419   1.138  1.00 51.64     0.013 A 
HETATM   15  C2    D T3000     -15.578   5.648   1.777  1.00 51.88     0.031 A 
HETATM   16  C12   D T3000     -14.830   6.652   1.108  1.00 53.21     0.150 A 
HETATM   17  F     D T3000     -14.585   7.810   1.745  1.00 51.93    -0.203 F 
HETATM   18  C18   D T3000     -14.344   6.427  -0.226  1.00 53.17     0.084 A 
HETATM   19 CL2    D T3000     -13.433   7.731  -0.951  1.00 65.44    -0.080 Cl
ENDBRANCH   9  11
ENDBRANCH   8   9
ENDBRANCH   1   8
BRANCH   7  20
HETATM   20  C16   D T3000     -11.110   2.658  -6.382  1.00 44.81     0.041 A 
HETATM   21  C6    D T3000     -10.189   2.107  -7.377  1.00 45.20     0.122 A 
HETATM   22  N24   D T3000     -10.807   1.176  -8.033  1.00 48.48    -0.168 NA
HETATM   23  N26   D T3000     -12.017   1.065  -7.581  1.00 52.17    -0.252 N 
HETATM   24  C7    D T3000     -12.280   1.947  -6.557  1.00 48.89     0.097 A 
BRANCH  23  25
HETATM   25  C20   D T3000     -13.033   0.110  -8.072  1.00 57.73     0.110 C 
HETATM   26  C8    D T3000     -13.340  -0.937  -6.967  1.00 60.56     0.063 C 
HETATM   27  C10   D T3000     -14.407  -1.933  -7.478  1.00 62.17     0.292 C 
HETATM   28  N25   D T3000     -14.032  -2.560  -8.780  1.00 62.01     0.339 N 
HETATM   29  C11   D T3000     -13.684  -1.560  -9.836  1.00 60.06     0.292 C 
HETATM   30  C9    D T3000     -12.576  -0.583  -9.375  1.00 59.17     0.063 C 
ENDBRANCH  23  25
ENDBRANCH   7  20
TORSDOF 5
ENDMDL
MODEL 4
REMARK VINA RESULT:    -8.343      2.010      3.118
REMARK INTER + INTRA:         -11.724
REMARK INTER:                 -10.623
REMARK INTRA:                  -1.101
REMARK UNBOUND:                -0.942
REMARK  5 active torsions:
REMARK  status: ('A' for Active; 'I' for Inactive)
REMARK    1  A    between atoms: C17_7  and  C21_10 
REMARK    2  A    between atoms: C21_10  and  O27_12 
REMARK    3  A    between atoms: O27_12  and  C15_13 
REMARK    4  A    between atoms: C14_19  and  C16_20 
REMARK    5  A    between atoms: N26_23  and  C20_25 
ROOT
HETATM    1  C15   D T3000     -15.139   5.411   0.532  1.00 38.99     0.125 A 
HETATM    2  C4    D T3000     -14.890   4.915  -0.788  1.00 40.94     0.029 A 
HETATM    3  C19   D T3000     -14.554   6.691   0.834  1.00 37.27     0.173 A 
HETATM    4  N22   D T3000     -14.753   7.266   2.106  1.00 36.61    -0.078 NA
HETATM    5  N23   D T3000     -13.805   7.414  -0.054  1.00 37.98    -0.228 NA
HETATM    6  C5    D T3000     -13.590   6.895  -1.310  1.00 40.12     0.100 A 
HETATM    7  C14   D T3000     -14.114   5.638  -1.734  1.00 40.87     0.024 A 
ENDROOT
BRANCH   1   8
HETATM    8  O27   D T3000     -15.915   4.736   1.486  1.00 42.27    -0.326 OA
BRANCH   8   9
HETATM    9  C21   D T3000     -17.310   5.100   1.860  1.00 47.98     0.145 C 
HETATM   10  C1    D T3000     -17.788   4.028   2.863  1.00 44.93     0.038 C 
BRANCH   9  11
HETATM   11  C17   D T3000     -18.316   5.207   0.642  1.00 51.22     0.029 A 
HETATM   12  C13   D T3000     -19.020   6.456   0.385  1.00 51.61     0.057 A 
HETATM   13 CL     D T3000     -18.822   7.878   1.352  1.00 53.92    -0.083 Cl
HETATM   14  C3    D T3000     -19.932   6.561  -0.709  1.00 51.64     0.013 A 
HETATM   15  C2    D T3000     -20.175   5.461  -1.562  1.00 51.88     0.031 A 
HETATM   16  C12   D T3000     -19.512   4.224  -1.345  1.00 53.21     0.150 A 
HETATM   17  F     D T3000     -19.768   3.198  -2.175  1.00 51.93    -0.203 F 
HETATM   18  C18   D T3000     -18.585   4.079  -0.257  1.00 53.17     0.084 A 
HETATM   19 CL2    D T3000     -17.827   2.513  -0.086  1.00 65.44    -0.080 Cl
ENDBRANCH   9  11
ENDBRANCH   8   9
ENDBRANCH   1   8
BRANCH   7  20
HETATM   20  C16   D T3000     -13.893   5.041  -3.108  1.00 44.81     0.041 A 
HETATM   21  C6    D T3000     -14.673   5.189  -4.337  1.00 45.20     0.122 A 
HETATM   22  N24   D T3000     -14.103   4.491  -5.268  1.00 48.48    -0.168 NA
HETATM   23  N26   D T3000     -13.051   3.909  -4.784  1.00 52.17    -0.252 N 
HETATM   24  C7    D T3000     -12.853   4.201  -3.453  1.00 48.89     0.097 A 
BRANCH  23  25
HETATM   25  C20   D T3000     -12.135   3.027  -5.537  1.00 57.73     0.110 C 
HETATM   26  C8    D T3000     -10.703   3.628  -5.518  1.00 60.56     0.063 C 
HETATM   27  C10   D T3000      -9.742   2.703  -6.301  1.00 62.17     0.292 C 
HETATM   28  N25   D T3000     -10.226   2.406  -7.682  1.00 62.01     0.339 N 
HETATM   29  C11   D T3000     -11.624   1.876  -7.714  1.00 60.06     0.292 C 
HETATM   30  C9    D T3000     -12.621   2.811  -6.987  1.00 59.17     0.063 C 
ENDBRANCH  23  25
ENDBRANCH   7  20
TORSDOF 5
ENDMDL
MODEL 5
REMARK VINA RESULT:    -8.137      2.645      4.271
REMARK INTER + INTRA:         -11.457
REMARK INTER:                 -10.604
REMARK INTRA:                  -0.853
REMARK UNBOUND:                -0.942
REMARK  5 active torsions:
REMARK  status: ('A' for Active; 'I' for Inactive)
REMARK    1  A    between atoms: C17_7  and  C21_10 
REMARK    2  A    between atoms: C21_10  and  O27_12 
REMARK    3  A    between atoms: O27_12  and  C15_13 
REMARK    4  A    between atoms: C14_19  and  C16_20 
REMARK    5  A    between atoms: N26_23  and  C20_25 
ROOT
HETATM    1  C15   D T3000     -12.376   6.032  -2.858  1.00 38.99     0.125 A 
HETATM    2  C4    D T3000     -12.175   5.015  -3.846  1.00 40.94     0.029 A 
HETATM    3  C19   D T3000     -11.224   6.838  -2.554  1.00 37.27     0.173 A 
HETATM    4  N22   D T3000     -11.327   7.872  -1.601  1.00 36.61    -0.078 NA
HETATM    5  N23   D T3000     -10.001   6.672  -3.146  1.00 37.98    -0.228 NA
HETATM    6  C5    D T3000      -9.854   5.679  -4.087  1.00 40.12     0.100 A 
HETATM    7  C14   D T3000     -10.918   4.812  -4.479  1.00 40.87     0.024 A 
ENDROOT
BRANCH   1   8
HETATM    8  O27   D T3000     -13.606   6.273  -2.227  1.00 42.27    -0.326 OA
BRANCH   8   9
HETATM    9  C21   D T3000     -14.019   5.694  -0.918  1.00 47.98     0.145 C 
HETATM   10  C1    D T3000     -13.327   4.318  -0.811  1.00 44.93     0.038 C 
BRANCH   9  11
HETATM   11  C17   D T3000     -15.583   5.543  -0.725  1.00 51.22     0.029 A 
HETATM   12  C13   D T3000     -16.217   6.024   0.496  1.00 51.61     0.057 A 
HETATM   13 CL     D T3000     -15.345   6.774   1.790  1.00 53.92    -0.083 Cl
HETATM   14  C3    D T3000     -17.627   5.889   0.681  1.00 51.64     0.013 A 
HETATM   15  C2    D T3000     -18.436   5.288  -0.308  1.00 51.88     0.031 A 
HETATM   16  C12   D T3000     -17.859   4.803  -1.511  1.00 53.21     0.150 A 
HETATM   17  F     D T3000     -18.658   4.234  -2.431  1.00 51.93    -0.203 F 
HETATM   18  C18   D T3000     -16.444   4.922  -1.737  1.00 53.17     0.084 A 
HETATM   19 CL2    D T3000     -15.844   4.292  -3.253  1.00 65.44    -0.080 Cl
ENDBRANCH   9  11
ENDBRANCH   8   9
ENDBRANCH   1   8
BRANCH   7  20
HETATM   20  C16   D T3000     -10.786   3.710  -5.509  1.00 44.81     0.041 A 
HETATM   21  C6    D T3000      -9.590   3.058  -6.042  1.00 45.20     0.122 A 
HETATM   22  N24   D T3000      -9.963   2.169  -6.907  1.00 48.48    -0.168 NA
HETATM   23  N26   D T3000     -11.256   2.173  -6.996  1.00 52.17    -0.252 N 
HETATM   24  C7    D T3000     -11.838   3.100  -6.161  1.00 48.89     0.097 A 
BRANCH  23  25
HETATM   25  C20   D T3000     -12.059   1.298  -7.876  1.00 57.73     0.110 C 
HETATM   26  C8    D T3000     -13.235   0.686  -7.067  1.00 60.56     0.063 C 
HETATM   27  C10   D T3000     -14.079  -0.225  -7.988  1.00 62.17     0.292 C 
HETATM   28  N25   D T3000     -13.258  -1.259  -8.685  1.00 62.01     0.339 N 
HETATM   29  C11   D T3000     -12.093  -0.683  -9.424  1.00 60.06     0.292 C 
HETATM   30  C9    D T3000     -11.194   0.188  -8.514  1.00 59.17     0.063 C 
ENDBRANCH  23  25
ENDBRANCH   7  20
TORSDOF 5
ENDMDL
MODEL 6
REMARK VINA RESULT:    -8.115      2.504      3.385
REMARK INTER + INTRA:         -11.428
REMARK INTER:                 -10.252
REMARK INTRA:                  -1.176
REMARK UNBOUND:                -0.942
REMARK  5 active torsions:
REMARK  status: ('A' for Active; 'I' for Inactive)
REMARK    1  A    between atoms: C17_7  and  C21_10 
REMARK    2  A    between atoms: C21_10  and  O27_12 
REMARK    3  A    between atoms: O27_12  and  C15_13 
REMARK    4  A    between atoms: C14_19  and  C16_20 
REMARK    5  A    between atoms: N26_23  and  C20_25 
ROOT
HETATM    1  C15   D T3000     -17.061   5.898   1.122  1.00 38.99     0.125 A 
HETATM    2  C4    D T3000     -16.300   5.412   0.011  1.00 40.94     0.029 A 
HETATM    3  C19   D T3000     -16.356   6.770   2.023  1.00 37.27     0.173 A 
HETATM    4  N22   D T3000     -17.026   7.308   3.142  1.00 36.61    -0.078 NA
HETATM    5  N23   D T3000     -15.046   7.133   1.862  1.00 37.98    -0.228 NA
HETATM    6  C5    D T3000     -14.354   6.637   0.782  1.00 40.12     0.100 A 
HETATM    7  C14   D T3000     -14.937   5.764  -0.185  1.00 40.87     0.024 A 
ENDROOT
BRANCH   1   8
HETATM    8  O27   D T3000     -18.412   5.587   1.337  1.00 42.27    -0.326 OA
BRANCH   8   9
HETATM    9  C21   D T3000     -19.339   5.056   0.299  1.00 47.98     0.145 C 
HETATM   10  C1    D T3000     -20.723   5.675   0.589  1.00 44.93     0.038 C 
BRANCH   9  11
HETATM   11  C17   D T3000     -19.439   3.476   0.246  1.00 51.22     0.029 A 
HETATM   12  C13   D T3000     -19.070   2.761  -0.969  1.00 51.61     0.057 A 
HETATM   13 CL     D T3000     -18.510   3.550  -2.404  1.00 53.92    -0.083 Cl
HETATM   14  C3    D T3000     -19.162   1.338  -1.026  1.00 51.64     0.013 A 
HETATM   15  C2    D T3000     -19.612   0.591   0.086  1.00 51.88     0.031 A 
HETATM   16  C12   D T3000     -19.984   1.248   1.288  1.00 53.21     0.150 A 
HETATM   17  F     D T3000     -20.410   0.508   2.326  1.00 51.93    -0.203 F 
HETATM   18  C18   D T3000     -19.904   2.680   1.387  1.00 53.17     0.084 A 
HETATM   19 CL2    D T3000     -20.387   3.380   2.914  1.00 65.44    -0.080 Cl
ENDBRANCH   9  11
ENDBRANCH   8   9
ENDBRANCH   1   8
BRANCH   7  20
HETATM   20  C16   D T3000     -14.200   5.202  -1.382  1.00 44.81     0.041 A 
HETATM   21  C6    D T3000     -12.818   5.405  -1.818  1.00 45.20     0.122 A 
HETATM   22  N24   D T3000     -12.629   4.722  -2.902  1.00 48.48    -0.168 NA
HETATM   23  N26   D T3000     -13.726   4.107  -3.219  1.00 52.17    -0.252 N 
HETATM   24  C7    D T3000     -14.744   4.354  -2.325  1.00 48.89     0.097 A 
BRANCH  23  25
HETATM   25  C20   D T3000     -13.909   3.227  -4.392  1.00 57.73     0.110 C 
HETATM   26  C8    D T3000     -13.508   1.773  -4.018  1.00 60.56     0.063 C 
HETATM   27  C10   D T3000     -13.705   0.850  -5.243  1.00 62.17     0.292 C 
HETATM   28  N25   D T3000     -12.999   1.349  -6.460  1.00 62.01     0.339 N 
HETATM   29  C11   D T3000     -13.339   2.766  -6.797  1.00 60.06     0.292 C 
HETATM   30  C9    D T3000     -13.096   3.725  -5.607  1.00 59.17     0.063 C 
ENDBRANCH  23  25
ENDBRANCH   7  20
TORSDOF 5
ENDMDL
MODEL 7
REMARK VINA RESULT:    -8.097      1.974      2.556
REMARK INTER + INTRA:         -11.406
REMARK INTER:                 -10.508
REMARK INTRA:                  -0.897
REMARK UNBOUND:                -0.942
REMARK  5 active torsions:
REMARK  status: ('A' for Active; 'I' for Inactive)
REMARK    1  A    between atoms: C17_7  and  C21_10 
REMARK    2  A    between atoms: C21_10  and  O27_12 
REMARK    3  A    between atoms: O27_12  and  C15_13 
REMARK    4  A    between atoms: C14_19  and  C16_20 
REMARK    5  A    between atoms: N26_23  and  C20_25 
ROOT
HETATM    1  C15   D T3000     -15.204   4.907   0.495  1.00 38.99     0.125 A 
HETATM    2  C4    D T3000     -14.817   4.225  -0.703  1.00 40.94     0.029 A 
HETATM    3  C19   D T3000     -14.681   6.239   0.648  1.00 37.27     0.173 A 
HETATM    4  N22   D T3000     -15.016   6.993   1.791  1.00 36.61    -0.078 NA
HETATM    5  N23   D T3000     -13.866   6.846  -0.269  1.00 37.98    -0.228 NA
HETATM    6  C5    D T3000     -13.518   6.150  -1.404  1.00 40.12     0.100 A 
HETATM    7  C14   D T3000     -13.970   4.824  -1.674  1.00 40.87     0.024 A 
ENDROOT
BRANCH   1   8
HETATM    8  O27   D T3000     -16.053   4.356   1.466  1.00 42.27    -0.326 OA
BRANCH   8   9
HETATM    9  C21   D T3000     -17.403   4.882   1.814  1.00 47.98     0.145 C 
HETATM   10  C1    D T3000     -17.997   3.909   2.855  1.00 44.93     0.038 C 
BRANCH   9  11
HETATM   11  C17   D T3000     -18.387   5.044   0.584  1.00 51.22     0.029 A 
HETATM   12  C13   D T3000     -18.633   3.917  -0.308  1.00 51.61     0.057 A 
HETATM   13 CL     D T3000     -17.899   2.363  -0.102  1.00 53.92    -0.083 Cl
HETATM   14  C3    D T3000     -19.516   4.055  -1.422  1.00 51.64     0.013 A 
HETATM   15  C2    D T3000     -20.166   5.281  -1.688  1.00 51.88     0.031 A 
HETATM   16  C12   D T3000     -19.952   6.405  -0.847  1.00 53.21     0.150 A 
HETATM   17  F     D T3000     -20.585   7.556  -1.130  1.00 51.93    -0.203 F 
HETATM   18  C18   D T3000     -19.073   6.306   0.287  1.00 53.17     0.084 A 
HETATM   19 CL2    D T3000     -18.885   7.751   1.252  1.00 65.44    -0.080 Cl
ENDBRANCH   9  11
ENDBRANCH   8   9
ENDBRANCH   1   8
BRANCH   7  20
HETATM   20  C16   D T3000     -13.602   4.033  -2.913  1.00 44.81     0.041 A 
HETATM   21  C6    D T3000     -14.215   2.832  -3.480  1.00 45.20     0.122 A 
HETATM   22  N24   D T3000     -13.561   2.509  -4.551  1.00 48.48    -0.168 NA
HETATM   23  N26   D T3000     -12.598   3.356  -4.737  1.00 52.17    -0.252 N 
HETATM   24  C7    D T3000     -12.559   4.330  -3.766  1.00 48.89     0.097 A 
BRANCH  23  25
HETATM   25  C20   D T3000     -11.631   3.324  -5.855  1.00 57.73     0.110 C 
HETATM   26  C8    D T3000     -11.921   2.096  -6.759  1.00 60.56     0.063 C 
HETATM   27  C10   D T3000     -10.914   2.065  -7.932  1.00 62.17     0.292 C 
HETATM   28  N25   D T3000      -9.494   2.122  -7.473  1.00 62.01     0.339 N 
HETATM   29  C11   D T3000      -9.218   3.273  -6.560  1.00 60.06     0.292 C 
HETATM   30  C9    D T3000     -10.174   3.298  -5.343  1.00 59.17     0.063 C 
ENDBRANCH  23  25
ENDBRANCH   7  20
TORSDOF 5
ENDMDL
MODEL 8
REMARK VINA RESULT:    -8.054      1.675      2.360
REMARK INTER + INTRA:         -11.350
REMARK INTER:                 -10.399
REMARK INTRA:                  -0.951
REMARK UNBOUND:                -0.942
REMARK  5 active torsions:
REMARK  status: ('A' for Active; 'I' for Inactive)
REMARK    1  A    between atoms: C17_7  and  C21_10 
REMARK    2  A    between atoms: C21_10  and  O27_12 
REMARK    3  A    between atoms: O27_12  and  C15_13 
REMARK    4  A    between atoms: C14_19  and  C16_20 
REMARK    5  A    between atoms: N26_23  and  C20_25 
ROOT
HETATM    1  C15   D T3000     -14.729   4.705  -1.070  1.00 38.99     0.125 A 
HETATM    2  C4    D T3000     -14.232   4.017  -2.223  1.00 40.94     0.029 A 
HETATM    3  C19   D T3000     -14.088   5.958  -0.771  1.00 37.27     0.173 A 
HETATM    4  N22   D T3000     -14.517   6.714   0.339  1.00 36.61    -0.078 NA
HETATM    5  N23   D T3000     -13.067   6.487  -1.514  1.00 37.98    -0.228 NA
HETATM    6  C5    D T3000     -12.620   5.787  -2.610  1.00 40.12     0.100 A 
HETATM    7  C14   D T3000     -13.171   4.535  -3.015  1.00 40.87     0.024 A 
ENDROOT
BRANCH   1   8
HETATM    8  O27   D T3000     -15.786   4.234  -0.277  1.00 42.27    -0.326 OA
BRANCH   8   9
HETATM    9  C21   D T3000     -17.202   4.117  -0.727  1.00 47.98     0.145 C 
HETATM   10  C1    D T3000     -17.673   5.547  -1.065  1.00 44.93     0.038 C 
BRANCH   9  11
HETATM   11  C17   D T3000     -18.177   3.446   0.324  1.00 51.22     0.029 A 
HETATM   12  C13   D T3000     -19.098   2.398  -0.099  1.00 51.61     0.057 A 
HETATM   13 CL     D T3000     -19.197   1.820  -1.728  1.00 53.92    -0.083 Cl
HETATM   14  C3    D T3000     -19.984   1.790   0.841  1.00 51.64     0.013 A 
HETATM   15  C2    D T3000     -19.992   2.188   2.197  1.00 51.88     0.031 A 
HETATM   16  C12   D T3000     -19.114   3.207   2.651  1.00 53.21     0.150 A 
HETATM   17  F     D T3000     -19.149   3.563   3.946  1.00 51.93    -0.203 F 
HETATM   18  C18   D T3000     -18.204   3.842   1.736  1.00 53.17     0.084 A 
HETATM   19 CL2    D T3000     -17.169   5.082   2.405  1.00 65.44    -0.080 Cl
ENDBRANCH   9  11
ENDBRANCH   8   9
ENDBRANCH   1   8
BRANCH   7  20
HETATM   20  C16   D T3000     -12.698   3.742  -4.215  1.00 44.81     0.041 A 
HETATM   21  C6    D T3000     -11.563   3.974  -5.110  1.00 45.20     0.122 A 
HETATM   22  N24   D T3000     -11.549   3.033  -6.000  1.00 48.48    -0.168 NA
HETATM   23  N26   D T3000     -12.540   2.225  -5.787  1.00 52.17    -0.252 N 
HETATM   24  C7    D T3000     -13.297   2.597  -4.699  1.00 48.89     0.097 A 
BRANCH  23  25
HETATM   25  C20   D T3000     -12.859   1.026  -6.591  1.00 57.73     0.110 C 
HETATM   26  C8    D T3000     -12.048   1.058  -7.915  1.00 60.56     0.063 C 
HETATM   27  C10   D T3000     -12.376  -0.199  -8.753  1.00 62.17     0.292 C 
HETATM   28  N25   D T3000     -13.842  -0.376  -8.977  1.00 62.01     0.339 N 
HETATM   29  C11   D T3000     -14.636  -0.355  -7.711  1.00 60.06     0.292 C 
HETATM   30  C9    D T3000     -14.373   0.921  -6.876  1.00 59.17     0.063 C 
ENDBRANCH  23  25
ENDBRANCH   7  20
TORSDOF 5
ENDMDL
MODEL 9
REMARK VINA RESULT:    -7.935      4.352      9.333
REMARK INTER + INTRA:         -11.196
REMARK INTER:                 -11.377
REMARK INTRA:                   0.181
REMARK UNBOUND:                -0.942
REMARK  5 active torsions:
REMARK  status: ('A' for Active; 'I' for Inactive)
REMARK    1  A    between atoms: C17_7  and  C21_10 
REMARK    2  A    between atoms: C21_10  and  O27_12 
REMARK    3  A    between atoms: O27_12  and  C15_13 
REMARK    4  A    between atoms: C14_19  and  C16_20 
REMARK    5  A    between atoms: N26_23  and  C20_25 
ROOT
HETATM    1  C15   D T3000     -11.909   5.201  -3.519  1.00 38.99     0.125 A 
HETATM    2  C4    D T3000     -13.143   5.085  -2.802  1.00 40.94     0.029 A 
HETATM    3  C19   D T3000     -11.111   6.355  -3.198  1.00 37.27     0.173 A 
HETATM    4  N22   D T3000      -9.873   6.549  -3.845  1.00 36.61    -0.078 NA
HETATM    5  N23   D T3000     -11.474   7.299  -2.276  1.00 37.98    -0.228 NA
HETATM    6  C5    D T3000     -12.671   7.148  -1.615  1.00 40.12     0.100 A 
HETATM    7  C14   D T3000     -13.554   6.049  -1.841  1.00 40.87     0.024 A 
ENDROOT
BRANCH   1   8
HETATM    8  O27   D T3000     -11.462   4.260  -4.459  1.00 42.27    -0.326 OA
BRANCH   8   9
HETATM    9  C21   D T3000     -12.346   3.336  -5.224  1.00 47.98     0.145 C 
HETATM   10  C1    D T3000     -13.019   2.415  -4.184  1.00 44.93     0.038 C 
BRANCH   9  11
HETATM   11  C17   D T3000     -11.607   2.477  -6.329  1.00 51.22     0.029 A 
HETATM   12  C13   D T3000     -10.157   2.551  -6.462  1.00 51.61     0.057 A 
HETATM   13 CL     D T3000      -9.158   3.546  -5.459  1.00 53.92    -0.083 Cl
HETATM   14  C3    D T3000      -9.483   1.782  -7.459  1.00 51.64     0.013 A 
HETATM   15  C2    D T3000     -10.199   0.939  -8.337  1.00 51.88     0.031 A 
HETATM   16  C12   D T3000     -11.612   0.840  -8.244  1.00 53.21     0.150 A 
HETATM   17  F     D T3000     -12.263   0.029  -9.096  1.00 51.93    -0.203 F 
HETATM   18  C18   D T3000     -12.328   1.595  -7.252  1.00 53.17     0.084 A 
HETATM   19 CL2    D T3000     -14.065   1.394  -7.228  1.00 65.44    -0.080 Cl
ENDBRANCH   9  11
ENDBRANCH   8   9
ENDBRANCH   1   8
BRANCH   7  20
HETATM   20  C16   D T3000     -14.877   5.857  -1.130  1.00 44.81     0.041 A 
HETATM   21  C6    D T3000     -15.499   6.649  -0.068  1.00 45.20     0.122 A 
HETATM   22  N24   D T3000     -16.636   6.105   0.231  1.00 48.48    -0.168 NA
HETATM   23  N26   D T3000     -16.818   5.056  -0.510  1.00 52.17    -0.252 N 
HETATM   24  C7    D T3000     -15.773   4.837  -1.378  1.00 48.89     0.097 A 
BRANCH  23  25
HETATM   25  C20   D T3000     -18.000   4.169  -0.466  1.00 57.73     0.110 C 
HETATM   26  C8    D T3000     -18.400   3.908   1.012  1.00 60.56     0.063 C 
HETATM   27  C10   D T3000     -19.639   2.985   1.058  1.00 62.17     0.292 C 
HETATM   28  N25   D T3000     -19.448   1.724   0.281  1.00 62.01     0.339 N 
HETATM   29  C11   D T3000     -19.011   1.964  -1.129  1.00 60.06     0.292 C 
HETATM   30  C9    D T3000     -17.737   2.839  -1.207  1.00 59.17     0.063 C 
ENDBRANCH  23  25
ENDBRANCH   7  20
TORSDOF 5
ENDMDL
