MODEL 1
REMARK VINA RESULT:    -6.873      0.000      0.000
REMARK INTER + INTRA:         -10.187
REMARK INTER:                  -8.881
REMARK INTRA:                  -1.306
REMARK UNBOUND:                -1.306
REMARK  5 active torsions:
REMARK  status: ('A' for Active; 'I' for Inactive)
REMARK    1  A    between atoms: C17_7  and  C21_10 
REMARK    2  A    between atoms: C21_10  and  O27_12 
REMARK    3  A    between atoms: O27_12  and  C15_13 
REMARK    4  A    between atoms: C14_19  and  C16_20 
REMARK    5  A    between atoms: N26_23  and  C20_25 
ROOT
HETATM    1  C15   D T3000      44.974  22.309   3.591  1.00 38.99     0.125 A 
HETATM    2  C4    D T3000      44.361  22.736   2.369  1.00 40.94     0.029 A 
HETATM    3  C19   D T3000      46.047  23.138   4.070  1.00 37.27     0.173 A 
HETATM    4  N22   D T3000      46.704  22.802   5.272  1.00 36.61    -0.078 NA
HETATM    5  N23   D T3000      46.482  24.266   3.429  1.00 37.98    -0.228 NA
HETATM    6  C5    D T3000      45.866  24.637   2.256  1.00 40.12     0.100 A 
HETATM    7  C14   D T3000      44.790  23.900   1.675  1.00 40.87     0.024 A 
ENDROOT
BRANCH   1   8
HETATM    8  O27   D T3000      44.566  21.177   4.312  1.00 42.27    -0.326 OA
BRANCH   8   9
HETATM    9  C21   D T3000      43.345  21.104   5.163  1.00 47.98     0.145 C 
HETATM   10  C1    D T3000      43.572  19.942   6.155  1.00 44.93     0.038 C 
BRANCH   9  11
HETATM   11  C17   D T3000      41.993  20.896   4.365  1.00 51.22     0.029 A 
HETATM   12  C13   D T3000      41.871  19.801   3.411  1.00 51.61     0.057 A 
HETATM   13 CL     D T3000      43.143  18.676   3.083  1.00 53.92    -0.083 Cl
HETATM   14  C3    D T3000      40.656  19.608   2.685  1.00 51.64     0.013 A 
HETATM   15  C2    D T3000      39.552  20.471   2.870  1.00 51.88     0.031 A 
HETATM   16  C12   D T3000      39.631  21.551   3.787  1.00 53.21     0.150 A 
HETATM   17  F     D T3000      38.563  22.354   3.937  1.00 51.93    -0.203 F 
HETATM   18  C18   D T3000      40.835  21.777   4.540  1.00 53.17     0.084 A 
HETATM   19 CL2    D T3000      40.819  23.136   5.640  1.00 65.44    -0.080 Cl
ENDBRANCH   9  11
ENDBRANCH   8   9
ENDBRANCH   1   8
BRANCH   7  20
HETATM   20  C16   D T3000      44.095  24.282   0.385  1.00 44.81     0.041 A 
HETATM   21  C6    D T3000      44.224  25.488  -0.434  1.00 45.20     0.122 A 
HETATM   22  N24   D T3000      43.429  25.376  -1.451  1.00 48.48    -0.168 NA
HETATM   23  N26   D T3000      42.803  24.243  -1.383  1.00 52.17    -0.252 N 
HETATM   24  C7    D T3000      43.161  23.509  -0.275  1.00 48.89     0.097 A 
BRANCH  23  25
HETATM   25  C20   D T3000      41.810  23.750  -2.361  1.00 57.73     0.110 C 
HETATM   26  C8    D T3000      40.468  23.456  -1.637  1.00 60.56     0.063 C 
HETATM   27  C10   D T3000      39.427  22.946  -2.660  1.00 62.17     0.292 C 
HETATM   28  N25   D T3000      39.923  21.782  -3.454  1.00 62.01     0.339 N 
HETATM   29  C11   D T3000      41.240  22.038  -4.113  1.00 60.06     0.292 C 
HETATM   30  C9    D T3000      42.320  22.495  -3.104  1.00 59.17     0.063 C 
ENDBRANCH  23  25
ENDBRANCH   7  20
TORSDOF 5
ENDMDL
MODEL 2
REMARK VINA RESULT:    -6.838      2.471      4.609
REMARK INTER + INTRA:         -10.142
REMARK INTER:                  -9.400
REMARK INTRA:                  -0.742
REMARK UNBOUND:                -1.306
REMARK  5 active torsions:
REMARK  status: ('A' for Active; 'I' for Inactive)
REMARK    1  A    between atoms: C17_7  and  C21_10 
REMARK    2  A    between atoms: C21_10  and  O27_12 
REMARK    3  A    between atoms: O27_12  and  C15_13 
REMARK    4  A    between atoms: C14_19  and  C16_20 
REMARK    5  A    between atoms: N26_23  and  C20_25 
ROOT
HETATM    1  C15   D T3000      41.789  23.848   0.559  1.00 38.99     0.125 A 
HETATM    2  C4    D T3000      41.076  23.363  -0.585  1.00 40.94     0.029 A 
HETATM    3  C19   D T3000      42.673  24.956   0.316  1.00 37.27     0.173 A 
HETATM    4  N22   D T3000      43.410  25.507   1.384  1.00 36.61    -0.078 NA
HETATM    5  N23   D T3000      42.849  25.534  -0.912  1.00 37.98    -0.228 NA
HETATM    6  C5    D T3000      42.146  25.033  -1.983  1.00 40.12     0.100 A 
HETATM    7  C14   D T3000      41.237  23.937  -1.875  1.00 40.87     0.024 A 
ENDROOT
BRANCH   1   8
HETATM    8  O27   D T3000      41.642  23.318   1.850  1.00 42.27    -0.326 OA
BRANCH   8   9
HETATM    9  C21   D T3000      41.530  21.867   2.167  1.00 47.98     0.145 C 
HETATM   10  C1    D T3000      40.022  21.534   2.170  1.00 44.93     0.038 C 
BRANCH   9  11
HETATM   11  C17   D T3000      42.195  21.435   3.538  1.00 51.22     0.029 A 
HETATM   12  C13   D T3000      43.197  20.378   3.562  1.00 51.61     0.057 A 
HETATM   13 CL     D T3000      43.727  19.536   2.146  1.00 53.92    -0.083 Cl
HETATM   14  C3    D T3000      43.799  19.980   4.795  1.00 51.64     0.013 A 
HETATM   15  C2    D T3000      43.437  20.596   6.013  1.00 51.88     0.031 A 
HETATM   16  C12   D T3000      42.463  21.628   6.035  1.00 53.21     0.150 A 
HETATM   17  F     D T3000      42.141  22.192   7.213  1.00 51.93    -0.203 F 
HETATM   18  C18   D T3000      41.836  22.059   4.815  1.00 53.17     0.084 A 
HETATM   19 CL2    D T3000      40.652  23.338   4.961  1.00 65.44    -0.080 Cl
ENDBRANCH   9  11
ENDBRANCH   8   9
ENDBRANCH   1   8
BRANCH   7  20
HETATM   20  C16   D T3000      40.452  23.363  -3.035  1.00 44.81     0.041 A 
HETATM   21  C6    D T3000      39.199  23.816  -3.641  1.00 45.20     0.122 A 
HETATM   22  N24   D T3000      38.902  23.011  -4.612  1.00 48.48    -0.168 NA
HETATM   23  N26   D T3000      39.813  22.094  -4.701  1.00 52.17    -0.252 N 
HETATM   24  C7    D T3000      40.806  22.244  -3.760  1.00 48.89     0.097 A 
BRANCH  23  25
HETATM   25  C20   D T3000      39.829  20.993  -5.688  1.00 57.73     0.110 C 
HETATM   26  C8    D T3000      38.660  21.180  -6.693  1.00 60.56     0.063 C 
HETATM   27  C10   D T3000      38.678  20.032  -7.729  1.00 62.17     0.292 C 
HETATM   28  N25   D T3000      38.684  18.682  -7.094  1.00 62.01     0.339 N 
HETATM   29  C11   D T3000      39.775  18.511  -6.086  1.00 60.06     0.292 C 
HETATM   30  C9    D T3000      39.747  19.612  -5.000  1.00 59.17     0.063 C 
ENDBRANCH  23  25
ENDBRANCH   7  20
TORSDOF 5
ENDMDL
MODEL 3
REMARK VINA RESULT:    -6.832      2.747      4.247
REMARK INTER + INTRA:         -10.135
REMARK INTER:                  -9.227
REMARK INTRA:                  -0.908
REMARK UNBOUND:                -1.306
REMARK  5 active torsions:
REMARK  status: ('A' for Active; 'I' for Inactive)
REMARK    1  A    between atoms: C17_7  and  C21_10 
REMARK    2  A    between atoms: C21_10  and  O27_12 
REMARK    3  A    between atoms: O27_12  and  C15_13 
REMARK    4  A    between atoms: C14_19  and  C16_20 
REMARK    5  A    between atoms: N26_23  and  C20_25 
ROOT
HETATM    1  C15   D T3000      45.326  22.275   3.908  1.00 38.99     0.125 A 
HETATM    2  C4    D T3000      45.072  23.142   2.797  1.00 40.94     0.029 A 
HETATM    3  C19   D T3000      46.416  22.663   4.762  1.00 37.27     0.173 A 
HETATM    4  N22   D T3000      46.735  21.875   5.887  1.00 36.61    -0.078 NA
HETATM    5  N23   D T3000      47.182  23.779   4.558  1.00 37.98    -0.228 NA
HETATM    6  C5    D T3000      46.905  24.581   3.477  1.00 40.12     0.100 A 
HETATM    7  C14   D T3000      45.850  24.307   2.553  1.00 40.87     0.024 A 
ENDROOT
BRANCH   1   8
HETATM    8  O27   D T3000      44.569  21.128   4.188  1.00 42.27    -0.326 OA
BRANCH   8   9
HETATM    9  C21   D T3000      43.370  21.094   5.072  1.00 47.98     0.145 C 
HETATM   10  C1    D T3000      43.598  19.943   6.076  1.00 44.93     0.038 C 
BRANCH   9  11
HETATM   11  C17   D T3000      41.993  20.903   4.314  1.00 51.22     0.029 A 
HETATM   12  C13   D T3000      41.831  19.814   3.360  1.00 51.61     0.057 A 
HETATM   13 CL     D T3000      43.082  18.677   2.990  1.00 53.92    -0.083 Cl
HETATM   14  C3    D T3000      40.594  19.636   2.668  1.00 51.64     0.013 A 
HETATM   15  C2    D T3000      39.505  20.510   2.889  1.00 51.88     0.031 A 
HETATM   16  C12   D T3000      39.622  21.585   3.807  1.00 53.21     0.150 A 
HETATM   17  F     D T3000      38.567  22.399   3.991  1.00 51.93    -0.203 F 
HETATM   18  C18   D T3000      40.849  21.797   4.525  1.00 53.17     0.084 A 
HETATM   19 CL2    D T3000      40.880  23.151   5.630  1.00 65.44    -0.080 Cl
ENDBRANCH   9  11
ENDBRANCH   8   9
ENDBRANCH   1   8
BRANCH   7  20
HETATM   20  C16   D T3000      45.522  25.170   1.353  1.00 44.81     0.041 A 
HETATM   21  C6    D T3000      44.236  25.438   0.709  1.00 45.20     0.122 A 
HETATM   22  N24   D T3000      44.440  26.238  -0.290  1.00 48.48    -0.168 NA
HETATM   23  N26   D T3000      45.704  26.514  -0.366  1.00 52.17    -0.252 N 
HETATM   24  C7    D T3000      46.439  25.891   0.617  1.00 48.89     0.097 A 
BRANCH  23  25
HETATM   25  C20   D T3000      46.331  27.395  -1.374  1.00 57.73     0.110 C 
HETATM   26  C8    D T3000      47.744  26.857  -1.726  1.00 60.56     0.063 C 
HETATM   27  C10   D T3000      48.399  27.775  -2.784  1.00 62.17     0.292 C 
HETATM   28  N25   D T3000      48.413  29.210  -2.373  1.00 62.01     0.339 N 
HETATM   29  C11   D T3000      47.065  29.722  -1.981  1.00 60.06     0.292 C 
HETATM   30  C9    D T3000      46.407  28.857  -0.880  1.00 59.17     0.063 C 
ENDBRANCH  23  25
ENDBRANCH   7  20
TORSDOF 5
ENDMDL
MODEL 4
REMARK VINA RESULT:    -6.797      2.032      2.657
REMARK INTER + INTRA:         -10.090
REMARK INTER:                  -9.040
REMARK INTRA:                  -1.050
REMARK UNBOUND:                -1.306
REMARK  5 active torsions:
REMARK  status: ('A' for Active; 'I' for Inactive)
REMARK    1  A    between atoms: C17_7  and  C21_10 
REMARK    2  A    between atoms: C21_10  and  O27_12 
REMARK    3  A    between atoms: O27_12  and  C15_13 
REMARK    4  A    between atoms: C14_19  and  C16_20 
REMARK    5  A    between atoms: N26_23  and  C20_25 
ROOT
HETATM    1  C15   D T3000      45.061  22.171   3.411  1.00 38.99     0.125 A 
HETATM    2  C4    D T3000      44.642  22.453   2.071  1.00 40.94     0.029 A 
HETATM    3  C19   D T3000      46.034  23.077   3.961  1.00 37.27     0.173 A 
HETATM    4  N22   D T3000      46.500  22.886   5.278  1.00 36.61    -0.078 NA
HETATM    5  N23   D T3000      46.548  24.147   3.279  1.00 37.98    -0.228 NA
HETATM    6  C5    D T3000      46.119  24.377   1.993  1.00 40.12     0.100 A 
HETATM    7  C14   D T3000      45.158  23.553   1.333  1.00 40.87     0.024 A 
ENDROOT
BRANCH   1   8
HETATM    8  O27   D T3000      44.561  21.107   4.176  1.00 42.27    -0.326 OA
BRANCH   8   9
HETATM    9  C21   D T3000      43.348  21.173   5.038  1.00 47.98     0.145 C 
HETATM   10  C1    D T3000      43.553  20.134   6.162  1.00 44.93     0.038 C 
BRANCH   9  11
HETATM   11  C17   D T3000      41.983  20.910   4.282  1.00 51.22     0.029 A 
HETATM   12  C13   D T3000      41.860  19.781   3.369  1.00 51.61     0.057 A 
HETATM   13 CL     D T3000      43.149  18.672   3.048  1.00 53.92    -0.083 Cl
HETATM   14  C3    D T3000      40.633  19.539   2.679  1.00 51.64     0.013 A 
HETATM   15  C2    D T3000      39.516  20.384   2.862  1.00 51.88     0.031 A 
HETATM   16  C12   D T3000      39.594  21.497   3.740  1.00 53.21     0.150 A 
HETATM   17  F     D T3000      38.513  22.283   3.888  1.00 51.93    -0.203 F 
HETATM   18  C18   D T3000      40.810  21.774   4.454  1.00 53.17     0.084 A 
HETATM   19 CL2    D T3000      40.792  23.169   5.508  1.00 65.44    -0.080 Cl
ENDBRANCH   9  11
ENDBRANCH   8   9
ENDBRANCH   1   8
BRANCH   7  20
HETATM   20  C16   D T3000      44.668  23.780  -0.082  1.00 44.81     0.041 A 
HETATM   21  C6    D T3000      43.383  23.448  -0.699  1.00 45.20     0.122 A 
HETATM   22  N24   D T3000      43.415  23.831  -1.936  1.00 48.48    -0.168 NA
HETATM   23  N26   D T3000      44.568  24.367  -2.189  1.00 52.17    -0.252 N 
HETATM   24  C7    D T3000      45.398  24.373  -1.091  1.00 48.89     0.097 A 
BRANCH  23  25
HETATM   25  C20   D T3000      44.988  24.925  -3.492  1.00 57.73     0.110 C 
HETATM   26  C8    D T3000      44.025  24.428  -4.604  1.00 60.56     0.063 C 
HETATM   27  C10   D T3000      44.460  25.016  -5.967  1.00 62.17     0.292 C 
HETATM   28  N25   D T3000      45.894  24.745  -6.280  1.00 62.01     0.339 N 
HETATM   29  C11   D T3000      46.824  25.173  -5.192  1.00 60.06     0.292 C 
HETATM   30  C9    D T3000      46.450  24.553  -3.824  1.00 59.17     0.063 C 
ENDBRANCH  23  25
ENDBRANCH   7  20
TORSDOF 5
ENDMDL
MODEL 5
REMARK VINA RESULT:    -6.739      5.962      8.824
REMARK INTER + INTRA:         -10.014
REMARK INTER:                  -9.351
REMARK INTRA:                  -0.663
REMARK UNBOUND:                -1.306
REMARK  5 active torsions:
REMARK  status: ('A' for Active; 'I' for Inactive)
REMARK    1  A    between atoms: C17_7  and  C21_10 
REMARK    2  A    between atoms: C21_10  and  O27_12 
REMARK    3  A    between atoms: O27_12  and  C15_13 
REMARK    4  A    between atoms: C14_19  and  C16_20 
REMARK    5  A    between atoms: N26_23  and  C20_25 
ROOT
HETATM    1  C15   D T3000      42.711  23.932  -2.237  1.00 38.99     0.125 A 
HETATM    2  C4    D T3000      41.993  23.232  -3.260  1.00 40.94     0.029 A 
HETATM    3  C19   D T3000      41.939  24.313  -1.086  1.00 37.27     0.173 A 
HETATM    4  N22   D T3000      42.562  24.999  -0.023  1.00 36.61    -0.078 NA
HETATM    5  N23   D T3000      40.604  24.043  -0.941  1.00 37.98    -0.228 NA
HETATM    6  C5    D T3000      39.954  23.372  -1.949  1.00 40.12     0.100 A 
HETATM    7  C14   D T3000      40.607  22.938  -3.144  1.00 40.87     0.024 A 
ENDROOT
BRANCH   1   8
HETATM    8  O27   D T3000      44.081  24.223  -2.310  1.00 42.27    -0.326 OA
BRANCH   8   9
HETATM    9  C21   D T3000      44.654  25.529  -2.743  1.00 47.98     0.145 C 
HETATM   10  C1    D T3000      43.495  26.324  -3.383  1.00 44.93     0.038 C 
BRANCH   9  11
HETATM   11  C17   D T3000      45.871  25.417  -3.749  1.00 51.22     0.029 A 
HETATM   12  C13   D T3000      47.208  25.809  -3.322  1.00 51.61     0.057 A 
HETATM   13 CL     D T3000      47.566  26.406  -1.738  1.00 53.92    -0.083 Cl
HETATM   14  C3    D T3000      48.312  25.715  -4.224  1.00 51.64     0.013 A 
HETATM   15  C2    D T3000      48.134  25.245  -5.545  1.00 51.88     0.031 A 
HETATM   16  C12   D T3000      46.848  24.856  -6.001  1.00 53.21     0.150 A 
HETATM   17  F     D T3000      46.715  24.416  -7.265  1.00 51.93    -0.203 F 
HETATM   18  C18   D T3000      45.712  24.933  -5.124  1.00 53.17     0.084 A 
HETATM   19 CL2    D T3000      44.178  24.427  -5.793  1.00 65.44    -0.080 Cl
ENDBRANCH   9  11
ENDBRANCH   8   9
ENDBRANCH   1   8
BRANCH   7  20
HETATM   20  C16   D T3000      39.918  22.199  -4.271  1.00 44.81     0.041 A 
HETATM   21  C6    D T3000      38.926  22.669  -5.239  1.00 45.20     0.122 A 
HETATM   22  N24   D T3000      38.619  21.682  -6.020  1.00 48.48    -0.168 NA
HETATM   23  N26   D T3000      39.293  20.632  -5.668  1.00 52.17    -0.252 N 
HETATM   24  C7    D T3000      40.120  20.873  -4.594  1.00 48.89     0.097 A 
BRANCH  23  25
HETATM   25  C20   D T3000      39.220  19.307  -6.319  1.00 57.73     0.110 C 
HETATM   26  C8    D T3000      37.761  19.032  -6.775  1.00 60.56     0.063 C 
HETATM   27  C10   D T3000      37.684  17.649  -7.461  1.00 62.17     0.292 C 
HETATM   28  N25   D T3000      38.239  16.553  -6.613  1.00 62.01     0.339 N 
HETATM   29  C11   D T3000      39.625  16.832  -6.125  1.00 60.06     0.292 C 
HETATM   30  C9    D T3000      39.722  18.186  -5.382  1.00 59.17     0.063 C 
ENDBRANCH  23  25
ENDBRANCH   7  20
TORSDOF 5
ENDMDL
MODEL 6
REMARK VINA RESULT:    -6.607      1.225      2.302
REMARK INTER + INTRA:          -9.844
REMARK INTER:                  -8.600
REMARK INTRA:                  -1.244
REMARK UNBOUND:                -1.306
REMARK  5 active torsions:
REMARK  status: ('A' for Active; 'I' for Inactive)
REMARK    1  A    between atoms: C17_7  and  C21_10 
REMARK    2  A    between atoms: C21_10  and  O27_12 
REMARK    3  A    between atoms: O27_12  and  C15_13 
REMARK    4  A    between atoms: C14_19  and  C16_20 
REMARK    5  A    between atoms: N26_23  and  C20_25 
ROOT
HETATM    1  C15   D T3000      44.667  22.409   3.259  1.00 38.99     0.125 A 
HETATM    2  C4    D T3000      43.817  22.804   2.175  1.00 40.94     0.029 A 
HETATM    3  C19   D T3000      45.873  23.177   3.413  1.00 37.27     0.173 A 
HETATM    4  N22   D T3000      46.767  22.868   4.459  1.00 36.61    -0.078 NA
HETATM    5  N23   D T3000      46.221  24.220   2.599  1.00 37.98    -0.228 NA
HETATM    6  C5    D T3000      45.376  24.562   1.569  1.00 40.12     0.100 A 
HETATM    7  C14   D T3000      44.149  23.880   1.308  1.00 40.87     0.024 A 
ENDROOT
BRANCH   1   8
HETATM    8  O27   D T3000      44.363  21.365   4.145  1.00 42.27    -0.326 OA
BRANCH   8   9
HETATM    9  C21   D T3000      43.176  21.329   5.045  1.00 47.98     0.145 C 
HETATM   10  C1    D T3000      43.434  20.197   6.064  1.00 44.93     0.038 C 
BRANCH   9  11
HETATM   11  C17   D T3000      41.793  21.106   4.307  1.00 51.22     0.029 A 
HETATM   12  C13   D T3000      40.682  22.017   4.550  1.00 51.61     0.057 A 
HETATM   13 CL     D T3000      40.778  23.372   5.622  1.00 53.92    -0.083 Cl
HETATM   14  C3    D T3000      39.429  21.822   3.891  1.00 51.64     0.013 A 
HETATM   15  C2    D T3000      39.238  20.745   2.998  1.00 51.88     0.031 A 
HETATM   16  C12   D T3000      40.292  19.832   2.736  1.00 53.21     0.150 A 
HETATM   17  F     D T3000      40.075  18.816   1.882  1.00 51.93    -0.203 F 
HETATM   18  C18   D T3000      41.569  19.995   3.376  1.00 53.17     0.084 A 
HETATM   19 CL2    D T3000      42.794  18.813   2.979  1.00 65.44    -0.080 Cl
ENDBRANCH   9  11
ENDBRANCH   8   9
ENDBRANCH   1   8
BRANCH   7  20
HETATM   20  C16   D T3000      43.200  24.232   0.181  1.00 44.81     0.041 A 
HETATM   21  C6    D T3000      43.121  25.440  -0.641  1.00 45.20     0.122 A 
HETATM   22  N24   D T3000      42.147  25.296  -1.483  1.00 48.48    -0.168 NA
HETATM   23  N26   D T3000      41.589  24.141  -1.298  1.00 52.17    -0.252 N 
HETATM   24  C7    D T3000      42.185  23.424  -0.286  1.00 48.89     0.097 A 
BRANCH  23  25
HETATM   25  C20   D T3000      40.443  23.608  -2.066  1.00 57.73     0.110 C 
HETATM   26  C8    D T3000      40.961  22.897  -3.346  1.00 60.56     0.063 C 
HETATM   27  C10   D T3000      39.764  22.335  -4.147  1.00 62.17     0.292 C 
HETATM   28  N25   D T3000      38.729  23.371  -4.440  1.00 62.01     0.339 N 
HETATM   29  C11   D T3000      38.263  24.097  -3.220  1.00 60.06     0.292 C 
HETATM   30  C9    D T3000      39.435  24.722  -2.427  1.00 59.17     0.063 C 
ENDBRANCH  23  25
ENDBRANCH   7  20
TORSDOF 5
ENDMDL
MODEL 7
REMARK VINA RESULT:    -6.605      5.868      9.129
REMARK INTER + INTRA:          -9.841
REMARK INTER:                  -8.734
REMARK INTRA:                  -1.108
REMARK UNBOUND:                -1.306
REMARK  5 active torsions:
REMARK  status: ('A' for Active; 'I' for Inactive)
REMARK    1  A    between atoms: C17_7  and  C21_10 
REMARK    2  A    between atoms: C21_10  and  O27_12 
REMARK    3  A    between atoms: O27_12  and  C15_13 
REMARK    4  A    between atoms: C14_19  and  C16_20 
REMARK    5  A    between atoms: N26_23  and  C20_25 
ROOT
HETATM    1  C15   D T3000      45.378  24.829  -3.411  1.00 38.99     0.125 A 
HETATM    2  C4    D T3000      45.320  23.930  -2.298  1.00 40.94     0.029 A 
HETATM    3  C19   D T3000      44.249  24.789  -4.301  1.00 37.27     0.173 A 
HETATM    4  N22   D T3000      44.211  25.645  -5.420  1.00 36.61    -0.078 NA
HETATM    5  N23   D T3000      43.173  23.959  -4.128  1.00 37.98    -0.228 NA
HETATM    6  C5    D T3000      43.163  23.110  -3.047  1.00 40.12     0.100 A 
HETATM    7  C14   D T3000      44.221  23.053  -2.090  1.00 40.87     0.024 A 
ENDROOT
BRANCH   1   8
HETATM    8  O27   D T3000      46.437  25.721  -3.637  1.00 42.27    -0.326 OA
BRANCH   8   9
HETATM    9  C21   D T3000      47.835  25.520  -3.166  1.00 47.98     0.145 C 
HETATM   10  C1    D T3000      48.623  26.783  -3.578  1.00 44.93     0.038 C 
BRANCH   9  11
HETATM   11  C17   D T3000      48.542  24.219  -3.726  1.00 51.22     0.029 A 
HETATM   12  C13   D T3000      49.364  23.398  -2.846  1.00 51.61     0.057 A 
HETATM   13 CL     D T3000      49.625  23.761  -1.175  1.00 53.92    -0.083 Cl
HETATM   14  C3    D T3000      50.008  22.224  -3.344  1.00 51.64     0.013 A 
HETATM   15  C2    D T3000      49.868  21.836  -4.695  1.00 51.88     0.031 A 
HETATM   16  C12   D T3000      49.080  22.608  -5.587  1.00 53.21     0.150 A 
HETATM   17  F     D T3000      48.969  22.211  -6.867  1.00 51.93    -0.203 F 
HETATM   18  C18   D T3000      48.413  23.795  -5.124  1.00 53.17     0.084 A 
HETATM   19 CL2    D T3000      47.468  24.667  -6.309  1.00 65.44    -0.080 Cl
ENDBRANCH   9  11
ENDBRANCH   8   9
ENDBRANCH   1   8
BRANCH   7  20
HETATM   20  C16   D T3000      44.239  22.128  -0.891  1.00 44.81     0.041 A 
HETATM   21  C6    D T3000      45.081  20.964  -0.611  1.00 45.20     0.122 A 
HETATM   22  N24   D T3000      44.737  20.481   0.540  1.00 48.48    -0.168 NA
HETATM   23  N26   D T3000      43.773  21.193   1.033  1.00 52.17    -0.252 N 
HETATM   24  C7    D T3000      43.409  22.232   0.206  1.00 48.89     0.097 A 
BRANCH  23  25
HETATM   25  C20   D T3000      43.110  20.959   2.334  1.00 57.73     0.110 C 
HETATM   26  C8    D T3000      43.219  19.456   2.709  1.00 60.56     0.063 C 
HETATM   27  C10   D T3000      42.531  19.210   4.072  1.00 62.17     0.292 C 
HETATM   28  N25   D T3000      41.127  19.714   4.108  1.00 62.01     0.339 N 
HETATM   29  C11   D T3000      41.006  21.147   3.698  1.00 60.06     0.292 C 
HETATM   30  C9    D T3000      41.634  21.413   2.309  1.00 59.17     0.063 C 
ENDBRANCH  23  25
ENDBRANCH   7  20
TORSDOF 5
ENDMDL
MODEL 8
REMARK VINA RESULT:    -6.601      2.051      2.784
REMARK INTER + INTRA:          -9.836
REMARK INTER:                  -8.783
REMARK INTRA:                  -1.054
REMARK UNBOUND:                -1.306
REMARK  5 active torsions:
REMARK  status: ('A' for Active; 'I' for Inactive)
REMARK    1  A    between atoms: C17_7  and  C21_10 
REMARK    2  A    between atoms: C21_10  and  O27_12 
REMARK    3  A    between atoms: O27_12  and  C15_13 
REMARK    4  A    between atoms: C14_19  and  C16_20 
REMARK    5  A    between atoms: N26_23  and  C20_25 
ROOT
HETATM    1  C15   D T3000      45.057  22.259   3.702  1.00 38.99     0.125 A 
HETATM    2  C4    D T3000      44.492  22.935   2.572  1.00 40.94     0.029 A 
HETATM    3  C19   D T3000      46.206  22.890   4.292  1.00 37.27     0.173 A 
HETATM    4  N22   D T3000      46.825  22.303   5.415  1.00 36.61    -0.078 NA
HETATM    5  N23   D T3000      46.752  24.059   3.833  1.00 37.98    -0.228 NA
HETATM    6  C5    D T3000      46.179  24.671   2.744  1.00 40.12     0.100 A 
HETATM    7  C14   D T3000      45.035  24.147   2.068  1.00 40.87     0.024 A 
ENDROOT
BRANCH   1   8
HETATM    8  O27   D T3000      44.537  21.071   4.238  1.00 42.27    -0.326 OA
BRANCH   8   9
HETATM    9  C21   D T3000      43.340  20.988   5.120  1.00 47.98     0.145 C 
HETATM   10  C1    D T3000      43.574  19.789   6.064  1.00 44.93     0.038 C 
BRANCH   9  11
HETATM   11  C17   D T3000      41.963  20.829   4.354  1.00 51.22     0.029 A 
HETATM   12  C13   D T3000      41.793  19.766   3.372  1.00 51.61     0.057 A 
HETATM   13 CL     D T3000      43.034  18.629   2.975  1.00 53.92    -0.083 Cl
HETATM   14  C3    D T3000      40.555  19.618   2.674  1.00 51.64     0.013 A 
HETATM   15  C2    D T3000      39.474  20.495   2.915  1.00 51.88     0.031 A 
HETATM   16  C12   D T3000      39.599  21.545   3.862  1.00 53.21     0.150 A 
HETATM   17  F     D T3000      38.551  22.363   4.065  1.00 51.93    -0.203 F 
HETATM   18  C18   D T3000      40.827  21.727   4.587  1.00 53.17     0.084 A 
HETATM   19 CL2    D T3000      40.867  23.051   5.728  1.00 65.44    -0.080 Cl
ENDBRANCH   9  11
ENDBRANCH   8   9
ENDBRANCH   1   8
BRANCH   7  20
HETATM   20  C16   D T3000      44.383  24.798   0.865  1.00 44.81     0.041 A 
HETATM   21  C6    D T3000      44.600  24.568  -0.564  1.00 45.20     0.122 A 
HETATM   22  N24   D T3000      43.816  25.358  -1.226  1.00 48.48    -0.168 NA
HETATM   23  N26   D T3000      43.123  26.070  -0.394  1.00 52.17    -0.252 N 
HETATM   24  C7    D T3000      43.417  25.781   0.919  1.00 48.89     0.097 A 
BRANCH  23  25
HETATM   25  C20   D T3000      42.116  27.087  -0.766  1.00 57.73     0.110 C 
HETATM   26  C8    D T3000      41.595  26.802  -2.200  1.00 60.56     0.063 C 
HETATM   27  C10   D T3000      40.537  27.861  -2.588  1.00 62.17     0.292 C 
HETATM   28  N25   D T3000      41.034  29.259  -2.422  1.00 62.01     0.339 N 
HETATM   29  C11   D T3000      41.587  29.528  -1.059  1.00 60.06     0.292 C 
HETATM   30  C9    D T3000      42.691  28.518  -0.665  1.00 59.17     0.063 C 
ENDBRANCH  23  25
ENDBRANCH   7  20
TORSDOF 5
ENDMDL
MODEL 9
REMARK VINA RESULT:    -6.489      5.663      8.895
REMARK INTER + INTRA:          -9.691
REMARK INTER:                  -8.630
REMARK INTRA:                  -1.061
REMARK UNBOUND:                -1.306
REMARK  5 active torsions:
REMARK  status: ('A' for Active; 'I' for Inactive)
REMARK    1  A    between atoms: C17_7  and  C21_10 
REMARK    2  A    between atoms: C21_10  and  O27_12 
REMARK    3  A    between atoms: O27_12  and  C15_13 
REMARK    4  A    between atoms: C14_19  and  C16_20 
REMARK    5  A    between atoms: N26_23  and  C20_25 
ROOT
HETATM    1  C15   D T3000      45.147  24.620  -3.343  1.00 38.99     0.125 A 
HETATM    2  C4    D T3000      44.917  23.963  -2.091  1.00 40.94     0.029 A 
HETATM    3  C19   D T3000      44.118  24.448  -4.332  1.00 37.27     0.173 A 
HETATM    4  N22   D T3000      44.251  25.066  -5.593  1.00 36.61    -0.078 NA
HETATM    5  N23   D T3000      42.982  23.711  -4.128  1.00 37.98    -0.228 NA
HETATM    6  C5    D T3000      42.805  23.095  -2.912  1.00 40.12     0.100 A 
HETATM    7  C14   D T3000      43.751  23.188  -1.847  1.00 40.87     0.024 A 
ENDROOT
BRANCH   1   8
HETATM    8  O27   D T3000      46.276  25.408  -3.613  1.00 42.27    -0.326 OA
BRANCH   8   9
HETATM    9  C21   D T3000      47.658  25.102  -3.149  1.00 47.98     0.145 C 
HETATM   10  C1    D T3000      48.495  26.376  -3.396  1.00 44.93     0.038 C 
BRANCH   9  11
HETATM   11  C17   D T3000      48.331  23.852  -3.852  1.00 51.22     0.029 A 
HETATM   12  C13   D T3000      48.324  23.742  -5.305  1.00 51.61     0.057 A 
HETATM   13 CL     D T3000      47.609  24.923  -6.347  1.00 53.92    -0.083 Cl
HETATM   14  C3    D T3000      48.925  22.616  -5.947  1.00 51.64     0.013 A 
HETATM   15  C2    D T3000      49.534  21.588  -5.193  1.00 51.88     0.031 A 
HETATM   16  C12   D T3000      49.559  21.655  -3.776  1.00 53.21     0.150 A 
HETATM   17  F     D T3000      50.145  20.658  -3.090  1.00 51.93    -0.203 F 
HETATM   18  C18   D T3000      48.968  22.772  -3.092  1.00 53.17     0.084 A 
HETATM   19 CL2    D T3000      49.059  22.751  -1.346  1.00 65.44    -0.080 Cl
ENDBRANCH   9  11
ENDBRANCH   8   9
ENDBRANCH   1   8
BRANCH   7  20
HETATM   20  C16   D T3000      43.585  22.519  -0.498  1.00 44.81     0.041 A 
HETATM   21  C6    D T3000      44.377  21.462   0.133  1.00 45.20     0.122 A 
HETATM   22  N24   D T3000      43.860  21.205   1.293  1.00 48.48    -0.168 NA
HETATM   23  N26   D T3000      42.830  21.968   1.482  1.00 52.17    -0.252 N 
HETATM   24  C7    D T3000      42.596  22.810   0.418  1.00 48.89     0.097 A 
BRANCH  23  25
HETATM   25  C20   D T3000      41.974  21.973   2.688  1.00 57.73     0.110 C 
HETATM   26  C8    D T3000      40.872  20.888   2.547  1.00 60.56     0.063 C 
HETATM   27  C10   D T3000      39.980  20.889   3.811  1.00 62.17     0.292 C 
HETATM   28  N25   D T3000      39.425  22.239   4.123  1.00 62.01     0.339 N 
HETATM   29  C11   D T3000      40.474  23.300   4.208  1.00 60.06     0.292 C 
HETATM   30  C9    D T3000      41.348  23.364   2.933  1.00 59.17     0.063 C 
ENDBRANCH  23  25
ENDBRANCH   7  20
TORSDOF 5
ENDMDL
