MODEL 1
REMARK VINA RESULT:    -8.358      0.000      0.000
REMARK INTER + INTRA:         -11.934
REMARK INTER:                 -10.801
REMARK INTRA:                  -1.133
REMARK UNBOUND:                -1.133
REMARK  5 active torsions:
REMARK  status: ('A' for Active; 'I' for Inactive)
REMARK    1  A    between atoms: C17_7  and  C21_10 
REMARK    2  A    between atoms: C21_10  and  O27_12 
REMARK    3  A    between atoms: O27_12  and  C15_13 
REMARK    4  A    between atoms: C14_19  and  C16_20 
REMARK    5  A    between atoms: N26_23  and  C20_25 
ROOT
HETATM    1  C15   D T3000       0.506   6.910   6.443  1.00 38.99     0.125 A 
HETATM    2  C4    D T3000       1.249   6.288   7.498  1.00 40.94     0.029 A 
HETATM    3  C19   D T3000      -0.785   6.335   6.169  1.00 37.27     0.173 A 
HETATM    4  N22   D T3000      -1.593   6.886   5.154  1.00 36.61    -0.078 NA
HETATM    5  N23   D T3000      -1.300   5.265   6.849  1.00 37.98    -0.228 NA
HETATM    6  C5    D T3000      -0.550   4.696   7.853  1.00 40.12     0.100 A 
HETATM    7  C14   D T3000       0.745   5.173   8.222  1.00 40.87     0.024 A 
ENDROOT
BRANCH   1   8
HETATM    8  O27   D T3000       0.962   8.021   5.720  1.00 42.27    -0.326 OA
BRANCH   8   9
HETATM    9  C21   D T3000       2.100   8.893   6.127  1.00 47.98     0.145 C 
HETATM   10  C1    D T3000       1.717  10.332   5.717  1.00 44.93     0.038 C 
BRANCH   9  11
HETATM   11  C17   D T3000       3.497   8.492   5.500  1.00 51.22     0.029 A 
HETATM   12  C13   D T3000       4.565   7.994   6.359  1.00 51.61     0.057 A 
HETATM   13 CL     D T3000       4.402   7.805   8.071  1.00 53.92    -0.083 Cl
HETATM   14  C3    D T3000       5.831   7.634   5.803  1.00 51.64     0.013 A 
HETATM   15  C2    D T3000       6.078   7.752   4.417  1.00 51.88     0.031 A 
HETATM   16  C12   D T3000       5.065   8.236   3.546  1.00 53.21     0.150 A 
HETATM   17  F     D T3000       5.334   8.339   2.233  1.00 51.93    -0.203 F 
HETATM   18  C18   D T3000       3.778   8.607   4.066  1.00 53.17     0.084 A 
HETATM   19 CL2    D T3000       2.608   9.188   2.903  1.00 65.44    -0.080 Cl
ENDBRANCH   9  11
ENDBRANCH   8   9
ENDBRANCH   1   8
BRANCH   7  20
HETATM   20  C16   D T3000       1.595   4.568   9.320  1.00 44.81     0.041 A 
HETATM   21  C6    D T3000       1.278   3.515  10.284  1.00 45.20     0.122 A 
HETATM   22  N24   D T3000       2.316   3.326  11.036  1.00 48.48    -0.168 NA
HETATM   23  N26   D T3000       3.261   4.135  10.673  1.00 52.17    -0.252 N 
HETATM   24  C7    D T3000       2.892   4.936   9.616  1.00 48.89     0.097 A 
BRANCH  23  25
HETATM   25  C20   D T3000       4.602   4.222  11.290  1.00 57.73     0.110 C 
HETATM   26  C8    D T3000       5.685   3.899  10.226  1.00 60.56     0.063 C 
HETATM   27  C10   D T3000       7.089   3.993  10.868  1.00 62.17     0.292 C 
HETATM   28  N25   D T3000       7.218   3.156  12.096  1.00 62.01     0.339 N 
HETATM   29  C11   D T3000       6.147   3.423  13.105  1.00 60.06     0.292 C 
HETATM   30  C9    D T3000       4.728   3.278  12.507  1.00 59.17     0.063 C 
ENDBRANCH  23  25
ENDBRANCH   7  20
TORSDOF 5
ENDMDL
MODEL 2
REMARK VINA RESULT:    -8.323      5.305     10.549
REMARK INTER + INTRA:         -11.889
REMARK INTER:                 -11.230
REMARK INTRA:                  -0.659
REMARK UNBOUND:                -1.133
REMARK  5 active torsions:
REMARK  status: ('A' for Active; 'I' for Inactive)
REMARK    1  A    between atoms: C17_7  and  C21_10 
REMARK    2  A    between atoms: C21_10  and  O27_12 
REMARK    3  A    between atoms: O27_12  and  C15_13 
REMARK    4  A    between atoms: C14_19  and  C16_20 
REMARK    5  A    between atoms: N26_23  and  C20_25 
ROOT
HETATM    1  C15   D T3000       3.418   8.714   4.608  1.00 38.99     0.125 A 
HETATM    2  C4    D T3000       3.178   9.598   3.506  1.00 40.94     0.029 A 
HETATM    3  C19   D T3000       4.673   8.011   4.578  1.00 37.27     0.173 A 
HETATM    4  N22   D T3000       5.000   7.125   5.625  1.00 36.61    -0.078 NA
HETATM    5  N23   D T3000       5.599   8.150   3.580  1.00 37.98    -0.228 NA
HETATM    6  C5    D T3000       5.325   9.008   2.540  1.00 40.12     0.100 A 
HETATM    7  C14   D T3000       4.117   9.764   2.451  1.00 40.87     0.024 A 
ENDROOT
BRANCH   1   8
HETATM    8  O27   D T3000       2.524   8.539   5.673  1.00 42.27    -0.326 OA
BRANCH   8   9
HETATM    9  C21   D T3000       1.071   8.243   5.527  1.00 47.98     0.145 C 
HETATM   10  C1    D T3000       0.323   9.565   5.809  1.00 44.93     0.038 C 
BRANCH   9  11
HETATM   11  C17   D T3000       0.533   7.090   6.469  1.00 51.22     0.029 A 
HETATM   12  C13   D T3000      -0.696   6.383   6.128  1.00 51.61     0.057 A 
HETATM   13 CL     D T3000      -1.634   6.730   4.715  1.00 53.92    -0.083 Cl
HETATM   14  C3    D T3000      -1.191   5.344   6.974  1.00 51.64     0.013 A 
HETATM   15  C2    D T3000      -0.508   4.981   8.156  1.00 51.88     0.031 A 
HETATM   16  C12   D T3000       0.691   5.646   8.526  1.00 53.21     0.150 A 
HETATM   17  F     D T3000       1.314   5.276   9.659  1.00 51.93    -0.203 F 
HETATM   18  C18   D T3000       1.223   6.695   7.701  1.00 53.17     0.084 A 
HETATM   19 CL2    D T3000       2.704   7.444   8.253  1.00 65.44    -0.080 Cl
ENDBRANCH   9  11
ENDBRANCH   8   9
ENDBRANCH   1   8
BRANCH   7  20
HETATM   20  C16   D T3000       3.787  10.714   1.319  1.00 44.81     0.041 A 
HETATM   21  C6    D T3000       4.629  11.697   0.638  1.00 45.20     0.122 A 
HETATM   22  N24   D T3000       3.917  12.283  -0.271  1.00 48.48    -0.168 NA
HETATM   23  N26   D T3000       2.716  11.797  -0.254  1.00 52.17    -0.252 N 
HETATM   24  C7    D T3000       2.556  10.820   0.703  1.00 48.89     0.097 A 
BRANCH  23  25
HETATM   25  C20   D T3000       1.609  12.208  -1.144  1.00 57.73     0.110 C 
HETATM   26  C8    D T3000       2.108  13.310  -2.117  1.00 60.56     0.063 C 
HETATM   27  C10   D T3000       0.952  13.739  -3.052  1.00 62.17     0.292 C 
HETATM   28  N25   D T3000      -0.274  14.142  -2.303  1.00 62.01     0.339 N 
HETATM   29  C11   D T3000      -0.732  13.108  -1.325  1.00 60.06     0.292 C 
HETATM   30  C9    D T3000       0.386  12.701  -0.336  1.00 59.17     0.063 C 
ENDBRANCH  23  25
ENDBRANCH   7  20
TORSDOF 5
ENDMDL
MODEL 3
REMARK VINA RESULT:    -8.164      0.834      1.906
REMARK INTER + INTRA:         -11.683
REMARK INTER:                 -10.594
REMARK INTRA:                  -1.089
REMARK UNBOUND:                -1.133
REMARK  5 active torsions:
REMARK  status: ('A' for Active; 'I' for Inactive)
REMARK    1  A    between atoms: C17_7  and  C21_10 
REMARK    2  A    between atoms: C21_10  and  O27_12 
REMARK    3  A    between atoms: O27_12  and  C15_13 
REMARK    4  A    between atoms: C14_19  and  C16_20 
REMARK    5  A    between atoms: N26_23  and  C20_25 
ROOT
HETATM    1  C15   D T3000       0.574   6.954   6.418  1.00 38.99     0.125 A 
HETATM    2  C4    D T3000       1.323   6.327   7.466  1.00 40.94     0.029 A 
HETATM    3  C19   D T3000      -0.734   6.406   6.177  1.00 37.27     0.173 A 
HETATM    4  N22   D T3000      -1.549   6.964   5.170  1.00 36.61    -0.078 NA
HETATM    5  N23   D T3000      -1.261   5.356   6.879  1.00 37.98    -0.228 NA
HETATM    6  C5    D T3000      -0.504   4.782   7.875  1.00 40.12     0.100 A 
HETATM    7  C14   D T3000       0.808   5.232   8.213  1.00 40.87     0.024 A 
ENDROOT
BRANCH   1   8
HETATM    8  O27   D T3000       1.042   8.045   5.673  1.00 42.27    -0.326 OA
BRANCH   8   9
HETATM    9  C21   D T3000       2.201   8.902   6.053  1.00 47.98     0.145 C 
HETATM   10  C1    D T3000       1.828  10.346   5.652  1.00 44.93     0.038 C 
BRANCH   9  11
HETATM   11  C17   D T3000       3.578   8.482   5.395  1.00 51.22     0.029 A 
HETATM   12  C13   D T3000       3.766   8.606   3.955  1.00 51.61     0.057 A 
HETATM   13 CL     D T3000       2.546   9.204   2.883  1.00 53.92    -0.083 Cl
HETATM   14  C3    D T3000       5.004   8.226   3.351  1.00 51.64     0.013 A 
HETATM   15  C2    D T3000       6.068   7.721   4.131  1.00 51.88     0.031 A 
HETATM   16  C12   D T3000       5.926   7.580   5.536  1.00 53.21     0.150 A 
HETATM   17  F     D T3000       6.958   7.094   6.248  1.00 51.93    -0.203 F 
HETATM   18  C18   D T3000       4.697   7.954   6.182  1.00 53.17     0.084 A 
HETATM   19 CL2    D T3000       4.633   7.739   7.916  1.00 65.44    -0.080 Cl
ENDBRANCH   9  11
ENDBRANCH   8   9
ENDBRANCH   1   8
BRANCH   7  20
HETATM   20  C16   D T3000       1.665   4.621   9.302  1.00 44.81     0.041 A 
HETATM   21  C6    D T3000       1.351   3.567  10.267  1.00 45.20     0.122 A 
HETATM   22  N24   D T3000       2.395   3.371  11.008  1.00 48.48    -0.168 NA
HETATM   23  N26   D T3000       3.341   4.175  10.638  1.00 52.17    -0.252 N 
HETATM   24  C7    D T3000       2.966   4.981   9.587  1.00 48.89     0.097 A 
BRANCH  23  25
HETATM   25  C20   D T3000       4.688   4.253  11.243  1.00 57.73     0.110 C 
HETATM   26  C8    D T3000       5.758   3.913  10.171  1.00 60.56     0.063 C 
HETATM   27  C10   D T3000       7.169   3.999  10.800  1.00 62.17     0.292 C 
HETATM   28  N25   D T3000       7.301   3.168  12.033  1.00 62.01     0.339 N 
HETATM   29  C11   D T3000       6.242   3.452  13.050  1.00 60.06     0.292 C 
HETATM   30  C9    D T3000       4.816   3.316  12.465  1.00 59.17     0.063 C 
ENDBRANCH  23  25
ENDBRANCH   7  20
TORSDOF 5
ENDMDL
MODEL 4
REMARK VINA RESULT:    -8.104      5.005     10.171
REMARK INTER + INTRA:         -11.606
REMARK INTER:                 -10.707
REMARK INTRA:                  -0.899
REMARK UNBOUND:                -1.133
REMARK  5 active torsions:
REMARK  status: ('A' for Active; 'I' for Inactive)
REMARK    1  A    between atoms: C17_7  and  C21_10 
REMARK    2  A    between atoms: C21_10  and  O27_12 
REMARK    3  A    between atoms: O27_12  and  C15_13 
REMARK    4  A    between atoms: C14_19  and  C16_20 
REMARK    5  A    between atoms: N26_23  and  C20_25 
ROOT
HETATM    1  C15   D T3000       4.918   7.737   5.006  1.00 38.99     0.125 A 
HETATM    2  C4    D T3000       4.671   8.613   3.899  1.00 40.94     0.029 A 
HETATM    3  C19   D T3000       6.301   7.423   5.253  1.00 37.27     0.173 A 
HETATM    4  N22   D T3000       6.642   6.576   6.327  1.00 36.61    -0.078 NA
HETATM    5  N23   D T3000       7.336   7.907   4.501  1.00 37.98    -0.228 NA
HETATM    6  C5    D T3000       7.052   8.743   3.445  1.00 40.12     0.100 A 
HETATM    7  C14   D T3000       5.723   9.131   3.096  1.00 40.87     0.024 A 
ENDROOT
BRANCH   1   8
HETATM    8  O27   D T3000       3.908   7.222   5.830  1.00 42.27    -0.326 OA
BRANCH   8   9
HETATM    9  C21   D T3000       2.720   7.987   6.302  1.00 47.98     0.145 C 
HETATM   10  C1    D T3000       3.255   9.092   7.240  1.00 44.93     0.038 C 
BRANCH   9  11
HETATM   11  C17   D T3000       1.623   7.117   7.041  1.00 51.22     0.029 A 
HETATM   12  C13   D T3000       0.250   7.107   6.553  1.00 51.61     0.057 A 
HETATM   13 CL     D T3000      -0.278   8.011   5.175  1.00 53.92    -0.083 Cl
HETATM   14  C3    D T3000      -0.748   6.328   7.216  1.00 51.64     0.013 A 
HETATM   15  C2    D T3000      -0.429   5.555   8.354  1.00 51.88     0.031 A 
HETATM   16  C12   D T3000       0.896   5.539   8.864  1.00 53.21     0.150 A 
HETATM   17  F     D T3000       1.164   4.794   9.951  1.00 51.93    -0.203 F 
HETATM   18  C18   D T3000       1.929   6.307   8.225  1.00 53.17     0.084 A 
HETATM   19 CL2    D T3000       3.523   6.212   8.938  1.00 65.44    -0.080 Cl
ENDBRANCH   9  11
ENDBRANCH   8   9
ENDBRANCH   1   8
BRANCH   7  20
HETATM   20  C16   D T3000       5.379  10.047   1.939  1.00 44.81     0.041 A 
HETATM   21  C6    D T3000       6.251  10.701   0.964  1.00 45.20     0.122 A 
HETATM   22  N24   D T3000       5.511  11.392   0.157  1.00 48.48    -0.168 NA
HETATM   23  N26   D T3000       4.268  11.264   0.498  1.00 52.17    -0.252 N 
HETATM   24  C7    D T3000       4.104  10.446   1.593  1.00 48.89     0.097 A 
BRANCH  23  25
HETATM   25  C20   D T3000       3.120  11.900  -0.183  1.00 57.73     0.110 C 
HETATM   26  C8    D T3000       2.148  10.803  -0.696  1.00 60.56     0.063 C 
HETATM   27  C10   D T3000       0.943  11.467  -1.404  1.00 62.17     0.292 C 
HETATM   28  N25   D T3000       1.359  12.419  -2.476  1.00 62.01     0.339 N 
HETATM   29  C11   D T3000       2.336  13.447  -2.003  1.00 60.06     0.292 C 
HETATM   30  C9    D T3000       3.582  12.812  -1.342  1.00 59.17     0.063 C 
ENDBRANCH  23  25
ENDBRANCH   7  20
TORSDOF 5
ENDMDL
MODEL 5
REMARK VINA RESULT:    -7.930      2.924      6.881
REMARK INTER + INTRA:         -11.381
REMARK INTER:                 -10.085
REMARK INTRA:                  -1.295
REMARK UNBOUND:                -1.133
REMARK  5 active torsions:
REMARK  status: ('A' for Active; 'I' for Inactive)
REMARK    1  A    between atoms: C17_7  and  C21_10 
REMARK    2  A    between atoms: C21_10  and  O27_12 
REMARK    3  A    between atoms: O27_12  and  C15_13 
REMARK    4  A    between atoms: C14_19  and  C16_20 
REMARK    5  A    between atoms: N26_23  and  C20_25 
ROOT
HETATM    1  C15   D T3000       6.123   4.433  10.070  1.00 38.99     0.125 A 
HETATM    2  C4    D T3000       4.841   4.770   9.527  1.00 40.94     0.029 A 
HETATM    3  C19   D T3000       6.100   3.712  11.315  1.00 37.27     0.173 A 
HETATM    4  N22   D T3000       7.314   3.329  11.921  1.00 36.61    -0.078 NA
HETATM    5  N23   D T3000       4.951   3.357  11.967  1.00 37.98    -0.228 NA
HETATM    6  C5    D T3000       3.741   3.704  11.410  1.00 40.12     0.100 A 
HETATM    7  C14   D T3000       3.628   4.419  10.180  1.00 40.87     0.024 A 
ENDROOT
BRANCH   1   8
HETATM    8  O27   D T3000       7.339   4.746   9.446  1.00 42.27    -0.326 OA
BRANCH   8   9
HETATM    9  C21   D T3000       7.481   5.183   8.028  1.00 47.98     0.145 C 
HETATM   10  C1    D T3000       8.922   4.824   7.602  1.00 44.93     0.038 C 
BRANCH   9  11
HETATM   11  C17   D T3000       7.195   6.719   7.777  1.00 51.22     0.029 A 
HETATM   12  C13   D T3000       6.316   7.129   6.689  1.00 51.61     0.057 A 
HETATM   13 CL     D T3000       5.537   6.012   5.622  1.00 53.92    -0.083 Cl
HETATM   14  C3    D T3000       6.055   8.514   6.452  1.00 51.64     0.013 A 
HETATM   15  C2    D T3000       6.642   9.513   7.260  1.00 51.88     0.031 A 
HETATM   16  C12   D T3000       7.508   9.157   8.328  1.00 53.21     0.150 A 
HETATM   17  F     D T3000       8.051  10.134   9.075  1.00 51.93    -0.203 F 
HETATM   18  C18   D T3000       7.793   7.775   8.600  1.00 53.17     0.084 A 
HETATM   19 CL2    D T3000       8.871   7.453   9.939  1.00 65.44    -0.080 Cl
ENDBRANCH   9  11
ENDBRANCH   8   9
ENDBRANCH   1   8
BRANCH   7  20
HETATM   20  C16   D T3000       2.312   4.817   9.544  1.00 44.81     0.041 A 
HETATM   21  C6    D T3000       0.969   4.270   9.735  1.00 45.20     0.122 A 
HETATM   22  N24   D T3000       0.150   4.927   8.978  1.00 48.48    -0.168 NA
HETATM   23  N26   D T3000       0.806   5.829   8.318  1.00 52.17    -0.252 N 
HETATM   24  C7    D T3000       2.150   5.825   8.614  1.00 48.89     0.097 A 
BRANCH  23  25
HETATM   25  C20   D T3000       0.221   6.781   7.350  1.00 57.73     0.110 C 
HETATM   26  C8    D T3000      -0.771   6.033   6.420  1.00 60.56     0.063 C 
HETATM   27  C10   D T3000      -1.388   7.028   5.409  1.00 62.17     0.292 C 
HETATM   28  N25   D T3000      -0.354   7.795   4.654  1.00 62.01     0.339 N 
HETATM   29  C11   D T3000       0.637   8.477   5.541  1.00 60.06     0.292 C 
HETATM   30  C9    D T3000       1.316   7.495   6.525  1.00 59.17     0.063 C 
ENDBRANCH  23  25
ENDBRANCH   7  20
TORSDOF 5
ENDMDL
MODEL 6
REMARK VINA RESULT:    -7.873      3.941      8.330
REMARK INTER + INTRA:         -11.306
REMARK INTER:                 -10.457
REMARK INTRA:                  -0.850
REMARK UNBOUND:                -1.133
REMARK  5 active torsions:
REMARK  status: ('A' for Active; 'I' for Inactive)
REMARK    1  A    between atoms: C17_7  and  C21_10 
REMARK    2  A    between atoms: C21_10  and  O27_12 
REMARK    3  A    between atoms: O27_12  and  C15_13 
REMARK    4  A    between atoms: C14_19  and  C16_20 
REMARK    5  A    between atoms: N26_23  and  C20_25 
ROOT
HETATM    1  C15   D T3000       4.346   5.691   7.517  1.00 38.99     0.125 A 
HETATM    2  C4    D T3000       4.612   6.527   6.385  1.00 40.94     0.029 A 
HETATM    3  C19   D T3000       5.502   5.272   8.265  1.00 37.27     0.173 A 
HETATM    4  N22   D T3000       5.339   4.455   9.402  1.00 36.61    -0.078 NA
HETATM    5  N23   D T3000       6.784   5.628   7.945  1.00 37.98    -0.228 NA
HETATM    6  C5    D T3000       6.993   6.430   6.847  1.00 40.12     0.100 A 
HETATM    7  C14   D T3000       5.932   6.912   6.023  1.00 40.87     0.024 A 
ENDROOT
BRANCH   1   8
HETATM    8  O27   D T3000       3.059   5.306   7.915  1.00 42.27    -0.326 OA
BRANCH   8   9
HETATM    9  C21   D T3000       1.976   6.246   8.321  1.00 47.98     0.145 C 
HETATM   10  C1    D T3000       1.276   5.606   9.541  1.00 44.93     0.038 C 
BRANCH   9  11
HETATM   11  C17   D T3000       0.922   6.571   7.185  1.00 51.22     0.029 A 
HETATM   12  C13   D T3000       1.055   7.789   6.395  1.00 51.61     0.057 A 
HETATM   13 CL     D T3000       2.329   8.938   6.621  1.00 53.92    -0.083 Cl
HETATM   14  C3    D T3000       0.106   8.093   5.371  1.00 51.64     0.013 A 
HETATM   15  C2    D T3000      -0.978   7.228   5.103  1.00 51.88     0.031 A 
HETATM   16  C12   D T3000      -1.146   6.033   5.852  1.00 53.21     0.150 A 
HETATM   17  F     D T3000      -2.190   5.234   5.572  1.00 51.93    -0.203 F 
HETATM   18  C18   D T3000      -0.212   5.690   6.889  1.00 53.17     0.084 A 
HETATM   19 CL2    D T3000      -0.516   4.196   7.745  1.00 65.44    -0.080 Cl
ENDBRANCH   9  11
ENDBRANCH   8   9
ENDBRANCH   1   8
BRANCH   7  20
HETATM   20  C16   D T3000       6.130   7.794   4.807  1.00 44.81     0.041 A 
HETATM   21  C6    D T3000       7.362   8.212   4.137  1.00 45.20     0.122 A 
HETATM   22  N24   D T3000       7.043   8.969   3.136  1.00 48.48    -0.168 NA
HETATM   23  N26   D T3000       5.754   9.091   3.084  1.00 52.17    -0.252 N 
HETATM   24  C7    D T3000       5.118   8.393   4.085  1.00 48.89     0.097 A 
BRANCH  23  25
HETATM   25  C20   D T3000       5.005   9.877   2.080  1.00 57.73     0.110 C 
HETATM   26  C8    D T3000       5.456  11.361   2.140  1.00 60.56     0.063 C 
HETATM   27  C10   D T3000       4.677  12.184   1.088  1.00 62.17     0.292 C 
HETATM   28  N25   D T3000       3.198  12.024   1.212  1.00 62.01     0.339 N 
HETATM   29  C11   D T3000       2.759  10.595   1.208  1.00 60.06     0.292 C 
HETATM   30  C9    D T3000       3.478   9.757   2.291  1.00 59.17     0.063 C 
ENDBRANCH  23  25
ENDBRANCH   7  20
TORSDOF 5
ENDMDL
MODEL 7
REMARK VINA RESULT:    -7.871      2.675      6.598
REMARK INTER + INTRA:         -11.304
REMARK INTER:                 -10.070
REMARK INTRA:                  -1.234
REMARK UNBOUND:                -1.133
REMARK  5 active torsions:
REMARK  status: ('A' for Active; 'I' for Inactive)
REMARK    1  A    between atoms: C17_7  and  C21_10 
REMARK    2  A    between atoms: C21_10  and  O27_12 
REMARK    3  A    between atoms: O27_12  and  C15_13 
REMARK    4  A    between atoms: C14_19  and  C16_20 
REMARK    5  A    between atoms: N26_23  and  C20_25 
ROOT
HETATM    1  C15   D T3000       6.242   4.437  10.046  1.00 38.99     0.125 A 
HETATM    2  C4    D T3000       4.956   4.784   9.518  1.00 40.94     0.029 A 
HETATM    3  C19   D T3000       6.227   3.694  11.278  1.00 37.27     0.173 A 
HETATM    4  N22   D T3000       7.445   3.300  11.869  1.00 36.61    -0.078 NA
HETATM    5  N23   D T3000       5.082   3.327  11.931  1.00 37.98    -0.228 NA
HETATM    6  C5    D T3000       3.869   3.684  11.389  1.00 40.12     0.100 A 
HETATM    7  C14   D T3000       3.747   4.421  10.172  1.00 40.87     0.024 A 
ENDROOT
BRANCH   1   8
HETATM    8  O27   D T3000       7.453   4.762   9.420  1.00 42.27    -0.326 OA
BRANCH   8   9
HETATM    9  C21   D T3000       7.590   5.188   7.998  1.00 47.98     0.145 C 
HETATM   10  C1    D T3000       9.035   4.845   7.575  1.00 44.93     0.038 C 
BRANCH   9  11
HETATM   11  C17   D T3000       7.284   6.719   7.734  1.00 51.22     0.029 A 
HETATM   12  C13   D T3000       7.904   7.741   8.569  1.00 51.61     0.057 A 
HETATM   13 CL     D T3000       8.988   7.381   9.869  1.00 53.92    -0.083 Cl
HETATM   14  C3    D T3000       7.631   9.125   8.340  1.00 51.64     0.013 A 
HETATM   15  C2    D T3000       6.756   9.533   7.309  1.00 51.88     0.031 A 
HETATM   16  C12   D T3000       6.129   8.569   6.475  1.00 53.21     0.150 A 
HETATM   17  F     D T3000       5.301   8.992   5.504  1.00 51.93    -0.203 F 
HETATM   18  C18   D T3000       6.380   7.168   6.671  1.00 53.17     0.084 A 
HETATM   19 CL2    D T3000       5.555   6.072   5.586  1.00 65.44    -0.080 Cl
ENDBRANCH   9  11
ENDBRANCH   8   9
ENDBRANCH   1   8
BRANCH   7  20
HETATM   20  C16   D T3000       2.427   4.831   9.552  1.00 44.81     0.041 A 
HETATM   21  C6    D T3000       1.077   4.317   9.784  1.00 45.20     0.122 A 
HETATM   22  N24   D T3000       0.257   4.972   9.026  1.00 48.48    -0.168 NA
HETATM   23  N26   D T3000       0.917   5.843   8.332  1.00 52.17    -0.252 N 
HETATM   24  C7    D T3000       2.267   5.818   8.601  1.00 48.89     0.097 A 
BRANCH  23  25
HETATM   25  C20   D T3000       0.333   6.783   7.351  1.00 57.73     0.110 C 
HETATM   26  C8    D T3000      -0.634   6.016   6.409  1.00 60.56     0.063 C 
HETATM   27  C10   D T3000      -1.250   6.999   5.386  1.00 62.17     0.292 C 
HETATM   28  N25   D T3000      -0.217   7.779   4.643  1.00 62.01     0.339 N 
HETATM   29  C11   D T3000       0.750   8.479   5.543  1.00 60.06     0.292 C 
HETATM   30  C9    D T3000       1.429   7.512   6.540  1.00 59.17     0.063 C 
ENDBRANCH  23  25
ENDBRANCH   7  20
TORSDOF 5
ENDMDL
MODEL 8
REMARK VINA RESULT:    -7.825      3.636      7.807
REMARK INTER + INTRA:         -11.245
REMARK INTER:                 -10.284
REMARK INTRA:                  -0.961
REMARK UNBOUND:                -1.133
REMARK  5 active torsions:
REMARK  status: ('A' for Active; 'I' for Inactive)
REMARK    1  A    between atoms: C17_7  and  C21_10 
REMARK    2  A    between atoms: C21_10  and  O27_12 
REMARK    3  A    between atoms: O27_12  and  C15_13 
REMARK    4  A    between atoms: C14_19  and  C16_20 
REMARK    5  A    between atoms: N26_23  and  C20_25 
ROOT
HETATM    1  C15   D T3000       2.706   5.001   9.466  1.00 38.99     0.125 A 
HETATM    2  C4    D T3000       2.604   6.009   8.454  1.00 40.94     0.029 A 
HETATM    3  C19   D T3000       1.484   4.306   9.775  1.00 37.27     0.173 A 
HETATM    4  N22   D T3000       1.489   3.289  10.752  1.00 36.61    -0.078 NA
HETATM    5  N23   D T3000       0.287   4.565   9.165  1.00 37.98    -0.228 NA
HETATM    6  C5    D T3000       0.235   5.545   8.201  1.00 40.12     0.100 A 
HETATM    7  C14   D T3000       1.376   6.307   7.803  1.00 40.87     0.024 A 
ENDROOT
BRANCH   1   8
HETATM    8  O27   D T3000       3.903   4.668  10.115  1.00 42.27    -0.326 OA
BRANCH   8   9
HETATM    9  C21   D T3000       5.087   4.048   9.456  1.00 47.98     0.145 C 
HETATM   10  C1    D T3000       4.769   2.544   9.308  1.00 44.93     0.038 C 
BRANCH   9  11
HETATM   11  C17   D T3000       6.455   4.253  10.225  1.00 51.22     0.029 A 
HETATM   12  C13   D T3000       7.652   4.647   9.493  1.00 51.61     0.057 A 
HETATM   13 CL     D T3000       7.678   4.917   7.784  1.00 53.92    -0.083 Cl
HETATM   14  C3    D T3000       8.892   4.829  10.179  1.00 51.64     0.013 A 
HETATM   15  C2    D T3000       8.988   4.631  11.574  1.00 51.88     0.031 A 
HETATM   16  C12   D T3000       7.846   4.244  12.325  1.00 53.21     0.150 A 
HETATM   17  F     D T3000       7.974   4.061  13.651  1.00 51.93    -0.203 F 
HETATM   18  C18   D T3000       6.580   4.052  11.673  1.00 53.17     0.084 A 
HETATM   19 CL2    D T3000       5.244   3.576  12.695  1.00 65.44    -0.080 Cl
ENDBRANCH   9  11
ENDBRANCH   8   9
ENDBRANCH   1   8
BRANCH   7  20
HETATM   20  C16   D T3000       1.350   7.392   6.747  1.00 44.81     0.041 A 
HETATM   21  C6    D T3000       0.216   8.085   6.136  1.00 45.20     0.122 A 
HETATM   22  N24   D T3000       0.676   8.939   5.277  1.00 48.48    -0.168 NA
HETATM   23  N26   D T3000       1.970   8.875   5.260  1.00 52.17    -0.252 N 
HETATM   24  C7    D T3000       2.463   7.941   6.143  1.00 48.89     0.097 A 
BRANCH  23  25
HETATM   25  C20   D T3000       2.860   9.695   4.410  1.00 57.73     0.110 C 
HETATM   26  C8    D T3000       2.699   9.267   2.926  1.00 60.56     0.063 C 
HETATM   27  C10   D T3000       3.626  10.127   2.034  1.00 62.17     0.292 C 
HETATM   28  N25   D T3000       5.046  10.104   2.491  1.00 62.01     0.339 N 
HETATM   29  C11   D T3000       5.206  10.464   3.934  1.00 60.06     0.292 C 
HETATM   30  C9    D T3000       4.335   9.581   4.858  1.00 59.17     0.063 C 
ENDBRANCH  23  25
ENDBRANCH   7  20
TORSDOF 5
ENDMDL
MODEL 9
REMARK VINA RESULT:    -7.710      3.924      8.579
REMARK INTER + INTRA:         -11.096
REMARK INTER:                 -10.375
REMARK INTRA:                  -0.721
REMARK UNBOUND:                -1.133
REMARK  5 active torsions:
REMARK  status: ('A' for Active; 'I' for Inactive)
REMARK    1  A    between atoms: C17_7  and  C21_10 
REMARK    2  A    between atoms: C21_10  and  O27_12 
REMARK    3  A    between atoms: O27_12  and  C15_13 
REMARK    4  A    between atoms: C14_19  and  C16_20 
REMARK    5  A    between atoms: N26_23  and  C20_25 
ROOT
HETATM    1  C15   D T3000       4.946   5.787   7.720  1.00 38.99     0.125 A 
HETATM    2  C4    D T3000       5.081   6.633   6.572  1.00 40.94     0.029 A 
HETATM    3  C19   D T3000       6.175   5.437   8.382  1.00 37.27     0.173 A 
HETATM    4  N22   D T3000       6.141   4.614   9.527  1.00 36.61    -0.078 NA
HETATM    5  N23   D T3000       7.408   5.863   7.970  1.00 37.98    -0.228 NA
HETATM    6  C5    D T3000       7.491   6.672   6.860  1.00 40.12     0.100 A 
HETATM    7  C14   D T3000       6.347   7.091   6.115  1.00 40.87     0.024 A 
ENDROOT
BRANCH   1   8
HETATM    8  O27   D T3000       3.714   5.331   8.209  1.00 42.27    -0.326 OA
BRANCH   8   9
HETATM    9  C21   D T3000       2.588   6.210   8.634  1.00 47.98     0.145 C 
HETATM   10  C1    D T3000       2.590   6.208  10.179  1.00 44.93     0.038 C 
BRANCH   9  11
HETATM   11  C17   D T3000       1.169   5.779   8.081  1.00 51.22     0.029 A 
HETATM   12  C13   D T3000       0.487   4.620   8.644  1.00 51.61     0.057 A 
HETATM   13 CL     D T3000       1.146   3.654   9.920  1.00 53.92    -0.083 Cl
HETATM   14  C3    D T3000      -0.793   4.222   8.149  1.00 51.64     0.013 A 
HETATM   15  C2    D T3000      -1.423   4.936   7.105  1.00 51.88     0.031 A 
HETATM   16  C12   D T3000      -0.792   6.069   6.526  1.00 53.21     0.150 A 
HETATM   17  F     D T3000      -1.419   6.723   5.534  1.00 51.93    -0.203 F 
HETATM   18  C18   D T3000       0.494   6.503   6.998  1.00 53.17     0.084 A 
HETATM   19 CL2    D T3000       1.176   7.909   6.214  1.00 65.44    -0.080 Cl
ENDBRANCH   9  11
ENDBRANCH   8   9
ENDBRANCH   1   8
BRANCH   7  20
HETATM   20  C16   D T3000       6.407   7.979   4.890  1.00 44.81     0.041 A 
HETATM   21  C6    D T3000       7.515   8.247   3.973  1.00 45.20     0.122 A 
HETATM   22  N24   D T3000       7.102   9.075   3.067  1.00 48.48    -0.168 NA
HETATM   23  N26   D T3000       5.862   9.374   3.293  1.00 52.17    -0.252 N 
HETATM   24  C7    D T3000       5.359   8.736   4.404  1.00 48.89     0.097 A 
BRANCH  23  25
HETATM   25  C20   D T3000       5.036  10.290   2.477  1.00 57.73     0.110 C 
HETATM   26  C8    D T3000       3.590   9.733   2.374  1.00 60.56     0.063 C 
HETATM   27  C10   D T3000       2.723  10.692   1.524  1.00 62.17     0.292 C 
HETATM   28  N25   D T3000       3.326  10.983   0.191  1.00 62.01     0.339 N 
HETATM   29  C11   D T3000       4.737  11.471   0.277  1.00 60.06     0.292 C 
HETATM   30  C9    D T3000       5.644  10.502   1.072  1.00 59.17     0.063 C 
ENDBRANCH  23  25
ENDBRANCH   7  20
TORSDOF 5
ENDMDL
