MODEL 1
REMARK VINA RESULT:    -9.954      0.000      0.000
REMARK INTER + INTRA:         -14.986
REMARK INTER:                 -14.028
REMARK INTRA:                  -0.958
REMARK UNBOUND:                -0.958
REMARK  14 active torsions:
REMARK  status: ('A' for Active; 'I' for Inactive)
REMARK    1  A    between atoms: N3_2  and  C20_12 
REMARK    2  A    between atoms: C4_3  and  C5_4 
REMARK    3  A    between atoms: C13_9  and  N2_29 
REMARK    4  A    between atoms: C17_11  and  C19_33 
REMARK    5  A    between atoms: C20_12  and  C16_31 
REMARK    6  A    between atoms: C2_23  and  C3_24 
REMARK    7  A    between atoms: C9_25  and  C12_27 
REMARK       I    between atoms: C12_27  and  N2_29 
REMARK    8  A    between atoms: N3_41  and  C20_51 
REMARK    9  A    between atoms: C4_42  and  C5_43 
REMARK   10  A    between atoms: C13_48  and  N2_68 
REMARK   11  A    between atoms: C17_50  and  C19_72 
REMARK   12  A    between atoms: C20_51  and  C16_70 
REMARK   13  A    between atoms: C2_62  and  C3_63 
REMARK   14  A    between atoms: C9_64  and  C12_66 
REMARK       I    between atoms: C12_66  and  N2_68 
ROOT
HETATM    1  C12   D T1000     -13.064   4.219  -4.858  1.00 17.98     0.279 C 
HETATM    2  O1    D T1000     -14.090   4.547  -5.456  1.00 17.01    -0.265 OA
HETATM    3  N2    D T1000     -12.948   4.298  -3.423  1.00 17.28    -0.208 NA
ENDROOT
BRANCH   1   4
HETATM    4  C9    D T1000     -11.965   3.523  -5.646  1.00 17.71     0.059 A 
HETATM    5  C8    D T1000     -10.593   3.752  -5.468  1.00 17.52     0.004 A 
HETATM    6  C7    D T1000      -9.622   2.989  -6.161  1.00 17.00    -0.004 A 
HETATM    7  C6    D T1000      -9.996   1.962  -7.025  1.00 17.97    -0.014 A 
HETATM    8  C5    D T1000     -11.325   1.762  -7.219  1.00 18.43     0.038 A 
HETATM    9  C11   D T1000      -9.016   1.135  -7.786  1.00 16.62     0.032 C 
HETATM   10  C10   D T1000     -12.344   2.497  -6.511  1.00 18.40     0.013 A 
BRANCH   8  11
HETATM   11  C4    D T1000     -11.874   0.701  -8.076  1.00 17.09    -0.058 C 
HETATM   12  C3    D T1000     -12.284  -0.173  -8.700  1.00 17.10    -0.039 C 
BRANCH  12  13
HETATM   13  C2    D T1000     -12.735  -1.324  -9.450  1.00 16.30     0.145 A 
HETATM   14  N82   D T1000     -12.258  -1.930 -10.550  1.00 17.01    -0.203 N 
HETATM   15  N81   D T1000     -11.149  -1.727 -11.292  1.00 17.09    -0.162 NA
HETATM   16  C84   D T1000     -13.163  -2.932 -10.839  1.00 17.67     0.165 A 
HETATM   17  C83   D T1000     -10.929  -2.550 -12.360  1.00 18.49     0.121 A 
HETATM   18  C82   D T1000     -11.780  -3.573 -12.684  1.00 18.11     0.026 A 
HETATM   19  C81   D T1000     -12.908  -3.795 -11.935  1.00 17.49     0.041 A 
HETATM   20  N1    D T1000     -14.173  -2.899  -9.932  1.00 17.94    -0.223 NA
HETATM   21  C1    D T1000     -13.944  -1.914  -9.082  1.00 17.69     0.128 A 
ENDBRANCH  12  13
ENDBRANCH   8  11
ENDBRANCH   1   4
BRANCH   3  22
HETATM   22  C13   D T1000     -13.920   4.762  -2.452  1.00 16.63     0.085 A 
HETATM   23  C14   D T1000     -13.925   6.026  -1.930  1.00 16.52     0.019 A 
HETATM   24  C15   D T1000     -14.835   6.398  -0.930  1.00 16.39    -0.001 A 
HETATM   25  C16   D T1000     -15.750   5.464  -0.430  1.00 15.29     0.015 A 
HETATM   26  C17   D T1000     -15.735   4.167  -0.912  1.00 16.55     0.071 A 
HETATM   27  C18   D T1000     -14.823   3.819  -1.923  1.00 16.28     0.023 A 
BRANCH  25  28
HETATM   28  C20   D T1000     -16.698   5.973   0.669  1.00 14.99     0.277 C 
BRANCH  28  29
HETATM   29  N3    D T1000     -17.998   6.368   0.125  1.00 14.64     0.146 N 
HETATM   30  C21   D T1000     -18.116   7.809   0.006  1.00 14.41     0.286 C 
HETATM   31  C22   D T1000     -19.428   8.121  -0.694  1.00 14.86     0.286 C 
HETATM   32  N4    D T1000     -20.549   7.538   0.002  1.00 14.70     0.143 N 
HETATM   33  C23   D T1000     -20.447   6.096   0.095  1.00 14.86     0.286 C 
HETATM   34  C25   D T1000     -21.845   7.957  -0.557  1.00 15.24     0.285 C 
HETATM   35  C24   D T1000     -19.142   5.762   0.776  1.00 14.88     0.286 C 
ENDBRANCH  28  29
ENDBRANCH  25  28
BRANCH  26  36
HETATM   36  C19   D T1000     -16.740   3.133  -0.425  1.00 17.30     0.419 C 
HETATM   37  F1    D T1000     -17.874   3.223  -1.149  1.00 16.85    -0.166 F 
HETATM   38  F2    D T1000     -17.007   3.247   0.884  1.00 16.63    -0.166 F 
HETATM   39  F3    D T1000     -16.179   1.945  -0.605  1.00 15.75    -0.166 F 
ENDBRANCH  26  36
ENDBRANCH   3  22
TORSDOF 14
ENDMDL
MODEL 2
REMARK VINA RESULT:    -9.834      1.488      1.912
REMARK INTER + INTRA:         -14.816
REMARK INTER:                 -13.786
REMARK INTRA:                  -1.030
REMARK UNBOUND:                -0.958
REMARK  14 active torsions:
REMARK  status: ('A' for Active; 'I' for Inactive)
REMARK    1  A    between atoms: N3_2  and  C20_12 
REMARK    2  A    between atoms: C4_3  and  C5_4 
REMARK    3  A    between atoms: C13_9  and  N2_29 
REMARK    4  A    between atoms: C17_11  and  C19_33 
REMARK    5  A    between atoms: C20_12  and  C16_31 
REMARK    6  A    between atoms: C2_23  and  C3_24 
REMARK    7  A    between atoms: C9_25  and  C12_27 
REMARK       I    between atoms: C12_27  and  N2_29 
REMARK    8  A    between atoms: N3_41  and  C20_51 
REMARK    9  A    between atoms: C4_42  and  C5_43 
REMARK   10  A    between atoms: C13_48  and  N2_68 
REMARK   11  A    between atoms: C17_50  and  C19_72 
REMARK   12  A    between atoms: C20_51  and  C16_70 
REMARK   13  A    between atoms: C2_62  and  C3_63 
REMARK   14  A    between atoms: C9_64  and  C12_66 
REMARK       I    between atoms: C12_66  and  N2_68 
ROOT
HETATM    1  C12   D T1000     -13.147   3.863  -4.628  1.00 17.98     0.279 C 
HETATM    2  O1    D T1000     -14.072   4.519  -5.110  1.00 17.01    -0.265 OA
HETATM    3  N2    D T1000     -13.131   3.453  -3.245  1.00 17.28    -0.208 NA
ENDROOT
BRANCH   1   4
HETATM    4  C9    D T1000     -12.096   3.301  -5.572  1.00 17.71     0.059 A 
HETATM    5  C8    D T1000     -10.735   3.636  -5.536  1.00 17.52     0.004 A 
HETATM    6  C7    D T1000      -9.794   2.993  -6.376  1.00 17.00    -0.004 A 
HETATM    7  C6    D T1000     -10.184   1.980  -7.251  1.00 17.97    -0.014 A 
HETATM    8  C5    D T1000     -11.507   1.679  -7.307  1.00 18.43     0.038 A 
HETATM    9  C11   D T1000      -9.238   1.278  -8.163  1.00 16.62     0.032 C 
HETATM   10  C10   D T1000     -12.492   2.290  -6.448  1.00 18.40     0.013 A 
BRANCH   8  11
HETATM   11  C4    D T1000     -12.067   0.619  -8.157  1.00 17.09    -0.058 C 
HETATM   12  C3    D T1000     -12.461  -0.253  -8.795  1.00 17.10    -0.039 C 
BRANCH  12  13
HETATM   13  C2    D T1000     -12.874  -1.385  -9.595  1.00 16.30     0.145 A 
HETATM   14  N82   D T1000     -12.342  -1.964 -10.684  1.00 17.01    -0.203 N 
HETATM   15  N81   D T1000     -11.196  -1.746 -11.362  1.00 17.09    -0.162 NA
HETATM   16  C84   D T1000     -13.231  -2.957 -11.043  1.00 17.67     0.165 A 
HETATM   17  C83   D T1000     -10.922  -2.542 -12.437  1.00 18.49     0.121 A 
HETATM   18  C82   D T1000     -11.755  -3.556 -12.830  1.00 18.11     0.026 A 
HETATM   19  C81   D T1000     -12.921  -3.793 -12.145  1.00 17.49     0.041 A 
HETATM   20  N1    D T1000     -14.287  -2.944 -10.188  1.00 17.94    -0.223 NA
HETATM   21  C1    D T1000     -14.101  -1.981  -9.305  1.00 17.69     0.128 A 
ENDBRANCH  12  13
ENDBRANCH   8  11
ENDBRANCH   1   4
BRANCH   3  22
HETATM   22  C13   D T1000     -14.102   3.720  -2.202  1.00 16.63     0.085 A 
HETATM   23  C14   D T1000     -15.205   2.945  -1.979  1.00 16.52     0.019 A 
HETATM   24  C15   D T1000     -16.159   3.295  -1.012  1.00 16.39    -0.001 A 
HETATM   25  C16   D T1000     -16.003   4.468  -0.265  1.00 15.29     0.015 A 
HETATM   26  C17   D T1000     -14.916   5.291  -0.503  1.00 16.55     0.071 A 
HETATM   27  C18   D T1000     -13.967   4.915  -1.468  1.00 16.28     0.023 A 
BRANCH  25  28
HETATM   28  C20   D T1000     -17.108   4.763   0.764  1.00 14.99     0.277 C 
BRANCH  28  29
HETATM   29  N3    D T1000     -18.222   5.503   0.166  1.00 14.64     0.146 N 
HETATM   30  C21   D T1000     -18.722   6.534   1.056  1.00 14.41     0.286 C 
HETATM   31  C22   D T1000     -19.772   7.337   0.307  1.00 14.86     0.286 C 
HETATM   32  N4    D T1000     -20.827   6.491  -0.194  1.00 14.70     0.143 N 
HETATM   33  C23   D T1000     -20.332   5.480  -1.106  1.00 14.86     0.286 C 
HETATM   34  C25   D T1000     -21.938   7.257  -0.781  1.00 15.24     0.285 C 
HETATM   35  C24   D T1000     -19.276   4.677  -0.386  1.00 14.88     0.286 C 
ENDBRANCH  28  29
ENDBRANCH  25  28
BRANCH  26  36
HETATM   36  C19   D T1000     -14.689   6.554   0.316  1.00 17.30     0.419 C 
HETATM   37  F1    D T1000     -14.527   6.232   1.615  1.00 16.85    -0.166 F 
HETATM   38  F2    D T1000     -15.676   7.450   0.172  1.00 16.63    -0.166 F 
HETATM   39  F3    D T1000     -13.583   7.115  -0.153  1.00 15.75    -0.166 F 
ENDBRANCH  26  36
ENDBRANCH   3  22
TORSDOF 14
ENDMDL
MODEL 3
REMARK VINA RESULT:    -9.720      1.222      1.945
REMARK INTER + INTRA:         -14.656
REMARK INTER:                 -13.677
REMARK INTRA:                  -0.979
REMARK UNBOUND:                -0.958
REMARK  14 active torsions:
REMARK  status: ('A' for Active; 'I' for Inactive)
REMARK    1  A    between atoms: N3_2  and  C20_12 
REMARK    2  A    between atoms: C4_3  and  C5_4 
REMARK    3  A    between atoms: C13_9  and  N2_29 
REMARK    4  A    between atoms: C17_11  and  C19_33 
REMARK    5  A    between atoms: C20_12  and  C16_31 
REMARK    6  A    between atoms: C2_23  and  C3_24 
REMARK    7  A    between atoms: C9_25  and  C12_27 
REMARK       I    between atoms: C12_27  and  N2_29 
REMARK    8  A    between atoms: N3_41  and  C20_51 
REMARK    9  A    between atoms: C4_42  and  C5_43 
REMARK   10  A    between atoms: C13_48  and  N2_68 
REMARK   11  A    between atoms: C17_50  and  C19_72 
REMARK   12  A    between atoms: C20_51  and  C16_70 
REMARK   13  A    between atoms: C2_62  and  C3_63 
REMARK   14  A    between atoms: C9_64  and  C12_66 
REMARK       I    between atoms: C12_66  and  N2_68 
ROOT
HETATM    1  C12   D T1000     -13.276   4.701  -4.337  1.00 17.98     0.279 C 
HETATM    2  O1    D T1000     -14.160   5.275  -4.975  1.00 17.01    -0.265 OA
HETATM    3  N2    D T1000     -13.380   4.463  -2.918  1.00 17.28    -0.208 NA
ENDROOT
BRANCH   1   4
HETATM    4  C9    D T1000     -12.138   4.053  -5.109  1.00 17.71     0.059 A 
HETATM    5  C8    D T1000     -10.784   4.385  -4.959  1.00 17.52     0.004 A 
HETATM    6  C7    D T1000      -9.768   3.665  -5.632  1.00 17.00    -0.004 A 
HETATM    7  C6    D T1000     -10.076   2.578  -6.448  1.00 17.97    -0.014 A 
HETATM    8  C5    D T1000     -11.389   2.276  -6.617  1.00 18.43     0.038 A 
HETATM    9  C11   D T1000      -9.048   1.792  -7.186  1.00 16.62     0.032 C 
HETATM   10  C10   D T1000     -12.452   2.967  -5.926  1.00 18.40     0.013 A 
BRANCH   8  11
HETATM   11  C4    D T1000     -11.870   1.145  -7.421  1.00 17.09    -0.058 C 
HETATM   12  C3    D T1000     -12.252   0.224  -7.994  1.00 17.10    -0.039 C 
BRANCH  12  13
HETATM   13  C2    D T1000     -12.697  -0.986  -8.650  1.00 16.30     0.145 A 
HETATM   14  N82   D T1000     -13.440  -2.022  -8.228  1.00 17.01    -0.203 N 
HETATM   15  N81   D T1000     -14.100  -2.258  -7.075  1.00 17.09    -0.162 NA
HETATM   16  C84   D T1000     -13.460  -2.913  -9.282  1.00 17.67     0.165 A 
HETATM   17  C83   D T1000     -14.805  -3.423  -6.962  1.00 18.49     0.121 A 
HETATM   18  C82   D T1000     -14.878  -4.336  -7.981  1.00 18.11     0.026 A 
HETATM   19  C81   D T1000     -14.218  -4.106  -9.162  1.00 17.49     0.041 A 
HETATM   20  N1    D T1000     -12.715  -2.417 -10.303  1.00 17.94    -0.223 NA
HETATM   21  C1    D T1000     -12.223  -1.248  -9.936  1.00 17.69     0.128 A 
ENDBRANCH  12  13
ENDBRANCH   8  11
ENDBRANCH   1   4
BRANCH   3  22
HETATM   22  C13   D T1000     -14.444   4.832  -2.005  1.00 16.63     0.085 A 
HETATM   23  C14   D T1000     -14.543   6.062  -1.416  1.00 16.52     0.019 A 
HETATM   24  C15   D T1000     -15.543   6.340  -0.474  1.00 16.39    -0.001 A 
HETATM   25  C16   D T1000     -16.454   5.345  -0.102  1.00 15.29     0.015 A 
HETATM   26  C17   D T1000     -16.346   4.080  -0.652  1.00 16.55     0.071 A 
HETATM   27  C18   D T1000     -15.344   3.826  -1.603  1.00 16.28     0.023 A 
BRANCH  25  28
HETATM   28  C20   D T1000     -17.506   5.752   0.944  1.00 14.99     0.277 C 
BRANCH  28  29
HETATM   29  N3    D T1000     -18.679   6.370   0.322  1.00 14.64     0.146 N 
HETATM   30  C21   D T1000     -18.768   7.785   0.628  1.00 14.41     0.286 C 
HETATM   31  C22   D T1000     -19.924   8.369  -0.166  1.00 14.86     0.286 C 
HETATM   32  N4    D T1000     -21.158   7.674   0.107  1.00 14.70     0.143 N 
HETATM   33  C23   D T1000     -21.079   6.267  -0.227  1.00 14.86     0.286 C 
HETATM   34  C25   D T1000     -22.323   8.318  -0.521  1.00 15.24     0.285 C 
HETATM   35  C24   D T1000     -19.927   5.667   0.542  1.00 14.88     0.286 C 
ENDBRANCH  28  29
ENDBRANCH  25  28
BRANCH  26  36
HETATM   36  C19   D T1000     -17.342   2.981  -0.305  1.00 17.30     0.419 C 
HETATM   37  F1    D T1000     -18.400   3.045  -1.139  1.00 16.85    -0.166 F 
HETATM   38  F2    D T1000     -17.746   3.033   0.973  1.00 16.63    -0.166 F 
HETATM   39  F3    D T1000     -16.706   1.829  -0.466  1.00 15.75    -0.166 F 
ENDBRANCH  26  36
ENDBRANCH   3  22
TORSDOF 14
ENDMDL
MODEL 4
REMARK VINA RESULT:    -9.593      1.748      2.597
REMARK INTER + INTRA:         -14.477
REMARK INTER:                 -13.418
REMARK INTRA:                  -1.059
REMARK UNBOUND:                -0.958
REMARK  14 active torsions:
REMARK  status: ('A' for Active; 'I' for Inactive)
REMARK    1  A    between atoms: N3_2  and  C20_12 
REMARK    2  A    between atoms: C4_3  and  C5_4 
REMARK    3  A    between atoms: C13_9  and  N2_29 
REMARK    4  A    between atoms: C17_11  and  C19_33 
REMARK    5  A    between atoms: C20_12  and  C16_31 
REMARK    6  A    between atoms: C2_23  and  C3_24 
REMARK    7  A    between atoms: C9_25  and  C12_27 
REMARK       I    between atoms: C12_27  and  N2_29 
REMARK    8  A    between atoms: N3_41  and  C20_51 
REMARK    9  A    between atoms: C4_42  and  C5_43 
REMARK   10  A    between atoms: C13_48  and  N2_68 
REMARK   11  A    between atoms: C17_50  and  C19_72 
REMARK   12  A    between atoms: C20_51  and  C16_70 
REMARK   13  A    between atoms: C2_62  and  C3_63 
REMARK   14  A    between atoms: C9_64  and  C12_66 
REMARK       I    between atoms: C12_66  and  N2_68 
ROOT
HETATM    1  C12   D T1000     -13.290   4.037  -4.409  1.00 17.98     0.279 C 
HETATM    2  O1    D T1000     -14.160   4.773  -4.876  1.00 17.01    -0.265 OA
HETATM    3  N2    D T1000     -13.341   3.548  -3.053  1.00 17.28    -0.208 NA
ENDROOT
BRANCH   1   4
HETATM    4  C9    D T1000     -12.244   3.470  -5.355  1.00 17.71     0.059 A 
HETATM    5  C8    D T1000     -10.903   3.880  -5.395  1.00 17.52     0.004 A 
HETATM    6  C7    D T1000      -9.958   3.233  -6.228  1.00 17.00    -0.004 A 
HETATM    7  C6    D T1000     -10.321   2.144  -7.017  1.00 17.97    -0.014 A 
HETATM    8  C5    D T1000     -11.625   1.768  -7.001  1.00 18.43     0.038 A 
HETATM    9  C11   D T1000      -9.370   1.433  -7.918  1.00 16.62     0.032 C 
HETATM   10  C10   D T1000     -12.612   2.382  -6.145  1.00 18.40     0.013 A 
BRANCH   8  11
HETATM   11  C4    D T1000     -12.155   0.624  -7.756  1.00 17.09    -0.058 C 
HETATM   12  C3    D T1000     -12.531  -0.311  -8.309  1.00 17.10    -0.039 C 
BRANCH  12  13
HETATM   13  C2    D T1000     -12.926  -1.527  -8.986  1.00 16.30     0.145 A 
HETATM   14  N82   D T1000     -13.664  -2.580  -8.596  1.00 17.01    -0.203 N 
HETATM   15  N81   D T1000     -14.363  -2.834  -7.470  1.00 17.09    -0.162 NA
HETATM   16  C84   D T1000     -13.624  -3.467  -9.653  1.00 17.67     0.165 A 
HETATM   17  C83   D T1000     -15.048  -4.013  -7.389  1.00 18.49     0.121 A 
HETATM   18  C82   D T1000     -15.063  -4.923  -8.413  1.00 18.11     0.026 A 
HETATM   19  C81   D T1000     -14.362  -4.675  -9.566  1.00 17.49     0.041 A 
HETATM   20  N1    D T1000     -12.850  -2.951 -10.643  1.00 17.94    -0.223 NA
HETATM   21  C1    D T1000     -12.397  -1.774 -10.253  1.00 17.69     0.128 A 
ENDBRANCH  12  13
ENDBRANCH   8  11
ENDBRANCH   1   4
BRANCH   3  22
HETATM   22  C13   D T1000     -14.327   3.810  -2.023  1.00 16.63     0.085 A 
HETATM   23  C14   D T1000     -15.429   3.028  -1.813  1.00 16.52     0.019 A 
HETATM   24  C15   D T1000     -16.397   3.373  -0.860  1.00 16.39    -0.001 A 
HETATM   25  C16   D T1000     -16.259   4.549  -0.113  1.00 15.29     0.015 A 
HETATM   26  C17   D T1000     -15.175   5.379  -0.339  1.00 16.55     0.071 A 
HETATM   27  C18   D T1000     -14.210   5.007  -1.290  1.00 16.28     0.023 A 
BRANCH  25  28
HETATM   28  C20   D T1000     -17.380   4.838   0.900  1.00 14.99     0.277 C 
BRANCH  28  29
HETATM   29  N3    D T1000     -18.445   5.655   0.313  1.00 14.64     0.146 N 
HETATM   30  C21   D T1000     -18.727   6.830   1.116  1.00 14.41     0.286 C 
HETATM   31  C22   D T1000     -19.735   7.684   0.366  1.00 14.86     0.286 C 
HETATM   32  N4    D T1000     -20.929   6.939   0.051  1.00 14.70     0.143 N 
HETATM   33  C23   D T1000     -20.651   5.783  -0.776  1.00 14.86     0.286 C 
HETATM   34  C25   D T1000     -21.987   7.782  -0.529  1.00 15.24     0.285 C 
HETATM   35  C24   D T1000     -19.640   4.924  -0.056  1.00 14.88     0.286 C 
ENDBRANCH  28  29
ENDBRANCH  25  28
BRANCH  26  36
HETATM   36  C19   D T1000     -14.966   6.645   0.481  1.00 17.30     0.419 C 
HETATM   37  F1    D T1000     -14.973   6.343   1.795  1.00 16.85    -0.166 F 
HETATM   38  F2    D T1000     -15.876   7.592   0.210  1.00 16.63    -0.166 F 
HETATM   39  F3    D T1000     -13.783   7.130   0.133  1.00 15.75    -0.166 F 
ENDBRANCH  26  36
ENDBRANCH   3  22
TORSDOF 14
ENDMDL
MODEL 5
REMARK VINA RESULT:    -9.392      2.107      3.154
REMARK INTER + INTRA:         -14.193
REMARK INTER:                 -13.431
REMARK INTRA:                  -0.763
REMARK UNBOUND:                -0.958
REMARK  14 active torsions:
REMARK  status: ('A' for Active; 'I' for Inactive)
REMARK    1  A    between atoms: N3_2  and  C20_12 
REMARK    2  A    between atoms: C4_3  and  C5_4 
REMARK    3  A    between atoms: C13_9  and  N2_29 
REMARK    4  A    between atoms: C17_11  and  C19_33 
REMARK    5  A    between atoms: C20_12  and  C16_31 
REMARK    6  A    between atoms: C2_23  and  C3_24 
REMARK    7  A    between atoms: C9_25  and  C12_27 
REMARK       I    between atoms: C12_27  and  N2_29 
REMARK    8  A    between atoms: N3_41  and  C20_51 
REMARK    9  A    between atoms: C4_42  and  C5_43 
REMARK   10  A    between atoms: C13_48  and  N2_68 
REMARK   11  A    between atoms: C17_50  and  C19_72 
REMARK   12  A    between atoms: C20_51  and  C16_70 
REMARK   13  A    between atoms: C2_62  and  C3_63 
REMARK   14  A    between atoms: C9_64  and  C12_66 
REMARK       I    between atoms: C12_66  and  N2_68 
ROOT
HETATM    1  C12   D T1000     -12.219   4.375  -4.233  1.00 17.98     0.279 C 
HETATM    2  O1    D T1000     -12.042   5.577  -4.026  1.00 17.01    -0.265 OA
HETATM    3  N2    D T1000     -13.343   3.656  -3.685  1.00 17.28    -0.208 NA
ENDROOT
BRANCH   1   4
HETATM    4  C9    D T1000     -11.335   3.684  -5.259  1.00 17.71     0.059 A 
HETATM    5  C8    D T1000      -9.944   3.841  -5.343  1.00 17.52     0.004 A 
HETATM    6  C7    D T1000      -9.169   3.083  -6.255  1.00 17.00    -0.004 A 
HETATM    7  C6    D T1000      -9.761   2.130  -7.083  1.00 17.97    -0.014 A 
HETATM    8  C5    D T1000     -11.111   2.001  -7.021  1.00 18.43     0.038 A 
HETATM    9  C11   D T1000      -8.995   1.313  -8.066  1.00 16.62     0.032 C 
HETATM   10  C10   D T1000     -11.931   2.734  -6.087  1.00 18.40     0.013 A 
BRANCH   8  11
HETATM   11  C4    D T1000     -11.874   1.023  -7.809  1.00 17.09    -0.058 C 
HETATM   12  C3    D T1000     -12.415   0.223  -8.433  1.00 17.10    -0.039 C 
BRANCH  12  13
HETATM   13  C2    D T1000     -13.018  -0.798  -9.261  1.00 16.30     0.145 A 
HETATM   14  N82   D T1000     -14.241  -1.354  -9.264  1.00 17.01    -0.203 N 
HETATM   15  N81   D T1000     -15.359  -1.096  -8.553  1.00 17.09    -0.162 NA
HETATM   16  C84   D T1000     -14.198  -2.331 -10.237  1.00 17.67     0.165 A 
HETATM   17  C83   D T1000     -16.475  -1.837  -8.818  1.00 18.49     0.121 A 
HETATM   18  C82   D T1000     -16.499  -2.806  -9.785  1.00 18.11     0.026 A 
HETATM   19  C81   D T1000     -15.372  -3.075 -10.520  1.00 17.49     0.041 A 
HETATM   20  N1    D T1000     -12.954  -2.366 -10.783  1.00 17.94    -0.223 NA
HETATM   21  C1    D T1000     -12.209  -1.451 -10.191  1.00 17.69     0.128 A 
ENDBRANCH  12  13
ENDBRANCH   8  11
ENDBRANCH   1   4
BRANCH   3  22
HETATM   22  C13   D T1000     -14.407   4.139  -2.827  1.00 16.63     0.085 A 
HETATM   23  C14   D T1000     -15.728   3.849  -3.022  1.00 16.52     0.019 A 
HETATM   24  C15   D T1000     -16.726   4.412  -2.213  1.00 16.39    -0.001 A 
HETATM   25  C16   D T1000     -16.381   5.306  -1.193  1.00 15.29     0.015 A 
HETATM   26  C17   D T1000     -15.053   5.649  -1.004  1.00 16.55     0.071 A 
HETATM   27  C18   D T1000     -14.070   5.064  -1.819  1.00 16.28     0.023 A 
BRANCH  25  28
HETATM   28  C20   D T1000     -17.551   5.871  -0.370  1.00 14.99     0.277 C 
BRANCH  28  29
HETATM   29  N3    D T1000     -18.092   4.876   0.558  1.00 14.64     0.146 N 
HETATM   30  C21   D T1000     -19.525   4.711   0.395  1.00 14.41     0.286 C 
HETATM   31  C22   D T1000     -19.974   3.569   1.289  1.00 14.86     0.286 C 
HETATM   32  N4    D T1000     -19.605   3.797   2.664  1.00 14.70     0.143 N 
HETATM   33  C23   D T1000     -18.173   3.932   2.832  1.00 14.86     0.286 C 
HETATM   34  C25   D T1000     -20.169   2.790   3.578  1.00 15.24     0.285 C 
HETATM   35  C24   D T1000     -17.701   5.055   1.941  1.00 14.88     0.286 C 
ENDBRANCH  28  29
ENDBRANCH  25  28
BRANCH  26  36
HETATM   36  C19   D T1000     -14.633   6.585   0.120  1.00 17.30     0.419 C 
HETATM   37  F1    D T1000     -14.611   5.913   1.288  1.00 16.85    -0.166 F 
HETATM   38  F2    D T1000     -15.419   7.668   0.214  1.00 16.63    -0.166 F 
HETATM   39  F3    D T1000     -13.415   7.014  -0.180  1.00 15.75    -0.166 F 
ENDBRANCH  26  36
ENDBRANCH   3  22
TORSDOF 14
ENDMDL
MODEL 6
REMARK VINA RESULT:    -9.175      2.109      2.882
REMARK INTER + INTRA:         -13.888
REMARK INTER:                 -13.059
REMARK INTRA:                  -0.829
REMARK UNBOUND:                -0.958
REMARK  14 active torsions:
REMARK  status: ('A' for Active; 'I' for Inactive)
REMARK    1  A    between atoms: N3_2  and  C20_12 
REMARK    2  A    between atoms: C4_3  and  C5_4 
REMARK    3  A    between atoms: C13_9  and  N2_29 
REMARK    4  A    between atoms: C17_11  and  C19_33 
REMARK    5  A    between atoms: C20_12  and  C16_31 
REMARK    6  A    between atoms: C2_23  and  C3_24 
REMARK    7  A    between atoms: C9_25  and  C12_27 
REMARK       I    between atoms: C12_27  and  N2_29 
REMARK    8  A    between atoms: N3_41  and  C20_51 
REMARK    9  A    between atoms: C4_42  and  C5_43 
REMARK   10  A    between atoms: C13_48  and  N2_68 
REMARK   11  A    between atoms: C17_50  and  C19_72 
REMARK   12  A    between atoms: C20_51  and  C16_70 
REMARK   13  A    between atoms: C2_62  and  C3_63 
REMARK   14  A    between atoms: C9_64  and  C12_66 
REMARK       I    between atoms: C12_66  and  N2_68 
ROOT
HETATM    1  C12   D T1000     -13.889   2.518  -4.369  1.00 17.98     0.279 C 
HETATM    2  O1    D T1000     -13.783   1.836  -3.349  1.00 17.01    -0.265 OA
HETATM    3  N2    D T1000     -14.902   3.534  -4.515  1.00 17.28    -0.208 NA
ENDROOT
BRANCH   1   4
HETATM    4  C9    D T1000     -12.792   2.419  -5.417  1.00 17.71     0.059 A 
HETATM    5  C8    D T1000     -11.588   3.136  -5.378  1.00 17.52     0.004 A 
HETATM    6  C7    D T1000     -10.565   2.913  -6.332  1.00 17.00    -0.004 A 
HETATM    7  C6    D T1000     -10.707   1.949  -7.328  1.00 17.97    -0.014 A 
HETATM    8  C5    D T1000     -11.886   1.277  -7.383  1.00 18.43     0.038 A 
HETATM    9  C11   D T1000      -9.667   1.680  -8.361  1.00 16.62     0.032 C 
HETATM   10  C10   D T1000     -12.940   1.455  -6.413  1.00 18.40     0.013 A 
BRANCH   8  11
HETATM   11  C4    D T1000     -12.175   0.214  -8.355  1.00 17.09    -0.058 C 
HETATM   12  C3    D T1000     -12.429  -0.653  -9.067  1.00 17.10    -0.039 C 
BRANCH  12  13
HETATM   13  C2    D T1000     -12.743  -1.799  -9.891  1.00 16.30     0.145 A 
HETATM   14  N82   D T1000     -12.161  -2.307 -10.990  1.00 17.01    -0.203 N 
HETATM   15  N81   D T1000     -11.037  -1.978 -11.660  1.00 17.09    -0.162 NA
HETATM   16  C84   D T1000     -12.962  -3.365 -11.373  1.00 17.67     0.165 A 
HETATM   17  C83   D T1000     -10.694  -2.725 -12.751  1.00 18.49     0.121 A 
HETATM   18  C82   D T1000     -11.437  -3.798 -13.166  1.00 18.11     0.026 A 
HETATM   19  C81   D T1000     -12.579  -4.149 -12.491  1.00 17.49     0.041 A 
HETATM   20  N1    D T1000     -14.016  -3.461 -10.522  1.00 17.94    -0.223 NA
HETATM   21  C1    D T1000     -13.915  -2.504  -9.618  1.00 17.69     0.128 A 
ENDBRANCH  12  13
ENDBRANCH   8  11
ENDBRANCH   1   4
BRANCH   3  22
HETATM   22  C13   D T1000     -15.943   3.928  -3.586  1.00 16.63     0.085 A 
HETATM   23  C14   D T1000     -15.760   4.840  -2.586  1.00 16.52     0.019 A 
HETATM   24  C15   D T1000     -16.775   5.122  -1.660  1.00 16.39    -0.001 A 
HETATM   25  C16   D T1000     -18.001   4.450  -1.736  1.00 15.29     0.015 A 
HETATM   26  C17   D T1000     -18.194   3.490  -2.714  1.00 16.55     0.071 A 
HETATM   27  C18   D T1000     -17.168   3.233  -3.638  1.00 16.28     0.023 A 
BRANCH  25  28
HETATM   28  C20   D T1000     -19.043   4.827  -0.670  1.00 14.99     0.277 C 
BRANCH  28  29
HETATM   29  N3    D T1000     -18.664   4.336   0.657  1.00 14.64     0.146 N 
HETATM   30  C21   D T1000     -19.796   3.768   1.364  1.00 14.41     0.286 C 
HETATM   31  C22   D T1000     -19.288   3.161   2.661  1.00 14.86     0.286 C 
HETATM   32  N4    D T1000     -18.579   4.132   3.457  1.00 14.70     0.143 N 
HETATM   33  C23   D T1000     -17.431   4.678   2.763  1.00 14.86     0.286 C 
HETATM   34  C25   D T1000     -18.217   3.619   4.789  1.00 15.24     0.285 C 
HETATM   35  C24   D T1000     -17.911   5.276   1.462  1.00 14.88     0.286 C 
ENDBRANCH  28  29
ENDBRANCH  25  28
BRANCH  26  36
HETATM   36  C19   D T1000     -19.526   2.766  -2.856  1.00 17.30     0.419 C 
HETATM   37  F1    D T1000     -19.456   1.878  -3.869  1.00 16.85    -0.166 F 
HETATM   38  F2    D T1000     -20.555   3.607  -3.037  1.00 16.63    -0.166 F 
HETATM   39  F3    D T1000     -19.737   2.133  -1.711  1.00 15.75    -0.166 F 
ENDBRANCH  26  36
ENDBRANCH   3  22
TORSDOF 14
ENDMDL
MODEL 7
REMARK VINA RESULT:    -9.147      3.060     10.891
REMARK INTER + INTRA:         -13.848
REMARK INTER:                 -12.801
REMARK INTRA:                  -1.047
REMARK UNBOUND:                -0.958
REMARK  14 active torsions:
REMARK  status: ('A' for Active; 'I' for Inactive)
REMARK    1  A    between atoms: N3_2  and  C20_12 
REMARK    2  A    between atoms: C4_3  and  C5_4 
REMARK    3  A    between atoms: C13_9  and  N2_29 
REMARK    4  A    between atoms: C17_11  and  C19_33 
REMARK    5  A    between atoms: C20_12  and  C16_31 
REMARK    6  A    between atoms: C2_23  and  C3_24 
REMARK    7  A    between atoms: C9_25  and  C12_27 
REMARK       I    between atoms: C12_27  and  N2_29 
REMARK    8  A    between atoms: N3_41  and  C20_51 
REMARK    9  A    between atoms: C4_42  and  C5_43 
REMARK   10  A    between atoms: C13_48  and  N2_68 
REMARK   11  A    between atoms: C17_50  and  C19_72 
REMARK   12  A    between atoms: C20_51  and  C16_70 
REMARK   13  A    between atoms: C2_62  and  C3_63 
REMARK   14  A    between atoms: C9_64  and  C12_66 
REMARK       I    between atoms: C12_66  and  N2_68 
ROOT
HETATM    1  C12   D T1000     -11.034   2.726  -6.278  1.00 17.98     0.279 C 
HETATM    2  O1    D T1000     -10.049   2.405  -6.946  1.00 17.01    -0.265 OA
HETATM    3  N2    D T1000     -12.262   1.970  -6.302  1.00 17.28    -0.208 NA
ENDROOT
BRANCH   1   4
HETATM    4  C9    D T1000     -10.875   3.836  -5.252  1.00 17.71     0.059 A 
HETATM    5  C8    D T1000      -9.757   4.677  -5.157  1.00 17.52     0.004 A 
HETATM    6  C7    D T1000      -9.723   5.760  -4.246  1.00 17.00    -0.004 A 
HETATM    7  C6    D T1000     -10.815   6.048  -3.429  1.00 17.97    -0.014 A 
HETATM    8  C5    D T1000     -11.884   5.215  -3.500  1.00 18.43     0.038 A 
HETATM    9  C11   D T1000     -10.829   7.169  -2.447  1.00 16.62     0.032 C 
HETATM   10  C10   D T1000     -11.969   4.119  -4.435  1.00 18.40     0.013 A 
BRANCH   8  11
HETATM   11  C4    D T1000     -13.118   5.403  -2.725  1.00 17.09    -0.058 C 
HETATM   12  C3    D T1000     -14.094   5.484  -2.122  1.00 17.10    -0.039 C 
BRANCH  12  13
HETATM   13  C2    D T1000     -15.351   5.513  -1.407  1.00 16.30     0.145 A 
HETATM   14  N82   D T1000     -16.405   4.680  -1.398  1.00 17.01    -0.203 N 
HETATM   15  N81   D T1000     -16.626   3.485  -1.985  1.00 17.09    -0.162 NA
HETATM   16  C84   D T1000     -17.340   5.280  -0.578  1.00 17.67     0.165 A 
HETATM   17  C83   D T1000     -17.818   2.862  -1.751  1.00 18.49     0.121 A 
HETATM   18  C82   D T1000     -18.776   3.398  -0.931  1.00 18.11     0.026 A 
HETATM   19  C81   D T1000     -18.563   4.609  -0.322  1.00 17.49     0.041 A 
HETATM   20  N1    D T1000     -16.849   6.465  -0.130  1.00 17.94    -0.223 NA
HETATM   21  C1    D T1000     -15.642   6.639  -0.637  1.00 17.69     0.128 A 
ENDBRANCH  12  13
ENDBRANCH   8  11
ENDBRANCH   1   4
BRANCH   3  22
HETATM   22  C13   D T1000     -12.589   0.782  -7.066  1.00 16.63     0.085 A 
HETATM   23  C14   D T1000     -12.150   0.557  -8.341  1.00 16.52     0.019 A 
HETATM   24  C15   D T1000     -12.566  -0.569  -9.067  1.00 16.39    -0.001 A 
HETATM   25  C16   D T1000     -13.463  -1.479  -8.497  1.00 15.29     0.015 A 
HETATM   26  C17   D T1000     -13.955  -1.250  -7.225  1.00 16.55     0.071 A 
HETATM   27  C18   D T1000     -13.516  -0.122  -6.511  1.00 16.28     0.023 A 
BRANCH  25  28
HETATM   28  C20   D T1000     -13.860  -2.675  -9.381  1.00 14.99     0.277 C 
BRANCH  28  29
HETATM   29  N3    D T1000     -14.481  -2.241 -10.634  1.00 14.64     0.146 N 
HETATM   30  C21   D T1000     -15.913  -2.060 -10.491  1.00 14.41     0.286 C 
HETATM   31  C22   D T1000     -16.449  -1.478 -11.788  1.00 14.86     0.286 C 
HETATM   32  N4    D T1000     -16.115  -2.310 -12.918  1.00 14.70     0.143 N 
HETATM   33  C23   D T1000     -14.684  -2.466 -13.079  1.00 14.86     0.286 C 
HETATM   34  C25   D T1000     -16.758  -1.860 -14.163  1.00 15.24     0.285 C 
HETATM   35  C24   D T1000     -14.127  -3.032 -11.795  1.00 14.88     0.286 C 
ENDBRANCH  28  29
ENDBRANCH  25  28
BRANCH  26  36
HETATM   36  C19   D T1000     -14.901  -2.237  -6.554  1.00 17.30     0.419 C 
HETATM   37  F1    D T1000     -14.288  -3.429  -6.412  1.00 16.85    -0.166 F 
HETATM   38  F2    D T1000     -16.058  -2.377  -7.217  1.00 16.63    -0.166 F 
HETATM   39  F3    D T1000     -15.193  -1.732  -5.364  1.00 15.75    -0.166 F 
ENDBRANCH  26  36
ENDBRANCH   3  22
TORSDOF 14
ENDMDL
MODEL 8
REMARK VINA RESULT:    -8.958      4.109     10.869
REMARK INTER + INTRA:         -13.582
REMARK INTER:                 -13.025
REMARK INTRA:                  -0.557
REMARK UNBOUND:                -0.958
REMARK  14 active torsions:
REMARK  status: ('A' for Active; 'I' for Inactive)
REMARK    1  A    between atoms: N3_2  and  C20_12 
REMARK    2  A    between atoms: C4_3  and  C5_4 
REMARK    3  A    between atoms: C13_9  and  N2_29 
REMARK    4  A    between atoms: C17_11  and  C19_33 
REMARK    5  A    between atoms: C20_12  and  C16_31 
REMARK    6  A    between atoms: C2_23  and  C3_24 
REMARK    7  A    between atoms: C9_25  and  C12_27 
REMARK       I    between atoms: C12_27  and  N2_29 
REMARK    8  A    between atoms: N3_41  and  C20_51 
REMARK    9  A    between atoms: C4_42  and  C5_43 
REMARK   10  A    between atoms: C13_48  and  N2_68 
REMARK   11  A    between atoms: C17_50  and  C19_72 
REMARK   12  A    between atoms: C20_51  and  C16_70 
REMARK   13  A    between atoms: C2_62  and  C3_63 
REMARK   14  A    between atoms: C9_64  and  C12_66 
REMARK       I    between atoms: C12_66  and  N2_68 
ROOT
HETATM    1  C12   D T1000     -11.841   2.630  -6.411  1.00 17.98     0.279 C 
HETATM    2  O1    D T1000     -11.147   2.340  -7.387  1.00 17.01    -0.265 OA
HETATM    3  N2    D T1000     -13.080   1.952  -6.116  1.00 17.28    -0.208 NA
ENDROOT
BRANCH   1   4
HETATM    4  C9    D T1000     -11.270   3.595  -5.384  1.00 17.71     0.059 A 
HETATM    5  C8    D T1000      -9.963   4.102  -5.411  1.00 17.52     0.004 A 
HETATM    6  C7    D T1000      -9.532   5.081  -4.482  1.00 17.00    -0.004 A 
HETATM    7  C6    D T1000     -10.403   5.598  -3.526  1.00 17.97    -0.014 A 
HETATM    8  C5    D T1000     -11.659   5.085  -3.482  1.00 18.43     0.038 A 
HETATM    9  C11   D T1000     -10.000   6.622  -2.520  1.00 16.62     0.032 C 
HETATM   10  C10   D T1000     -12.145   4.108  -4.427  1.00 18.40     0.013 A 
BRANCH   8  11
HETATM   11  C4    D T1000     -12.698   5.547  -2.551  1.00 17.09    -0.058 C 
HETATM   12  C3    D T1000     -13.548   5.856  -1.842  1.00 17.10    -0.039 C 
BRANCH  12  13
HETATM   13  C2    D T1000     -14.676   6.206  -1.006  1.00 16.30     0.145 A 
HETATM   14  N82   D T1000     -15.964   5.827  -1.021  1.00 17.01    -0.203 N 
HETATM   15  N81   D T1000     -16.639   4.925  -1.765  1.00 17.09    -0.162 NA
HETATM   16  C84   D T1000     -16.575   6.561  -0.024  1.00 17.67     0.165 A 
HETATM   17  C83   D T1000     -17.969   4.747  -1.512  1.00 18.49     0.121 A 
HETATM   18  C82   D T1000     -18.625   5.431  -0.523  1.00 18.11     0.026 A 
HETATM   19  C81   D T1000     -17.950   6.346   0.246  1.00 17.49     0.041 A 
HETATM   20  N1    D T1000     -15.659   7.382   0.553  1.00 17.94    -0.223 NA
HETATM   21  C1    D T1000     -14.495   7.197  -0.041  1.00 17.69     0.128 A 
ENDBRANCH  12  13
ENDBRANCH   8  11
ENDBRANCH   1   4
BRANCH   3  22
HETATM   22  C13   D T1000     -13.736   0.887  -6.850  1.00 16.63     0.085 A 
HETATM   23  C14   D T1000     -14.964   0.386  -6.520  1.00 16.52     0.019 A 
HETATM   24  C15   D T1000     -15.516  -0.703  -7.211  1.00 16.39    -0.001 A 
HETATM   25  C16   D T1000     -14.801  -1.313  -8.247  1.00 15.29     0.015 A 
HETATM   26  C17   D T1000     -13.537  -0.851  -8.570  1.00 16.55     0.071 A 
HETATM   27  C18   D T1000     -13.008   0.249  -7.873  1.00 16.28     0.023 A 
BRANCH  25  28
HETATM   28  C20   D T1000     -15.493  -2.503  -8.934  1.00 14.99     0.277 C 
BRANCH  28  29
HETATM   29  N3    D T1000     -16.504  -3.115  -8.069  1.00 14.64     0.146 N 
HETATM   30  C21   D T1000     -16.042  -4.370  -7.506  1.00 14.41     0.286 C 
HETATM   31  C22   D T1000     -17.089  -4.860  -6.520  1.00 14.86     0.286 C 
HETATM   32  N4    D T1000     -18.384  -4.985  -7.142  1.00 14.70     0.143 N 
HETATM   33  C23   D T1000     -18.859  -3.726  -7.677  1.00 14.86     0.286 C 
HETATM   34  C25   D T1000     -19.380  -5.611  -6.257  1.00 15.24     0.285 C 
HETATM   35  C24   D T1000     -17.826  -3.212  -8.652  1.00 14.88     0.286 C 
ENDBRANCH  28  29
ENDBRANCH  25  28
BRANCH  26  36
HETATM   36  C19   D T1000     -12.743  -1.460  -9.717  1.00 17.30     0.419 C 
HETATM   37  F1    D T1000     -13.504  -1.494 -10.830  1.00 16.85    -0.166 F 
HETATM   38  F2    D T1000     -12.273  -2.683  -9.430  1.00 16.63    -0.166 F 
HETATM   39  F3    D T1000     -11.693  -0.675  -9.910  1.00 15.75    -0.166 F 
ENDBRANCH  26  36
ENDBRANCH   3  22
TORSDOF 14
ENDMDL
MODEL 9
REMARK VINA RESULT:    -8.729      5.587     11.357
REMARK INTER + INTRA:         -13.260
REMARK INTER:                 -12.385
REMARK INTRA:                  -0.875
REMARK UNBOUND:                -0.958
REMARK  14 active torsions:
REMARK  status: ('A' for Active; 'I' for Inactive)
REMARK    1  A    between atoms: N3_2  and  C20_12 
REMARK    2  A    between atoms: C4_3  and  C5_4 
REMARK    3  A    between atoms: C13_9  and  N2_29 
REMARK    4  A    between atoms: C17_11  and  C19_33 
REMARK    5  A    between atoms: C20_12  and  C16_31 
REMARK    6  A    between atoms: C2_23  and  C3_24 
REMARK    7  A    between atoms: C9_25  and  C12_27 
REMARK       I    between atoms: C12_27  and  N2_29 
REMARK    8  A    between atoms: N3_41  and  C20_51 
REMARK    9  A    between atoms: C4_42  and  C5_43 
REMARK   10  A    between atoms: C13_48  and  N2_68 
REMARK   11  A    between atoms: C17_50  and  C19_72 
REMARK   12  A    between atoms: C20_51  and  C16_70 
REMARK   13  A    between atoms: C2_62  and  C3_63 
REMARK   14  A    between atoms: C9_64  and  C12_66 
REMARK       I    between atoms: C12_66  and  N2_68 
ROOT
HETATM    1  C12   D T1000     -13.859  -0.686  -8.143  1.00 17.98     0.279 C 
HETATM    2  O1    D T1000     -14.441  -0.505  -9.213  1.00 17.01    -0.265 OA
HETATM    3  N2    D T1000     -14.118  -1.834  -7.308  1.00 17.28    -0.208 NA
ENDROOT
BRANCH   1   4
HETATM    4  C9    D T1000     -12.692   0.225  -7.795  1.00 17.71     0.059 A 
HETATM    5  C8    D T1000     -11.457   0.222  -8.458  1.00 17.52     0.004 A 
HETATM    6  C7    D T1000     -10.452   1.173  -8.152  1.00 17.00    -0.004 A 
HETATM    7  C6    D T1000     -10.669   2.166  -7.199  1.00 17.97    -0.014 A 
HETATM    8  C5    D T1000     -11.854   2.150  -6.537  1.00 18.43     0.038 A 
HETATM    9  C11   D T1000      -9.645   3.185  -6.832  1.00 16.62     0.032 C 
HETATM   10  C10   D T1000     -12.913   1.216  -6.840  1.00 18.40     0.013 A 
BRANCH   8  11
HETATM   11  C4    D T1000     -12.240   3.146  -5.528  1.00 17.09    -0.058 C 
HETATM   12  C3    D T1000     -12.554   3.874  -4.696  1.00 17.10    -0.039 C 
BRANCH  12  13
HETATM   13  C2    D T1000     -13.003   4.727  -3.618  1.00 16.30     0.145 A 
HETATM   14  N82   D T1000     -12.500   5.854  -3.087  1.00 17.01    -0.203 N 
HETATM   15  N81   D T1000     -11.449   6.629  -3.426  1.00 17.09    -0.162 NA
HETATM   16  C84   D T1000     -13.330   6.163  -2.028  1.00 17.67     0.165 A 
HETATM   17  C83   D T1000     -11.211   7.752  -2.687  1.00 18.49     0.121 A 
HETATM   18  C82   D T1000     -12.010   8.121  -1.637  1.00 18.11     0.026 A 
HETATM   19  C81   D T1000     -13.087   7.346  -1.285  1.00 17.49     0.041 A 
HETATM   20  N1    D T1000     -14.295   5.213  -1.922  1.00 17.94    -0.223 NA
HETATM   21  C1    D T1000     -14.107   4.315  -2.871  1.00 17.69     0.128 A 
ENDBRANCH  12  13
ENDBRANCH   8  11
ENDBRANCH   1   4
BRANCH   3  22
HETATM   22  C13   D T1000     -15.055  -2.921  -7.515  1.00 16.63     0.085 A 
HETATM   23  C14   D T1000     -16.172  -3.114  -6.750  1.00 16.52     0.019 A 
HETATM   24  C15   D T1000     -17.000  -4.230  -6.938  1.00 16.39    -0.001 A 
HETATM   25  C16   D T1000     -16.680  -5.186  -7.909  1.00 15.29     0.015 A 
HETATM   26  C17   D T1000     -15.531  -5.035  -8.665  1.00 16.55     0.071 A 
HETATM   27  C18   D T1000     -14.723  -3.902  -8.469  1.00 16.28     0.023 A 
BRANCH  25  28
HETATM   28  C20   D T1000     -17.649  -6.375  -8.027  1.00 14.99     0.277 C 
BRANCH  28  29
HETATM   29  N3    D T1000     -18.388  -6.599  -6.783  1.00 14.64     0.146 N 
HETATM   30  C21   D T1000     -18.168  -7.934  -6.259  1.00 14.41     0.286 C 
HETATM   31  C22   D T1000     -18.852  -8.030  -4.906  1.00 14.86     0.286 C 
HETATM   32  N4    D T1000     -20.254  -7.706  -4.999  1.00 14.70     0.143 N 
HETATM   33  C23   D T1000     -20.475  -6.362  -5.494  1.00 14.86     0.286 C 
HETATM   34  C25   D T1000     -20.977  -7.947  -3.739  1.00 15.24     0.285 C 
HETATM   35  C24   D T1000     -19.790  -6.239  -6.834  1.00 14.88     0.286 C 
ENDBRANCH  28  29
ENDBRANCH  25  28
BRANCH  26  36
HETATM   36  C19   D T1000     -15.171  -6.030  -9.760  1.00 17.30     0.419 C 
HETATM   37  F1    D T1000     -16.207  -6.166 -10.611  1.00 16.85    -0.166 F 
HETATM   38  F2    D T1000     -14.801  -7.223  -9.273  1.00 16.63    -0.166 F 
HETATM   39  F3    D T1000     -14.122  -5.528 -10.397  1.00 15.75    -0.166 F 
ENDBRANCH  26  36
ENDBRANCH   3  22
TORSDOF 14
ENDMDL
