MODEL 1
REMARK VINA RESULT:    -9.364      0.000      0.000
REMARK INTER + INTRA:         -14.093
REMARK INTER:                 -13.196
REMARK INTRA:                  -0.897
REMARK UNBOUND:                -0.897
REMARK  14 active torsions:
REMARK  status: ('A' for Active; 'I' for Inactive)
REMARK    1  A    between atoms: N3_2  and  C20_12 
REMARK    2  A    between atoms: C4_3  and  C5_4 
REMARK    3  A    between atoms: C13_9  and  N2_29 
REMARK    4  A    between atoms: C17_11  and  C19_33 
REMARK    5  A    between atoms: C20_12  and  C16_31 
REMARK    6  A    between atoms: C2_23  and  C3_24 
REMARK    7  A    between atoms: C9_25  and  C12_27 
REMARK       I    between atoms: C12_27  and  N2_29 
REMARK    8  A    between atoms: N3_41  and  C20_51 
REMARK    9  A    between atoms: C4_42  and  C5_43 
REMARK   10  A    between atoms: C13_48  and  N2_68 
REMARK   11  A    between atoms: C17_50  and  C19_72 
REMARK   12  A    between atoms: C20_51  and  C16_70 
REMARK   13  A    between atoms: C2_62  and  C3_63 
REMARK   14  A    between atoms: C9_64  and  C12_66 
REMARK       I    between atoms: C12_66  and  N2_68 
ROOT
HETATM    1  C12   D T1000      -1.306  -2.110  15.957  1.00 17.98     0.279 C 
HETATM    2  O1    D T1000      -1.533  -2.608  14.853  1.00 17.01    -0.265 OA
HETATM    3  N2    D T1000      -1.489  -0.704  16.222  1.00 17.28    -0.208 NA
ENDROOT
BRANCH   1   4
HETATM    4  C9    D T1000      -1.016  -3.045  17.122  1.00 17.71     0.059 A 
HETATM    5  C8    D T1000       0.109  -2.952  17.952  1.00 17.52     0.004 A 
HETATM    6  C7    D T1000       0.261  -3.790  19.085  1.00 17.00    -0.004 A 
HETATM    7  C6    D T1000      -0.719  -4.717  19.430  1.00 17.97    -0.014 A 
HETATM    8  C5    D T1000      -1.794  -4.827  18.606  1.00 18.43     0.038 A 
HETATM    9  C11   D T1000      -0.607  -5.629  20.604  1.00 16.62     0.032 C 
HETATM   10  C10   D T1000      -1.999  -3.973  17.460  1.00 18.40     0.013 A 
BRANCH   8  11
HETATM   11  C4    D T1000      -2.922  -5.736  18.851  1.00 17.09    -0.058 C 
HETATM   12  C3    D T1000      -3.809  -6.422  19.104  1.00 17.10    -0.039 C 
BRANCH  12  13
HETATM   13  C2    D T1000      -4.900  -7.281  19.509  1.00 16.30     0.145 A 
HETATM   14  N82   D T1000      -4.941  -8.564  19.906  1.00 17.01    -0.203 N 
HETATM   15  N81   D T1000      -3.972  -9.473  20.146  1.00 17.09    -0.162 NA
HETATM   16  C84   D T1000      -6.279  -8.850  20.083  1.00 17.67     0.165 A 
HETATM   17  C83   D T1000      -4.346 -10.714  20.577  1.00 18.49     0.121 A 
HETATM   18  C82   D T1000      -5.657 -11.052  20.789  1.00 18.11     0.026 A 
HETATM   19  C81   D T1000      -6.652 -10.134  20.556  1.00 17.49     0.041 A 
HETATM   20  N1    D T1000      -7.019  -7.755  19.768  1.00 17.94    -0.223 NA
HETATM   21  C1    D T1000      -6.200  -6.788  19.398  1.00 17.69     0.128 A 
ENDBRANCH  12  13
ENDBRANCH   8  11
ENDBRANCH   1   4
BRANCH   3  22
HETATM   22  C13   D T1000      -1.922   0.347  15.321  1.00 16.63     0.085 A 
HETATM   23  C14   D T1000      -1.167   1.445  15.021  1.00 16.52     0.019 A 
HETATM   24  C15   D T1000      -1.666   2.475  14.211  1.00 16.39    -0.001 A 
HETATM   25  C16   D T1000      -2.972   2.401  13.707  1.00 15.29     0.015 A 
HETATM   26  C17   D T1000      -3.770   1.320  14.033  1.00 16.55     0.071 A 
HETATM   27  C18   D T1000      -3.244   0.293  14.836  1.00 16.28     0.023 A 
BRANCH  25  28
HETATM   28  C20   D T1000      -3.423   3.585  12.836  1.00 14.99     0.277 C 
BRANCH  28  29
HETATM   29  N3    D T1000      -2.290   4.403  12.399  1.00 14.64     0.146 N 
HETATM   30  C21   D T1000      -2.350   5.745  12.946  1.00 14.41     0.286 C 
HETATM   31  C22   D T1000      -1.074   6.471  12.560  1.00 14.86     0.286 C 
HETATM   32  N4    D T1000      -0.880   6.475  11.130  1.00 14.70     0.143 N 
HETATM   33  C23   D T1000      -0.790   5.135  10.586  1.00 14.86     0.286 C 
HETATM   34  C25   D T1000       0.259   7.308  10.714  1.00 15.24     0.285 C 
HETATM   35  C24   D T1000      -2.044   4.388  10.970  1.00 14.88     0.286 C 
ENDBRANCH  28  29
ENDBRANCH  25  28
BRANCH  26  36
HETATM   36  C19   D T1000      -5.178   1.182  13.473  1.00 17.30     0.419 C 
HETATM   37  F1    D T1000      -5.118   0.895  12.158  1.00 16.85    -0.166 F 
HETATM   38  F2    D T1000      -5.929   2.274  13.684  1.00 16.63    -0.166 F 
HETATM   39  F3    D T1000      -5.751   0.183  14.130  1.00 15.75    -0.166 F 
ENDBRANCH  26  36
ENDBRANCH   3  22
TORSDOF 14
ENDMDL
MODEL 2
REMARK VINA RESULT:    -9.112     33.268     38.316
REMARK INTER + INTRA:         -13.737
REMARK INTER:                 -12.815
REMARK INTRA:                  -0.922
REMARK UNBOUND:                -0.897
REMARK  14 active torsions:
REMARK  status: ('A' for Active; 'I' for Inactive)
REMARK    1  A    between atoms: N3_2  and  C20_12 
REMARK    2  A    between atoms: C4_3  and  C5_4 
REMARK    3  A    between atoms: C13_9  and  N2_29 
REMARK    4  A    between atoms: C17_11  and  C19_33 
REMARK    5  A    between atoms: C20_12  and  C16_31 
REMARK    6  A    between atoms: C2_23  and  C3_24 
REMARK    7  A    between atoms: C9_25  and  C12_27 
REMARK       I    between atoms: C12_27  and  N2_29 
REMARK    8  A    between atoms: N3_41  and  C20_51 
REMARK    9  A    between atoms: C4_42  and  C5_43 
REMARK   10  A    between atoms: C13_48  and  N2_68 
REMARK   11  A    between atoms: C17_50  and  C19_72 
REMARK   12  A    between atoms: C20_51  and  C16_70 
REMARK   13  A    between atoms: C2_62  and  C3_63 
REMARK   14  A    between atoms: C9_64  and  C12_66 
REMARK       I    between atoms: C12_66  and  N2_68 
ROOT
HETATM    1  C12   D T1000      -6.025  27.240 -11.391  1.00 17.98     0.279 C 
HETATM    2  O1    D T1000      -6.951  27.960 -11.769  1.00 17.01    -0.265 OA
HETATM    3  N2    D T1000      -6.139  26.378 -10.241  1.00 17.28    -0.208 NA
ENDROOT
BRANCH   1   4
HETATM    4  C9    D T1000      -4.802  27.114 -12.286  1.00 17.71     0.059 A 
HETATM    5  C8    D T1000      -4.332  28.125 -13.135  1.00 17.52     0.004 A 
HETATM    6  C7    D T1000      -3.123  27.979 -13.859  1.00 17.00    -0.004 A 
HETATM    7  C6    D T1000      -2.342  26.832 -13.729  1.00 17.97    -0.014 A 
HETATM    8  C5    D T1000      -2.815  25.840 -12.930  1.00 18.43     0.038 A 
HETATM    9  C11   D T1000      -1.068  26.621 -14.474  1.00 16.62     0.032 C 
HETATM   10  C10   D T1000      -4.026  25.964 -12.154  1.00 18.40     0.013 A 
BRANCH   8  11
HETATM   11  C4    D T1000      -2.094  24.587 -12.671  1.00 17.09    -0.058 C 
HETATM   12  C3    D T1000      -1.548  23.585 -12.528  1.00 17.10    -0.039 C 
BRANCH  12  13
HETATM   13  C2    D T1000      -0.924  22.286 -12.402  1.00 16.30     0.145 A 
HETATM   14  N82   D T1000      -1.421  21.065 -12.147  1.00 17.01    -0.203 N 
HETATM   15  N81   D T1000      -2.684  20.610 -12.002  1.00 17.09    -0.162 NA
HETATM   16  C84   D T1000      -0.325  20.231 -12.071  1.00 17.67     0.165 A 
HETATM   17  C83   D T1000      -2.865  19.276 -11.772  1.00 18.49     0.121 A 
HETATM   18  C82   D T1000      -1.817  18.395 -11.705  1.00 18.11     0.026 A 
HETATM   19  C81   D T1000      -0.528  18.844 -11.858  1.00 17.49     0.041 A 
HETATM   20  N1    D T1000       0.807  20.959 -12.254  1.00 17.94    -0.223 NA
HETATM   21  C1    D T1000       0.469  22.221 -12.442  1.00 17.69     0.128 A 
ENDBRANCH  12  13
ENDBRANCH   8  11
ENDBRANCH   1   4
BRANCH   3  22
HETATM   22  C13   D T1000      -7.262  26.199  -9.339  1.00 16.63     0.085 A 
HETATM   23  C14   D T1000      -7.136  26.125  -7.981  1.00 16.52     0.019 A 
HETATM   24  C15   D T1000      -8.243  25.867  -7.159  1.00 16.39    -0.001 A 
HETATM   25  C16   D T1000      -9.505  25.656  -7.729  1.00 15.29     0.015 A 
HETATM   26  C17   D T1000      -9.648  25.683  -9.104  1.00 16.55     0.071 A 
HETATM   27  C18   D T1000      -8.528  25.957  -9.907  1.00 16.28     0.023 A 
BRANCH  25  28
HETATM   28  C20   D T1000     -10.649  25.373  -6.740  1.00 14.99     0.277 C 
BRANCH  28  29
HETATM   29  N3    D T1000     -10.819  23.939  -6.500  1.00 14.64     0.146 N 
HETATM   30  C21   D T1000     -12.215  23.549  -6.525  1.00 14.41     0.286 C 
HETATM   31  C22   D T1000     -12.286  22.036  -6.410  1.00 14.86     0.286 C 
HETATM   32  N4    D T1000     -11.610  21.563  -5.226  1.00 14.70     0.143 N 
HETATM   33  C23   D T1000     -10.208  21.927  -5.215  1.00 14.86     0.286 C 
HETATM   34  C25   D T1000     -11.801  20.121  -5.001  1.00 15.24     0.285 C 
HETATM   35  C24   D T1000     -10.112  23.428  -5.342  1.00 14.88     0.286 C 
ENDBRANCH  28  29
ENDBRANCH  25  28
BRANCH  26  36
HETATM   36  C19   D T1000     -11.010  25.501  -9.759  1.00 17.30     0.419 C 
HETATM   37  F1    D T1000     -11.890  26.373  -9.229  1.00 16.85    -0.166 F 
HETATM   38  F2    D T1000     -11.470  24.244  -9.658  1.00 16.63    -0.166 F 
HETATM   39  F3    D T1000     -10.845  25.751 -11.051  1.00 15.75    -0.166 F 
ENDBRANCH  26  36
ENDBRANCH   3  22
TORSDOF 14
ENDMDL
MODEL 3
REMARK VINA RESULT:    -9.088      5.636      8.075
REMARK INTER + INTRA:         -13.704
REMARK INTER:                 -12.615
REMARK INTRA:                  -1.089
REMARK UNBOUND:                -0.897
REMARK  14 active torsions:
REMARK  status: ('A' for Active; 'I' for Inactive)
REMARK    1  A    between atoms: N3_2  and  C20_12 
REMARK    2  A    between atoms: C4_3  and  C5_4 
REMARK    3  A    between atoms: C13_9  and  N2_29 
REMARK    4  A    between atoms: C17_11  and  C19_33 
REMARK    5  A    between atoms: C20_12  and  C16_31 
REMARK    6  A    between atoms: C2_23  and  C3_24 
REMARK    7  A    between atoms: C9_25  and  C12_27 
REMARK       I    between atoms: C12_27  and  N2_29 
REMARK    8  A    between atoms: N3_41  and  C20_51 
REMARK    9  A    between atoms: C4_42  and  C5_43 
REMARK   10  A    between atoms: C13_48  and  N2_68 
REMARK   11  A    between atoms: C17_50  and  C19_72 
REMARK   12  A    between atoms: C20_51  and  C16_70 
REMARK   13  A    between atoms: C2_62  and  C3_63 
REMARK   14  A    between atoms: C9_64  and  C12_66 
REMARK       I    between atoms: C12_66  and  N2_68 
ROOT
HETATM    1  C12   D T1000       0.323   2.923  13.620  1.00 17.98     0.279 C 
HETATM    2  O1    D T1000       0.961   3.588  14.438  1.00 17.01    -0.265 OA
HETATM    3  N2    D T1000       0.854   2.581  12.324  1.00 17.28    -0.208 NA
ENDROOT
BRANCH   1   4
HETATM    4  C9    D T1000      -0.979   2.281  14.074  1.00 17.71     0.059 A 
HETATM    5  C8    D T1000      -2.255   2.749  13.731  1.00 17.52     0.004 A 
HETATM    6  C7    D T1000      -3.424   2.038  14.100  1.00 17.00    -0.004 A 
HETATM    7  C6    D T1000      -3.345   0.832  14.792  1.00 17.97    -0.014 A 
HETATM    8  C5    D T1000      -2.108   0.397  15.150  1.00 18.43     0.038 A 
HETATM    9  C11   D T1000      -4.541   0.049  15.213  1.00 16.62     0.032 C 
HETATM   10  C10   D T1000      -0.893   1.076  14.768  1.00 18.40     0.013 A 
BRANCH   8  11
HETATM   11  C4    D T1000      -1.860  -0.868  15.856  1.00 17.09    -0.058 C 
HETATM   12  C3    D T1000      -1.619  -1.870  16.364  1.00 17.10    -0.039 C 
BRANCH  12  13
HETATM   13  C2    D T1000      -1.289  -3.163  16.922  1.00 16.30     0.145 A 
HETATM   14  N82   D T1000      -2.041  -4.126  17.480  1.00 17.01    -0.203 N 
HETATM   15  N81   D T1000      -3.375  -4.259  17.640  1.00 17.09    -0.162 NA
HETATM   16  C84   D T1000      -1.150  -5.094  17.896  1.00 17.67     0.165 A 
HETATM   17  C83   D T1000      -3.842  -5.396  18.236  1.00 18.49     0.121 A 
HETATM   18  C82   D T1000      -3.008  -6.401  18.652  1.00 18.11     0.026 A 
HETATM   19  C81   D T1000      -1.650  -6.280  18.490  1.00 17.49     0.041 A 
HETATM   20  N1    D T1000       0.115  -4.692  17.609  1.00 17.94    -0.223 NA
HETATM   21  C1    D T1000       0.059  -3.508  17.028  1.00 17.69     0.128 A 
ENDBRANCH  12  13
ENDBRANCH   8  11
ENDBRANCH   1   4
BRANCH   3  22
HETATM   22  C13   D T1000       2.135   2.931  11.738  1.00 16.63     0.085 A 
HETATM   23  C14   D T1000       3.226   2.109  11.762  1.00 16.52     0.019 A 
HETATM   24  C15   D T1000       4.465   2.528  11.256  1.00 16.39    -0.001 A 
HETATM   25  C16   D T1000       4.609   3.819  10.732  1.00 15.29     0.015 A 
HETATM   26  C17   D T1000       3.529   4.684  10.738  1.00 16.55     0.071 A 
HETATM   27  C18   D T1000       2.294   4.238  11.237  1.00 16.28     0.023 A 
BRANCH  25  28
HETATM   28  C20   D T1000       6.010   4.181  10.211  1.00 14.99     0.277 C 
BRANCH  28  29
HETATM   29  N3    D T1000       6.303   3.525   8.935  1.00 14.64     0.146 N 
HETATM   30  C21   D T1000       7.447   2.639   9.034  1.00 14.41     0.286 C 
HETATM   31  C22   D T1000       7.589   1.900   7.715  1.00 14.86     0.286 C 
HETATM   32  N4    D T1000       7.703   2.816   6.605  1.00 14.70     0.143 N 
HETATM   33  C23   D T1000       6.546   3.681   6.488  1.00 14.86     0.286 C 
HETATM   34  C25   D T1000       8.004   2.135   5.336  1.00 15.24     0.285 C 
HETATM   35  C24   D T1000       6.378   4.417   7.795  1.00 14.88     0.286 C 
ENDBRANCH  28  29
ENDBRANCH  25  28
BRANCH  26  36
HETATM   36  C19   D T1000       3.633   6.080  10.140  1.00 17.30     0.419 C 
HETATM   37  F1    D T1000       3.847   5.991   8.813  1.00 16.85    -0.166 F 
HETATM   38  F2    D T1000       4.585   6.824  10.724  1.00 16.63    -0.166 F 
HETATM   39  F3    D T1000       2.474   6.679  10.374  1.00 15.75    -0.166 F 
ENDBRANCH  26  36
ENDBRANCH   3  22
TORSDOF 14
ENDMDL
MODEL 4
REMARK VINA RESULT:    -8.807     28.589     36.701
REMARK INTER + INTRA:         -13.307
REMARK INTER:                 -12.531
REMARK INTRA:                  -0.776
REMARK UNBOUND:                -0.897
REMARK  14 active torsions:
REMARK  status: ('A' for Active; 'I' for Inactive)
REMARK    1  A    between atoms: N3_2  and  C20_12 
REMARK    2  A    between atoms: C4_3  and  C5_4 
REMARK    3  A    between atoms: C13_9  and  N2_29 
REMARK    4  A    between atoms: C17_11  and  C19_33 
REMARK    5  A    between atoms: C20_12  and  C16_31 
REMARK    6  A    between atoms: C2_23  and  C3_24 
REMARK    7  A    between atoms: C9_25  and  C12_27 
REMARK       I    between atoms: C12_27  and  N2_29 
REMARK    8  A    between atoms: N3_41  and  C20_51 
REMARK    9  A    between atoms: C4_42  and  C5_43 
REMARK   10  A    between atoms: C13_48  and  N2_68 
REMARK   11  A    between atoms: C17_50  and  C19_72 
REMARK   12  A    between atoms: C20_51  and  C16_70 
REMARK   13  A    between atoms: C2_62  and  C3_63 
REMARK   14  A    between atoms: C9_64  and  C12_66 
REMARK       I    between atoms: C12_66  and  N2_68 
ROOT
HETATM    1  C12   D T1000      -6.550  26.443  -5.078  1.00 17.98     0.279 C 
HETATM    2  O1    D T1000      -7.083  27.143  -4.215  1.00 17.01    -0.265 OA
HETATM    3  N2    D T1000      -5.319  25.730  -4.840  1.00 17.28    -0.208 NA
ENDROOT
BRANCH   1   4
HETATM    4  C9    D T1000      -7.320  26.171  -6.361  1.00 17.71     0.059 A 
HETATM    5  C8    D T1000      -8.680  25.836  -6.414  1.00 17.52     0.004 A 
HETATM    6  C7    D T1000      -9.360  25.702  -7.650  1.00 17.00    -0.004 A 
HETATM    7  C6    D T1000      -8.705  25.929  -8.859  1.00 17.97    -0.014 A 
HETATM    8  C5    D T1000      -7.380  26.223  -8.806  1.00 18.43     0.038 A 
HETATM    9  C11   D T1000      -9.368  25.793 -10.186  1.00 16.62     0.032 C 
HETATM   10  C10   D T1000      -6.659  26.396  -7.567  1.00 18.40     0.013 A 
BRANCH   8  11
HETATM   11  C4    D T1000      -6.561  26.515  -9.991  1.00 17.09    -0.058 C 
HETATM   12  C3    D T1000      -5.867  26.741 -10.879  1.00 17.10    -0.039 C 
BRANCH  12  13
HETATM   13  C2    D T1000      -4.936  27.066 -11.938  1.00 16.30     0.145 A 
HETATM   14  N82   D T1000      -4.131  26.305 -12.698  1.00 17.01    -0.203 N 
HETATM   15  N81   D T1000      -3.970  24.968 -12.798  1.00 17.09    -0.162 NA
HETATM   16  C84   D T1000      -3.422  27.192 -13.482  1.00 17.67     0.165 A 
HETATM   17  C83   D T1000      -3.070  24.494 -13.708  1.00 18.49     0.121 A 
HETATM   18  C82   D T1000      -2.350  25.324 -14.528  1.00 18.11     0.026 A 
HETATM   19  C81   D T1000      -2.509  26.685 -14.442  1.00 17.49     0.041 A 
HETATM   20  N1    D T1000      -3.787  28.461 -13.167  1.00 17.94    -0.223 NA
HETATM   21  C1    D T1000      -4.700  28.412 -12.214  1.00 17.69     0.128 A 
ENDBRANCH  12  13
ENDBRANCH   8  11
ENDBRANCH   1   4
BRANCH   3  22
HETATM   22  C13   D T1000      -4.497  25.697  -3.645  1.00 16.63     0.085 A 
HETATM   23  C14   D T1000      -3.132  25.742  -3.664  1.00 16.52     0.019 A 
HETATM   24  C15   D T1000      -2.382  25.622  -2.485  1.00 16.39    -0.001 A 
HETATM   25  C16   D T1000      -3.030  25.430  -1.258  1.00 15.29     0.015 A 
HETATM   26  C17   D T1000      -4.409  25.337  -1.220  1.00 16.55     0.071 A 
HETATM   27  C18   D T1000      -5.141  25.474  -2.411  1.00 16.28     0.023 A 
BRANCH  25  28
HETATM   28  C20   D T1000      -2.114  25.302  -0.029  1.00 14.99     0.277 C 
BRANCH  28  29
HETATM   29  N3    D T1000      -1.515  23.969   0.068  1.00 14.64     0.146 N 
HETATM   30  C21   D T1000      -1.794  23.345   1.347  1.00 14.41     0.286 C 
HETATM   31  C22   D T1000      -1.261  21.923   1.305  1.00 14.86     0.286 C 
HETATM   32  N4    D T1000       0.145  21.895   0.981  1.00 14.70     0.143 N 
HETATM   33  C23   D T1000       0.420  22.492  -0.310  1.00 14.86     0.286 C 
HETATM   34  C25   D T1000       0.726  20.547   1.093  1.00 15.24     0.285 C 
HETATM   35  C24   D T1000      -0.114  23.904  -0.296  1.00 14.88     0.286 C 
ENDBRANCH  28  29
ENDBRANCH  25  28
BRANCH  26  36
HETATM   36  C19   D T1000      -5.152  25.171   0.098  1.00 17.30     0.419 C 
HETATM   37  F1    D T1000      -6.479  25.274  -0.112  1.00 16.85    -0.166 F 
HETATM   38  F2    D T1000      -4.752  26.047   1.032  1.00 16.63    -0.166 F 
HETATM   39  F3    D T1000      -4.857  23.960   0.549  1.00 15.75    -0.166 F 
ENDBRANCH  26  36
ENDBRANCH   3  22
TORSDOF 14
ENDMDL
MODEL 5
REMARK VINA RESULT:    -8.764     35.434     38.556
REMARK INTER + INTRA:         -13.247
REMARK INTER:                 -12.600
REMARK INTRA:                  -0.647
REMARK UNBOUND:                -0.897
REMARK  14 active torsions:
REMARK  status: ('A' for Active; 'I' for Inactive)
REMARK    1  A    between atoms: N3_2  and  C20_12 
REMARK    2  A    between atoms: C4_3  and  C5_4 
REMARK    3  A    between atoms: C13_9  and  N2_29 
REMARK    4  A    between atoms: C17_11  and  C19_33 
REMARK    5  A    between atoms: C20_12  and  C16_31 
REMARK    6  A    between atoms: C2_23  and  C3_24 
REMARK    7  A    between atoms: C9_25  and  C12_27 
REMARK       I    between atoms: C12_27  and  N2_29 
REMARK    8  A    between atoms: N3_41  and  C20_51 
REMARK    9  A    between atoms: C4_42  and  C5_43 
REMARK   10  A    between atoms: C13_48  and  N2_68 
REMARK   11  A    between atoms: C17_50  and  C19_72 
REMARK   12  A    between atoms: C20_51  and  C16_70 
REMARK   13  A    between atoms: C2_62  and  C3_63 
REMARK   14  A    between atoms: C9_64  and  C12_66 
REMARK       I    between atoms: C12_66  and  N2_68 
ROOT
HETATM    1  C12   D T1000      -6.326  27.191 -11.436  1.00 17.98     0.279 C 
HETATM    2  O1    D T1000      -7.214  27.932 -11.864  1.00 17.01    -0.265 OA
HETATM    3  N2    D T1000      -6.556  26.251 -10.368  1.00 17.28    -0.208 NA
ENDROOT
BRANCH   1   4
HETATM    4  C9    D T1000      -5.009  27.135 -12.195  1.00 17.71     0.059 A 
HETATM    5  C8    D T1000      -4.371  28.248 -12.760  1.00 17.52     0.004 A 
HETATM    6  C7    D T1000      -3.092  28.140 -13.359  1.00 17.00    -0.004 A 
HETATM    7  C6    D T1000      -2.408  26.926 -13.380  1.00 17.97    -0.014 A 
HETATM    8  C5    D T1000      -3.042  25.842 -12.860  1.00 18.43     0.038 A 
HETATM    9  C11   D T1000      -1.066  26.753 -14.005  1.00 16.62     0.032 C 
HETATM   10  C10   D T1000      -4.332  25.918 -12.216  1.00 18.40     0.013 A 
BRANCH   8  11
HETATM   11  C4    D T1000      -2.441  24.503 -12.784  1.00 17.09    -0.058 C 
HETATM   12  C3    D T1000      -1.942  23.475 -12.670  1.00 17.10    -0.039 C 
BRANCH  12  13
HETATM   13  C2    D T1000      -1.243  22.221 -12.483  1.00 16.30     0.145 A 
HETATM   14  N82   D T1000      -1.674  20.978 -12.215  1.00 17.01    -0.203 N 
HETATM   15  N81   D T1000      -2.911  20.447 -12.110  1.00 17.09    -0.162 NA
HETATM   16  C84   D T1000      -0.532  20.217 -12.072  1.00 17.67     0.165 A 
HETATM   17  C83   D T1000      -3.018  19.110 -11.851  1.00 18.49     0.121 A 
HETATM   18  C82   D T1000      -1.921  18.299 -11.717  1.00 18.11     0.026 A 
HETATM   19  C81   D T1000      -0.658  18.825 -11.829  1.00 17.49     0.041 A 
HETATM   20  N1    D T1000       0.559  21.010 -12.227  1.00 17.94    -0.223 NA
HETATM   21  C1    D T1000       0.151  22.243 -12.463  1.00 17.69     0.128 A 
ENDBRANCH  12  13
ENDBRANCH   8  11
ENDBRANCH   1   4
BRANCH   3  22
HETATM   22  C13   D T1000      -7.770  26.002  -9.613  1.00 16.63     0.085 A 
HETATM   23  C14   D T1000      -9.018  25.994 -10.168  1.00 16.52     0.019 A 
HETATM   24  C15   D T1000     -10.166  25.832  -9.379  1.00 16.39    -0.001 A 
HETATM   25  C16   D T1000     -10.049  25.697  -7.990  1.00 15.29     0.015 A 
HETATM   26  C17   D T1000      -8.799  25.747  -7.401  1.00 16.55     0.071 A 
HETATM   27  C18   D T1000      -7.662  25.896  -8.212  1.00 16.28     0.023 A 
BRANCH  25  28
HETATM   28  C20   D T1000     -11.369  25.534  -7.218  1.00 14.99     0.277 C 
BRANCH  28  29
HETATM   29  N3    D T1000     -12.386  24.846  -8.017  1.00 14.64     0.146 N 
HETATM   30  C21   D T1000     -13.660  25.538  -7.979  1.00 14.41     0.286 C 
HETATM   31  C22   D T1000     -14.606  24.839  -8.941  1.00 14.86     0.286 C 
HETATM   32  N4    D T1000     -14.738  23.437  -8.627  1.00 14.70     0.143 N 
HETATM   33  C23   D T1000     -13.470  22.739  -8.693  1.00 14.86     0.286 C 
HETATM   34  C25   D T1000     -15.770  22.769  -9.437  1.00 15.24     0.285 C 
HETATM   35  C24   D T1000     -12.508  23.426  -7.754  1.00 14.88     0.286 C 
ENDBRANCH  28  29
ENDBRANCH  25  28
BRANCH  26  36
HETATM   36  C19   D T1000      -8.627  25.562  -5.900  1.00 17.30     0.419 C 
HETATM   37  F1    D T1000      -8.513  24.251  -5.614  1.00 16.85    -0.166 F 
HETATM   38  F2    D T1000      -9.623  26.116  -5.192  1.00 16.63    -0.166 F 
HETATM   39  F3    D T1000      -7.512  26.199  -5.565  1.00 15.75    -0.166 F 
ENDBRANCH  26  36
ENDBRANCH   3  22
TORSDOF 14
ENDMDL
MODEL 6
REMARK VINA RESULT:    -8.733      6.233      8.431
REMARK INTER + INTRA:         -13.203
REMARK INTER:                 -12.013
REMARK INTRA:                  -1.190
REMARK UNBOUND:                -0.897
REMARK  14 active torsions:
REMARK  status: ('A' for Active; 'I' for Inactive)
REMARK    1  A    between atoms: N3_2  and  C20_12 
REMARK    2  A    between atoms: C4_3  and  C5_4 
REMARK    3  A    between atoms: C13_9  and  N2_29 
REMARK    4  A    between atoms: C17_11  and  C19_33 
REMARK    5  A    between atoms: C20_12  and  C16_31 
REMARK    6  A    between atoms: C2_23  and  C3_24 
REMARK    7  A    between atoms: C9_25  and  C12_27 
REMARK       I    between atoms: C12_27  and  N2_29 
REMARK    8  A    between atoms: N3_41  and  C20_51 
REMARK    9  A    between atoms: C4_42  and  C5_43 
REMARK   10  A    between atoms: C13_48  and  N2_68 
REMARK   11  A    between atoms: C17_50  and  C19_72 
REMARK   12  A    between atoms: C20_51  and  C16_70 
REMARK   13  A    between atoms: C2_62  and  C3_63 
REMARK   14  A    between atoms: C9_64  and  C12_66 
REMARK       I    between atoms: C12_66  and  N2_68 
ROOT
HETATM    1  C12   D T1000       0.162   2.948  13.306  1.00 17.98     0.279 C 
HETATM    2  O1    D T1000       0.449   4.095  13.656  1.00 17.01    -0.265 OA
HETATM    3  N2    D T1000       1.066   2.128  12.539  1.00 17.28    -0.208 NA
ENDROOT
BRANCH   1   4
HETATM    4  C9    D T1000      -1.102   2.319  13.872  1.00 17.71     0.059 A 
HETATM    5  C8    D T1000      -2.397   2.812  13.662  1.00 17.52     0.004 A 
HETATM    6  C7    D T1000      -3.537   2.114  14.129  1.00 17.00    -0.004 A 
HETATM    7  C6    D T1000      -3.413   0.894  14.790  1.00 17.97    -0.014 A 
HETATM    8  C5    D T1000      -2.155   0.433  15.021  1.00 18.43     0.038 A 
HETATM    9  C11   D T1000      -4.576   0.122  15.311  1.00 16.62     0.032 C 
HETATM   10  C10   D T1000      -0.970   1.100  14.535  1.00 18.40     0.013 A 
BRANCH   8  11
HETATM   11  C4    D T1000      -1.862  -0.848  15.678  1.00 17.09    -0.058 C 
HETATM   12  C3    D T1000      -1.578  -1.823  16.215  1.00 17.10    -0.039 C 
BRANCH  12  13
HETATM   13  C2    D T1000      -1.132  -3.029  16.879  1.00 16.30     0.145 A 
HETATM   14  N82   D T1000      -1.799  -4.040  17.460  1.00 17.01    -0.203 N 
HETATM   15  N81   D T1000      -3.114  -4.327  17.554  1.00 17.09    -0.162 NA
HETATM   16  C84   D T1000      -0.827  -4.863  17.991  1.00 17.67     0.165 A 
HETATM   17  C83   D T1000      -3.479  -5.473  18.201  1.00 18.49     0.121 A 
HETATM   18  C82   D T1000      -2.559  -6.340  18.731  1.00 18.11     0.026 A 
HETATM   19  C81   D T1000      -1.218  -6.064  18.636  1.00 17.49     0.041 A 
HETATM   20  N1    D T1000       0.398  -4.328  17.747  1.00 17.94    -0.223 NA
HETATM   21  C1    D T1000       0.237  -3.198  17.083  1.00 17.69     0.128 A 
ENDBRANCH  12  13
ENDBRANCH   8  11
ENDBRANCH   1   4
BRANCH   3  22
HETATM   22  C13   D T1000       2.389   2.448  12.036  1.00 16.63     0.085 A 
HETATM   23  C14   D T1000       2.663   2.665  10.715  1.00 16.52     0.019 A 
HETATM   24  C15   D T1000       3.974   2.888  10.270  1.00 16.39    -0.001 A 
HETATM   25  C16   D T1000       5.037   2.868  11.182  1.00 15.29     0.015 A 
HETATM   26  C17   D T1000       4.789   2.606  12.517  1.00 16.55     0.071 A 
HETATM   27  C18   D T1000       3.466   2.400  12.943  1.00 16.28     0.023 A 
BRANCH  25  28
HETATM   28  C20   D T1000       6.435   3.116  10.589  1.00 14.99     0.277 C 
BRANCH  28  29
HETATM   29  N3    D T1000       6.730   2.196   9.488  1.00 14.64     0.146 N 
HETATM   30  C21   D T1000       7.226   0.921   9.969  1.00 14.41     0.286 C 
HETATM   31  C22   D T1000       7.369  -0.011   8.778  1.00 14.86     0.286 C 
HETATM   32  N4    D T1000       8.222   0.557   7.762  1.00 14.70     0.143 N 
HETATM   33  C23   D T1000       7.711   1.817   7.260  1.00 14.86     0.286 C 
HETATM   34  C25   D T1000       8.510  -0.387   6.671  1.00 15.24     0.285 C 
HETATM   35  C24   D T1000       7.548   2.755   8.430  1.00 14.88     0.286 C 
ENDBRANCH  28  29
ENDBRANCH  25  28
BRANCH  26  36
HETATM   36  C19   D T1000       5.911   2.618  13.545  1.00 17.30     0.419 C 
HETATM   37  F1    D T1000       6.477   3.840  13.585  1.00 16.85    -0.166 F 
HETATM   38  F2    D T1000       6.837   1.675  13.312  1.00 16.63    -0.166 F 
HETATM   39  F3    D T1000       5.355   2.336  14.715  1.00 15.75    -0.166 F 
ENDBRANCH  26  36
ENDBRANCH   3  22
TORSDOF 14
ENDMDL
MODEL 7
REMARK VINA RESULT:    -8.629     33.462     37.614
REMARK INTER + INTRA:         -13.057
REMARK INTER:                 -11.943
REMARK INTRA:                  -1.113
REMARK UNBOUND:                -0.897
REMARK  14 active torsions:
REMARK  status: ('A' for Active; 'I' for Inactive)
REMARK    1  A    between atoms: N3_2  and  C20_12 
REMARK    2  A    between atoms: C4_3  and  C5_4 
REMARK    3  A    between atoms: C13_9  and  N2_29 
REMARK    4  A    between atoms: C17_11  and  C19_33 
REMARK    5  A    between atoms: C20_12  and  C16_31 
REMARK    6  A    between atoms: C2_23  and  C3_24 
REMARK    7  A    between atoms: C9_25  and  C12_27 
REMARK       I    between atoms: C12_27  and  N2_29 
REMARK    8  A    between atoms: N3_41  and  C20_51 
REMARK    9  A    between atoms: C4_42  and  C5_43 
REMARK   10  A    between atoms: C13_48  and  N2_68 
REMARK   11  A    between atoms: C17_50  and  C19_72 
REMARK   12  A    between atoms: C20_51  and  C16_70 
REMARK   13  A    between atoms: C2_62  and  C3_63 
REMARK   14  A    between atoms: C9_64  and  C12_66 
REMARK       I    between atoms: C12_66  and  N2_68 
ROOT
HETATM    1  C12   D T1000      -8.198  25.529  -5.380  1.00 17.98     0.279 C 
HETATM    2  O1    D T1000      -8.699  24.664  -4.659  1.00 17.01    -0.265 OA
HETATM    3  N2    D T1000      -7.091  26.345  -4.948  1.00 17.28    -0.208 NA
ENDROOT
BRANCH   1   4
HETATM    4  C9    D T1000      -8.637  25.594  -6.835  1.00 17.71     0.059 A 
HETATM    5  C8    D T1000      -9.968  25.520  -7.266  1.00 17.52     0.004 A 
HETATM    6  C7    D T1000     -10.313  25.696  -8.629  1.00 17.00    -0.004 A 
HETATM    7  C6    D T1000      -9.341  25.981  -9.586  1.00 17.97    -0.014 A 
HETATM    8  C5    D T1000      -8.048  26.021  -9.170  1.00 18.43     0.038 A 
HETATM    9  C11   D T1000      -9.646  26.166 -11.032  1.00 16.62     0.032 C 
HETATM   10  C10   D T1000      -7.659  25.875  -7.788  1.00 18.40     0.013 A 
BRANCH   8  11
HETATM   11  C4    D T1000      -6.916  26.336 -10.053  1.00 17.09    -0.058 C 
HETATM   12  C3    D T1000      -6.074  26.612 -10.784  1.00 17.10    -0.039 C 
BRANCH  12  13
HETATM   13  C2    D T1000      -5.074  26.955 -11.772  1.00 16.30     0.145 A 
HETATM   14  N82   D T1000      -4.248  26.205 -12.521  1.00 17.01    -0.203 N 
HETATM   15  N81   D T1000      -4.120  24.870 -12.675  1.00 17.09    -0.162 NA
HETATM   16  C84   D T1000      -3.469  27.104 -13.220  1.00 17.67     0.165 A 
HETATM   17  C83   D T1000      -3.182  24.410 -13.554  1.00 18.49     0.121 A 
HETATM   18  C82   D T1000      -2.392  25.254 -14.291  1.00 18.11     0.026 A 
HETATM   19  C81   D T1000      -2.517  26.614 -14.149  1.00 17.49     0.041 A 
HETATM   20  N1    D T1000      -3.816  28.369 -12.867  1.00 17.94    -0.223 NA
HETATM   21  C1    D T1000      -4.783  28.305 -11.970  1.00 17.69     0.128 A 
ENDBRANCH  12  13
ENDBRANCH   8  11
ENDBRANCH   1   4
BRANCH   3  22
HETATM   22  C13   D T1000      -6.395  26.345  -3.675  1.00 16.63     0.085 A 
HETATM   23  C14   D T1000      -6.934  26.833  -2.519  1.00 16.52     0.019 A 
HETATM   24  C15   D T1000      -6.188  26.887  -1.332  1.00 16.39    -0.001 A 
HETATM   25  C16   D T1000      -4.856  26.455  -1.321  1.00 15.29     0.015 A 
HETATM   26  C17   D T1000      -4.275  25.998  -2.490  1.00 16.55     0.071 A 
HETATM   27  C18   D T1000      -5.046  25.940  -3.664  1.00 16.28     0.023 A 
BRANCH  25  28
HETATM   28  C20   D T1000      -4.126  26.563   0.028  1.00 14.99     0.277 C 
BRANCH  28  29
HETATM   29  N3    D T1000      -4.011  27.953   0.475  1.00 14.64     0.146 N 
HETATM   30  C21   D T1000      -2.653  28.447   0.356  1.00 14.41     0.286 C 
HETATM   31  C22   D T1000      -2.655  29.925   0.703  1.00 14.86     0.286 C 
HETATM   32  N4    D T1000      -3.206  30.160   2.016  1.00 14.70     0.143 N 
HETATM   33  C23   D T1000      -4.573  29.693   2.127  1.00 14.86     0.286 C 
HETATM   34  C25   D T1000      -3.073  31.561   2.447  1.00 15.24     0.285 C 
HETATM   35  C24   D T1000      -4.598  28.226   1.772  1.00 14.88     0.286 C 
ENDBRANCH  28  29
ENDBRANCH  25  28
BRANCH  26  36
HETATM   36  C19   D T1000      -2.844  25.480  -2.510  1.00 17.30     0.419 C 
HETATM   37  F1    D T1000      -2.753  24.366  -1.758  1.00 16.85    -0.166 F 
HETATM   38  F2    D T1000      -1.955  26.400  -2.103  1.00 16.63    -0.166 F 
HETATM   39  F3    D T1000      -2.561  25.199  -3.775  1.00 15.75    -0.166 F 
ENDBRANCH  26  36
ENDBRANCH   3  22
TORSDOF 14
ENDMDL
MODEL 8
REMARK VINA RESULT:    -8.573      7.062     11.222
REMARK INTER + INTRA:         -12.978
REMARK INTER:                 -11.968
REMARK INTRA:                  -1.010
REMARK UNBOUND:                -0.897
REMARK  14 active torsions:
REMARK  status: ('A' for Active; 'I' for Inactive)
REMARK    1  A    between atoms: N3_2  and  C20_12 
REMARK    2  A    between atoms: C4_3  and  C5_4 
REMARK    3  A    between atoms: C13_9  and  N2_29 
REMARK    4  A    between atoms: C17_11  and  C19_33 
REMARK    5  A    between atoms: C20_12  and  C16_31 
REMARK    6  A    between atoms: C2_23  and  C3_24 
REMARK    7  A    between atoms: C9_25  and  C12_27 
REMARK       I    between atoms: C12_27  and  N2_29 
REMARK    8  A    between atoms: N3_41  and  C20_51 
REMARK    9  A    between atoms: C4_42  and  C5_43 
REMARK   10  A    between atoms: C13_48  and  N2_68 
REMARK   11  A    between atoms: C17_50  and  C19_72 
REMARK   12  A    between atoms: C20_51  and  C16_70 
REMARK   13  A    between atoms: C2_62  and  C3_63 
REMARK   14  A    between atoms: C9_64  and  C12_66 
REMARK       I    between atoms: C12_66  and  N2_68 
ROOT
HETATM    1  C12   D T1000       2.315   5.062  10.729  1.00 17.98     0.279 C 
HETATM    2  O1    D T1000       3.155   5.933  10.962  1.00 17.01    -0.265 OA
HETATM    3  N2    D T1000       2.681   3.730  10.316  1.00 17.28    -0.208 NA
ENDROOT
BRANCH   1   4
HETATM    4  C9    D T1000       0.864   5.350  11.083  1.00 17.71     0.059 A 
HETATM    5  C8    D T1000       0.108   6.398  10.541  1.00 17.52     0.004 A 
HETATM    6  C7    D T1000      -1.270   6.542  10.833  1.00 17.00    -0.004 A 
HETATM    7  C6    D T1000      -1.932   5.626  11.650  1.00 17.97    -0.014 A 
HETATM    8  C5    D T1000      -1.190   4.630  12.200  1.00 18.43     0.038 A 
HETATM    9  C11   D T1000      -3.376   5.735  11.999  1.00 16.62     0.032 C 
HETATM   10  C10   D T1000       0.209   4.433  11.903  1.00 18.40     0.013 A 
BRANCH   8  11
HETATM   11  C4    D T1000      -1.748   3.574  13.056  1.00 17.09    -0.058 C 
HETATM   12  C3    D T1000      -2.126   2.718  13.723  1.00 17.10    -0.039 C 
BRANCH  12  13
HETATM   13  C2    D T1000      -2.545   1.584  14.519  1.00 16.30     0.145 A 
HETATM   14  N82   D T1000      -1.889   0.498  14.960  1.00 17.01    -0.203 N 
HETATM   15  N81   D T1000      -0.593   0.126  14.887  1.00 17.09    -0.162 NA
HETATM   16  C84   D T1000      -2.839  -0.268  15.604  1.00 17.67     0.165 A 
HETATM   17  C83   D T1000      -0.228  -1.052  15.473  1.00 18.49     0.121 A 
HETATM   18  C82   D T1000      -1.122  -1.846  16.143  1.00 18.11     0.026 A 
HETATM   19  C81   D T1000      -2.441  -1.475  16.231  1.00 17.49     0.041 A 
HETATM   20  N1    D T1000      -4.046   0.349  15.519  1.00 17.94    -0.223 NA
HETATM   21  C1    D T1000      -3.896   1.475  14.846  1.00 17.69     0.128 A 
ENDBRANCH  12  13
ENDBRANCH   8  11
ENDBRANCH   1   4
BRANCH   3  22
HETATM   22  C13   D T1000       4.001   3.174  10.081  1.00 16.63     0.085 A 
HETATM   23  C14   D T1000       4.949   3.780   9.307  1.00 16.52     0.019 A 
HETATM   24  C15   D T1000       6.180   3.160   9.044  1.00 16.39    -0.001 A 
HETATM   25  C16   D T1000       6.448   1.886   9.560  1.00 15.29     0.015 A 
HETATM   26  C17   D T1000       5.485   1.235  10.310  1.00 16.55     0.071 A 
HETATM   27  C18   D T1000       4.265   1.881  10.573  1.00 16.28     0.023 A 
BRANCH  25  28
HETATM   28  C20   D T1000       7.822   1.293   9.206  1.00 14.99     0.277 C 
BRANCH  28  29
HETATM   29  N3    D T1000       8.025   1.215   7.758  1.00 14.64     0.146 N 
HETATM   30  C21   D T1000       7.765  -0.118   7.248  1.00 14.41     0.286 C 
HETATM   31  C22   D T1000       7.860  -0.071   5.733  1.00 14.86     0.286 C 
HETATM   32  N4    D T1000       9.138   0.438   5.298  1.00 14.70     0.143 N 
HETATM   33  C23   D T1000       9.385   1.781   5.782  1.00 14.86     0.286 C 
HETATM   34  C25   D T1000       9.321   0.343   3.841  1.00 15.24     0.285 C 
HETATM   35  C24   D T1000       9.282   1.762   7.288  1.00 14.88     0.286 C 
ENDBRANCH  28  29
ENDBRANCH  25  28
BRANCH  26  36
HETATM   36  C19   D T1000       5.754  -0.132  10.924  1.00 17.30     0.419 C 
HETATM   37  F1    D T1000       4.704  -0.504  11.682  1.00 16.85    -0.166 F 
HETATM   38  F2    D T1000       6.889  -0.164  11.640  1.00 16.63    -0.166 F 
HETATM   39  F3    D T1000       5.907  -0.977   9.914  1.00 15.75    -0.166 F 
ENDBRANCH  26  36
ENDBRANCH   3  22
TORSDOF 14
ENDMDL
MODEL 9
REMARK VINA RESULT:    -8.448      5.215      7.941
REMARK INTER + INTRA:         -12.802
REMARK INTER:                 -11.824
REMARK INTRA:                  -0.978
REMARK UNBOUND:                -0.897
REMARK  14 active torsions:
REMARK  status: ('A' for Active; 'I' for Inactive)
REMARK    1  A    between atoms: N3_2  and  C20_12 
REMARK    2  A    between atoms: C4_3  and  C5_4 
REMARK    3  A    between atoms: C13_9  and  N2_29 
REMARK    4  A    between atoms: C17_11  and  C19_33 
REMARK    5  A    between atoms: C20_12  and  C16_31 
REMARK    6  A    between atoms: C2_23  and  C3_24 
REMARK    7  A    between atoms: C9_25  and  C12_27 
REMARK       I    between atoms: C12_27  and  N2_29 
REMARK    8  A    between atoms: N3_41  and  C20_51 
REMARK    9  A    between atoms: C4_42  and  C5_43 
REMARK   10  A    between atoms: C13_48  and  N2_68 
REMARK   11  A    between atoms: C17_50  and  C19_72 
REMARK   12  A    between atoms: C20_51  and  C16_70 
REMARK   13  A    between atoms: C2_62  and  C3_63 
REMARK   14  A    between atoms: C9_64  and  C12_66 
REMARK       I    between atoms: C12_66  and  N2_68 
ROOT
HETATM    1  C12   D T1000       0.334   3.057  13.798  1.00 17.98     0.279 C 
HETATM    2  O1    D T1000       0.962   3.659  14.670  1.00 17.01    -0.265 OA
HETATM    3  N2    D T1000       0.871   2.830  12.479  1.00 17.28    -0.208 NA
ENDROOT
BRANCH   1   4
HETATM    4  C9    D T1000      -0.962   2.365  14.193  1.00 17.71     0.059 A 
HETATM    5  C8    D T1000      -2.242   2.822  13.849  1.00 17.52     0.004 A 
HETATM    6  C7    D T1000      -3.401   2.069  14.159  1.00 17.00    -0.004 A 
HETATM    7  C6    D T1000      -3.308   0.831  14.791  1.00 17.97    -0.014 A 
HETATM    8  C5    D T1000      -2.069   0.406  15.151  1.00 18.43     0.038 A 
HETATM    9  C11   D T1000      -4.494   0.003  15.149  1.00 16.62     0.032 C 
HETATM   10  C10   D T1000      -0.862   1.129  14.828  1.00 18.40     0.013 A 
BRANCH   8  11
HETATM   11  C4    D T1000      -1.806  -0.888  15.798  1.00 17.09    -0.058 C 
HETATM   12  C3    D T1000      -1.665  -1.907  16.310  1.00 17.10    -0.039 C 
BRANCH  12  13
HETATM   13  C2    D T1000      -1.565  -3.174  17.001  1.00 16.30     0.145 A 
HETATM   14  N82   D T1000      -0.535  -4.011  17.209  1.00 17.01    -0.203 N 
HETATM   15  N81   D T1000       0.780  -3.925  16.919  1.00 17.09    -0.162 NA
HETATM   16  C84   D T1000      -1.074  -5.098  17.868  1.00 17.67     0.165 A 
HETATM   17  C83   D T1000       1.592  -4.956  17.296  1.00 18.49     0.121 A 
HETATM   18  C82   D T1000       1.120  -6.053  17.969  1.00 18.11     0.026 A 
HETATM   19  C81   D T1000      -0.215  -6.150  18.276  1.00 17.49     0.041 A 
HETATM   20  N1    D T1000      -2.410  -4.913  18.022  1.00 17.94    -0.223 NA
HETATM   21  C1    D T1000      -2.738  -3.751  17.486  1.00 17.69     0.128 A 
ENDBRANCH  12  13
ENDBRANCH   8  11
ENDBRANCH   1   4
BRANCH   3  22
HETATM   22  C13   D T1000       2.149   3.240  11.928  1.00 16.63     0.085 A 
HETATM   23  C14   D T1000       2.414   4.510  11.498  1.00 16.52     0.019 A 
HETATM   24  C15   D T1000       3.638   4.835  10.895  1.00 16.39    -0.001 A 
HETATM   25  C16   D T1000       4.610   3.844  10.703  1.00 15.29     0.015 A 
HETATM   26  C17   D T1000       4.346   2.543  11.090  1.00 16.55     0.071 A 
HETATM   27  C18   D T1000       3.119   2.243  11.705  1.00 16.28     0.023 A 
BRANCH  25  28
HETATM   28  C20   D T1000       5.912   4.304  10.027  1.00 14.99     0.277 C 
BRANCH  28  29
HETATM   29  N3    D T1000       5.677   5.394   9.078  1.00 14.64     0.146 N 
HETATM   30  C21   D T1000       5.346   4.897   7.756  1.00 14.41     0.286 C 
HETATM   31  C22   D T1000       4.982   6.084   6.882  1.00 14.86     0.286 C 
HETATM   32  N4    D T1000       6.044   7.060   6.845  1.00 14.70     0.143 N 
HETATM   33  C23   D T1000       6.355   7.579   8.162  1.00 14.86     0.286 C 
HETATM   34  C25   D T1000       5.790   8.141   5.880  1.00 15.24     0.285 C 
HETATM   35  C24   D T1000       6.708   6.414   9.054  1.00 14.88     0.286 C 
ENDBRANCH  28  29
ENDBRANCH  25  28
BRANCH  26  36
HETATM   36  C19   D T1000       5.392   1.448  10.937  1.00 17.30     0.419 C 
HETATM   37  F1    D T1000       6.421   1.681  11.775  1.00 16.85    -0.166 F 
HETATM   38  F2    D T1000       5.830   1.322   9.675  1.00 16.63    -0.166 F 
HETATM   39  F3    D T1000       4.796   0.307  11.257  1.00 15.75    -0.166 F 
ENDBRANCH  26  36
ENDBRANCH   3  22
TORSDOF 14
ENDMDL
