MODEL 1
REMARK VINA RESULT:    -9.091      0.000      0.000
REMARK INTER + INTRA:         -13.936
REMARK INTER:                 -12.812
REMARK INTRA:                  -1.124
REMARK UNBOUND:                -1.124
REMARK  14 active torsions:
REMARK  status: ('A' for Active; 'I' for Inactive)
REMARK    1  A    between atoms: N3_2  and  C20_12 
REMARK    2  A    between atoms: C4_3  and  C5_4 
REMARK    3  A    between atoms: C13_9  and  N2_29 
REMARK    4  A    between atoms: C17_11  and  C19_33 
REMARK    5  A    between atoms: C20_12  and  C16_31 
REMARK    6  A    between atoms: C2_23  and  C3_24 
REMARK    7  A    between atoms: C9_25  and  C12_27 
REMARK       I    between atoms: C12_27  and  N2_29 
REMARK    8  A    between atoms: N3_41  and  C20_51 
REMARK    9  A    between atoms: C4_42  and  C5_43 
REMARK   10  A    between atoms: C13_48  and  N2_68 
REMARK   11  A    between atoms: C17_50  and  C19_72 
REMARK   12  A    between atoms: C20_51  and  C16_70 
REMARK   13  A    between atoms: C2_62  and  C3_63 
REMARK   14  A    between atoms: C9_64  and  C12_66 
REMARK       I    between atoms: C12_66  and  N2_68 
ROOT
HETATM    1  C12   D T1000       1.224   9.016   5.216  1.00 17.98     0.279 C 
HETATM    2  O1    D T1000       0.895  10.155   5.549  1.00 17.01    -0.265 OA
HETATM    3  N2    D T1000       2.269   8.765   4.254  1.00 17.28    -0.208 NA
ENDROOT
BRANCH   1   4
HETATM    4  C9    D T1000       0.644   7.844   5.993  1.00 17.71     0.059 A 
HETATM    5  C8    D T1000      -0.599   7.254   5.728  1.00 17.52     0.004 A 
HETATM    6  C7    D T1000      -1.030   6.095   6.422  1.00 17.00    -0.004 A 
HETATM    7  C6    D T1000      -0.217   5.484   7.373  1.00 17.97    -0.014 A 
HETATM    8  C5    D T1000       0.974   6.075   7.650  1.00 18.43     0.038 A 
HETATM    9  C11   D T1000      -0.624   4.271   8.139  1.00 16.62     0.032 C 
HETATM   10  C10   D T1000       1.460   7.237   6.946  1.00 18.40     0.013 A 
BRANCH   8  11
HETATM   11  C4    D T1000       1.951   5.534   8.606  1.00 17.09    -0.058 C 
HETATM   12  C3    D T1000       2.764   5.137   9.316  1.00 17.10    -0.039 C 
BRANCH  12  13
HETATM   13  C2    D T1000       3.841   4.629  10.138  1.00 16.30     0.145 A 
HETATM   14  N82   D T1000       5.174   4.628   9.978  1.00 17.01    -0.203 N 
HETATM   15  N81   D T1000       5.980   5.172   9.041  1.00 17.09    -0.162 NA
HETATM   16  C84   D T1000       5.672   3.927  11.059  1.00 17.67     0.165 A 
HETATM   17  C83   D T1000       7.329   5.013   9.180  1.00 18.49     0.121 A 
HETATM   18  C82   D T1000       7.883   4.345  10.240  1.00 18.11     0.026 A 
HETATM   19  C81   D T1000       7.076   3.792  11.204  1.00 17.49     0.041 A 
HETATM   20  N1    D T1000       4.639   3.498  11.830  1.00 17.94    -0.223 NA
HETATM   21  C1    D T1000       3.509   3.901  11.279  1.00 17.69     0.128 A 
ENDBRANCH  12  13
ENDBRANCH   8  11
ENDBRANCH   1   4
BRANCH   3  22
HETATM   22  C13   D T1000       3.078   9.714   3.515  1.00 16.63     0.085 A 
HETATM   23  C14   D T1000       4.133  10.394   4.058  1.00 16.52     0.019 A 
HETATM   24  C15   D T1000       4.830  11.365   3.323  1.00 16.39    -0.001 A 
HETATM   25  C16   D T1000       4.438  11.670   2.014  1.00 15.29     0.015 A 
HETATM   26  C17   D T1000       3.347  11.026   1.460  1.00 16.55     0.071 A 
HETATM   27  C18   D T1000       2.671  10.048   2.208  1.00 16.28     0.023 A 
BRANCH  25  28
HETATM   28  C20   D T1000       5.265  12.752   1.301  1.00 14.99     0.277 C 
BRANCH  28  29
HETATM   29  N3    D T1000       6.670  12.365   1.168  1.00 14.64     0.146 N 
HETATM   30  C21   D T1000       7.502  13.483   0.765  1.00 14.41     0.286 C 
HETATM   31  C22   D T1000       8.951  13.027   0.791  1.00 14.86     0.286 C 
HETATM   32  N4    D T1000       9.156  11.870  -0.043  1.00 14.70     0.143 N 
HETATM   33  C23   D T1000       8.348  10.743   0.375  1.00 14.86     0.286 C 
HETATM   34  C25   D T1000      10.576  11.504  -0.168  1.00 15.24     0.285 C 
HETATM   35  C24   D T1000       6.902  11.177   0.371  1.00 14.88     0.286 C 
ENDBRANCH  28  29
ENDBRANCH  25  28
BRANCH  26  36
HETATM   36  C19   D T1000       2.915  11.299   0.026  1.00 17.30     0.419 C 
HETATM   37  F1    D T1000       3.940  11.053  -0.813  1.00 16.85    -0.166 F 
HETATM   38  F2    D T1000       2.452  12.547  -0.147  1.00 16.63    -0.166 F 
HETATM   39  F3    D T1000       1.910  10.474  -0.231  1.00 15.75    -0.166 F 
ENDBRANCH  26  36
ENDBRANCH   3  22
TORSDOF 14
ENDMDL
MODEL 2
REMARK VINA RESULT:    -8.912      2.091      2.834
REMARK INTER + INTRA:         -13.683
REMARK INTER:                 -12.570
REMARK INTRA:                  -1.112
REMARK UNBOUND:                -1.124
REMARK  14 active torsions:
REMARK  status: ('A' for Active; 'I' for Inactive)
REMARK    1  A    between atoms: N3_2  and  C20_12 
REMARK    2  A    between atoms: C4_3  and  C5_4 
REMARK    3  A    between atoms: C13_9  and  N2_29 
REMARK    4  A    between atoms: C17_11  and  C19_33 
REMARK    5  A    between atoms: C20_12  and  C16_31 
REMARK    6  A    between atoms: C2_23  and  C3_24 
REMARK    7  A    between atoms: C9_25  and  C12_27 
REMARK       I    between atoms: C12_27  and  N2_29 
REMARK    8  A    between atoms: N3_41  and  C20_51 
REMARK    9  A    between atoms: C4_42  and  C5_43 
REMARK   10  A    between atoms: C13_48  and  N2_68 
REMARK   11  A    between atoms: C17_50  and  C19_72 
REMARK   12  A    between atoms: C20_51  and  C16_70 
REMARK   13  A    between atoms: C2_62  and  C3_63 
REMARK   14  A    between atoms: C9_64  and  C12_66 
REMARK       I    between atoms: C12_66  and  N2_68 
ROOT
HETATM    1  C12   D T1000       1.348   9.112   4.801  1.00 17.98     0.279 C 
HETATM    2  O1    D T1000       1.221  10.273   5.193  1.00 17.01    -0.265 OA
HETATM    3  N2    D T1000       2.264   8.749   3.749  1.00 17.28    -0.208 NA
ENDROOT
BRANCH   1   4
HETATM    4  C9    D T1000       0.660   8.008   5.591  1.00 17.71     0.059 A 
HETATM    5  C8    D T1000      -0.612   7.499   5.300  1.00 17.52     0.004 A 
HETATM    6  C7    D T1000      -1.147   6.395   6.011  1.00 17.00    -0.004 A 
HETATM    7  C6    D T1000      -0.410   5.758   7.008  1.00 17.97    -0.014 A 
HETATM    8  C5    D T1000       0.810   6.273   7.309  1.00 18.43     0.038 A 
HETATM    9  C11   D T1000      -0.927   4.601   7.793  1.00 16.62     0.032 C 
HETATM   10  C10   D T1000       1.400   7.376   6.589  1.00 18.40     0.013 A 
BRANCH   8  11
HETATM   11  C4    D T1000       1.714   5.695   8.314  1.00 17.09    -0.058 C 
HETATM   12  C3    D T1000       2.472   5.262   9.062  1.00 17.10    -0.039 C 
BRANCH  12  13
HETATM   13  C2    D T1000       3.482   4.700   9.932  1.00 16.30     0.145 A 
HETATM   14  N82   D T1000       4.821   4.658   9.852  1.00 17.01    -0.203 N 
HETATM   15  N81   D T1000       5.699   5.195   8.977  1.00 17.09    -0.162 NA
HETATM   16  C84   D T1000       5.231   3.916  10.942  1.00 17.67     0.165 A 
HETATM   17  C83   D T1000       7.031   4.989   9.192  1.00 18.49     0.121 A 
HETATM   18  C82   D T1000       7.499   4.279  10.266  1.00 18.11     0.026 A 
HETATM   19  C81   D T1000       6.619   3.731  11.167  1.00 17.49     0.041 A 
HETATM   20  N1    D T1000       4.141   3.504  11.640  1.00 17.94    -0.223 NA
HETATM   21  C1    D T1000       3.059   3.957  11.034  1.00 17.69     0.128 A 
ENDBRANCH  12  13
ENDBRANCH   8  11
ENDBRANCH   1   4
BRANCH   3  22
HETATM   22  C13   D T1000       3.146   9.597   2.972  1.00 16.63     0.085 A 
HETATM   23  C14   D T1000       2.712  10.439   1.987  1.00 16.52     0.019 A 
HETATM   24  C15   D T1000       3.616  11.175   1.206  1.00 16.39    -0.001 A 
HETATM   25  C16   D T1000       4.994  11.040   1.414  1.00 15.29     0.015 A 
HETATM   26  C17   D T1000       5.457  10.161   2.375  1.00 16.55     0.071 A 
HETATM   27  C18   D T1000       4.535   9.443   3.155  1.00 16.28     0.023 A 
BRANCH  25  28
HETATM   28  C20   D T1000       5.896  11.886   0.500  1.00 14.99     0.277 C 
BRANCH  28  29
HETATM   29  N3    D T1000       5.680  13.321   0.698  1.00 14.64     0.146 N 
HETATM   30  C21   D T1000       6.155  14.099  -0.430  1.00 14.41     0.286 C 
HETATM   31  C22   D T1000       5.763  15.548  -0.202  1.00 14.86     0.286 C 
HETATM   32  N4    D T1000       6.274  16.043   1.051  1.00 14.70     0.143 N 
HETATM   33  C23   D T1000       5.779  15.286   2.182  1.00 14.86     0.286 C 
HETATM   34  C25   D T1000       6.052  17.488   1.225  1.00 15.24     0.285 C 
HETATM   35  C24   D T1000       6.143  13.837   1.971  1.00 14.88     0.286 C 
ENDBRANCH  28  29
ENDBRANCH  25  28
BRANCH  26  36
HETATM   36  C19   D T1000       6.946  10.017   2.660  1.00 17.30     0.419 C 
HETATM   37  F1    D T1000       7.368  11.051   3.413  1.00 16.85    -0.166 F 
HETATM   38  F2    D T1000       7.680   9.917   1.541  1.00 16.63    -0.166 F 
HETATM   39  F3    D T1000       7.096   8.880   3.325  1.00 15.75    -0.166 F 
ENDBRANCH  26  36
ENDBRANCH   3  22
TORSDOF 14
ENDMDL
MODEL 3
REMARK VINA RESULT:    -8.888      3.760      5.365
REMARK INTER + INTRA:         -13.649
REMARK INTER:                 -12.641
REMARK INTRA:                  -1.007
REMARK UNBOUND:                -1.124
REMARK  14 active torsions:
REMARK  status: ('A' for Active; 'I' for Inactive)
REMARK    1  A    between atoms: N3_2  and  C20_12 
REMARK    2  A    between atoms: C4_3  and  C5_4 
REMARK    3  A    between atoms: C13_9  and  N2_29 
REMARK    4  A    between atoms: C17_11  and  C19_33 
REMARK    5  A    between atoms: C20_12  and  C16_31 
REMARK    6  A    between atoms: C2_23  and  C3_24 
REMARK    7  A    between atoms: C9_25  and  C12_27 
REMARK       I    between atoms: C12_27  and  N2_29 
REMARK    8  A    between atoms: N3_41  and  C20_51 
REMARK    9  A    between atoms: C4_42  and  C5_43 
REMARK   10  A    between atoms: C13_48  and  N2_68 
REMARK   11  A    between atoms: C17_50  and  C19_72 
REMARK   12  A    between atoms: C20_51  and  C16_70 
REMARK   13  A    between atoms: C2_62  and  C3_63 
REMARK   14  A    between atoms: C9_64  and  C12_66 
REMARK       I    between atoms: C12_66  and  N2_68 
ROOT
HETATM    1  C12   D T1000       3.835  10.096   2.346  1.00 17.98     0.279 C 
HETATM    2  O1    D T1000       2.957  10.788   2.864  1.00 17.01    -0.265 OA
HETATM    3  N2    D T1000       4.273  10.295   0.987  1.00 17.28    -0.208 NA
ENDROOT
BRANCH   1   4
HETATM    4  C9    D T1000       4.614   9.139   3.236  1.00 17.71     0.059 A 
HETATM    5  C8    D T1000       6.003   8.960   3.185  1.00 17.52     0.004 A 
HETATM    6  C7    D T1000       6.676   8.132   4.118  1.00 17.00    -0.004 A 
HETATM    7  C6    D T1000       5.981   7.489   5.140  1.00 17.97    -0.014 A 
HETATM    8  C5    D T1000       4.631   7.639   5.169  1.00 18.43     0.038 A 
HETATM    9  C11   D T1000       6.636   6.600   6.141  1.00 16.62     0.032 C 
HETATM   10  C10   D T1000       3.914   8.496   4.256  1.00 18.40     0.013 A 
BRANCH   8  11
HETATM   11  C4    D T1000       3.766   7.048   6.200  1.00 17.09    -0.058 C 
HETATM   12  C3    D T1000       3.142   6.553   7.029  1.00 17.10    -0.039 C 
BRANCH  12  13
HETATM   13  C2    D T1000       2.411   5.856   8.065  1.00 16.30     0.145 A 
HETATM   14  N82   D T1000       2.799   4.996   9.020  1.00 17.01    -0.203 N 
HETATM   15  N81   D T1000       4.013   4.544   9.401  1.00 17.09    -0.162 NA
HETATM   16  C84   D T1000       1.637   4.607   9.657  1.00 17.67     0.165 A 
HETATM   17  C83   D T1000       4.076   3.675  10.453  1.00 18.49     0.121 A 
HETATM   18  C82   D T1000       2.961   3.269  11.137  1.00 18.11     0.026 A 
HETATM   19  C81   D T1000       1.720   3.725  10.764  1.00 17.49     0.041 A 
HETATM   20  N1    D T1000       0.576   5.214   9.064  1.00 17.94    -0.223 NA
HETATM   21  C1    D T1000       1.022   5.970   8.078  1.00 17.69     0.128 A 
ENDBRANCH  12  13
ENDBRANCH   8  11
ENDBRANCH   1   4
BRANCH   3  22
HETATM   22  C13   D T1000       3.803  11.254   0.006  1.00 16.63     0.085 A 
HETATM   23  C14   D T1000       4.461  12.413  -0.295  1.00 16.52     0.019 A 
HETATM   24  C15   D T1000       3.920  13.348  -1.190  1.00 16.39    -0.001 A 
HETATM   25  C16   D T1000       2.672  13.113  -1.780  1.00 15.29     0.015 A 
HETATM   26  C17   D T1000       1.968  11.967  -1.457  1.00 16.55     0.071 A 
HETATM   27  C18   D T1000       2.534  11.038  -0.568  1.00 16.28     0.023 A 
BRANCH  25  28
HETATM   28  C20   D T1000       2.168  14.203  -2.740  1.00 14.99     0.277 C 
BRANCH  28  29
HETATM   29  N3    D T1000       3.170  14.544  -3.752  1.00 14.64     0.146 N 
HETATM   30  C21   D T1000       2.918  15.843  -4.345  1.00 14.41     0.286 C 
HETATM   31  C22   D T1000       4.076  16.172  -5.272  1.00 14.86     0.286 C 
HETATM   32  N4    D T1000       4.263  15.147  -6.268  1.00 14.70     0.143 N 
HETATM   33  C23   D T1000       4.544  13.855  -5.679  1.00 14.86     0.286 C 
HETATM   34  C25   D T1000       5.268  15.514  -7.279  1.00 15.24     0.285 C 
HETATM   35  C24   D T1000       3.412  13.512  -4.741  1.00 14.88     0.286 C 
ENDBRANCH  28  29
ENDBRANCH  25  28
BRANCH  26  36
HETATM   36  C19   D T1000       0.628  11.656  -2.109  1.00 17.30     0.419 C 
HETATM   37  F1    D T1000       0.730  11.789  -3.445  1.00 16.85    -0.166 F 
HETATM   38  F2    D T1000      -0.369  12.418  -1.633  1.00 16.63    -0.166 F 
HETATM   39  F3    D T1000       0.338  10.400  -1.798  1.00 15.75    -0.166 F 
ENDBRANCH  26  36
ENDBRANCH   3  22
TORSDOF 14
ENDMDL
MODEL 4
REMARK VINA RESULT:    -8.808      2.002      3.026
REMARK INTER + INTRA:         -13.537
REMARK INTER:                 -12.946
REMARK INTRA:                  -0.591
REMARK UNBOUND:                -1.124
REMARK  14 active torsions:
REMARK  status: ('A' for Active; 'I' for Inactive)
REMARK    1  A    between atoms: N3_2  and  C20_12 
REMARK    2  A    between atoms: C4_3  and  C5_4 
REMARK    3  A    between atoms: C13_9  and  N2_29 
REMARK    4  A    between atoms: C17_11  and  C19_33 
REMARK    5  A    between atoms: C20_12  and  C16_31 
REMARK    6  A    between atoms: C2_23  and  C3_24 
REMARK    7  A    between atoms: C9_25  and  C12_27 
REMARK       I    between atoms: C12_27  and  N2_29 
REMARK    8  A    between atoms: N3_41  and  C20_51 
REMARK    9  A    between atoms: C4_42  and  C5_43 
REMARK   10  A    between atoms: C13_48  and  N2_68 
REMARK   11  A    between atoms: C17_50  and  C19_72 
REMARK   12  A    between atoms: C20_51  and  C16_70 
REMARK   13  A    between atoms: C2_62  and  C3_63 
REMARK   14  A    between atoms: C9_64  and  C12_66 
REMARK       I    between atoms: C12_66  and  N2_68 
ROOT
HETATM    1  C12   D T1000       1.143   9.143   5.351  1.00 17.98     0.279 C 
HETATM    2  O1    D T1000       0.899  10.266   5.794  1.00 17.01    -0.265 OA
HETATM    3  N2    D T1000       2.083   8.924   4.280  1.00 17.28    -0.208 NA
ENDROOT
BRANCH   1   4
HETATM    4  C9    D T1000       0.582   7.940   6.093  1.00 17.71     0.059 A 
HETATM    5  C8    D T1000      -0.689   7.393   5.873  1.00 17.52     0.004 A 
HETATM    6  C7    D T1000      -1.106   6.205   6.524  1.00 17.00    -0.004 A 
HETATM    7  C6    D T1000      -0.252   5.521   7.386  1.00 17.97    -0.014 A 
HETATM    8  C5    D T1000       0.968   6.069   7.622  1.00 18.43     0.038 A 
HETATM    9  C11   D T1000      -0.642   4.274   8.104  1.00 16.62     0.032 C 
HETATM   10  C10   D T1000       1.439   7.260   6.957  1.00 18.40     0.013 A 
BRANCH   8  11
HETATM   11  C4    D T1000       1.988   5.451   8.482  1.00 17.09    -0.058 C 
HETATM   12  C3    D T1000       2.783   5.023   9.193  1.00 17.10    -0.039 C 
BRANCH  12  13
HETATM   13  C2    D T1000       3.812   4.569  10.103  1.00 16.30     0.145 A 
HETATM   14  N82   D T1000       5.153   4.570  10.024  1.00 17.01    -0.203 N 
HETATM   15  N81   D T1000       6.010   5.070   9.108  1.00 17.09    -0.162 NA
HETATM   16  C84   D T1000       5.589   3.932  11.168  1.00 17.67     0.165 A 
HETATM   17  C83   D T1000       7.349   4.930   9.336  1.00 18.49     0.121 A 
HETATM   18  C82   D T1000       7.842   4.325  10.461  1.00 18.11     0.026 A 
HETATM   19  C81   D T1000       6.982   3.817  11.404  1.00 17.49     0.041 A 
HETATM   20  N1    D T1000       4.514   3.537  11.898  1.00 17.94    -0.223 NA
HETATM   21  C1    D T1000       3.416   3.900  11.260  1.00 17.69     0.128 A 
ENDBRANCH  12  13
ENDBRANCH   8  11
ENDBRANCH   1   4
BRANCH   3  22
HETATM   22  C13   D T1000       2.865   9.893   3.537  1.00 16.63     0.085 A 
HETATM   23  C14   D T1000       2.367  11.086   3.092  1.00 16.52     0.019 A 
HETATM   24  C15   D T1000       3.142  11.950   2.304  1.00 16.39    -0.001 A 
HETATM   25  C16   D T1000       4.445  11.590   1.940  1.00 15.29     0.015 A 
HETATM   26  C17   D T1000       4.953  10.368   2.342  1.00 16.55     0.071 A 
HETATM   27  C18   D T1000       4.166   9.524   3.142  1.00 16.28     0.023 A 
BRANCH  25  28
HETATM   28  C20   D T1000       5.204  12.606   1.071  1.00 14.99     0.277 C 
BRANCH  28  29
HETATM   29  N3    D T1000       4.392  13.075  -0.054  1.00 14.64     0.146 N 
HETATM   30  C21   D T1000       3.779  11.975  -0.773  1.00 14.41     0.286 C 
HETATM   31  C22   D T1000       2.851  12.557  -1.825  1.00 14.86     0.286 C 
HETATM   32  N4    D T1000       3.549  13.459  -2.706  1.00 14.70     0.143 N 
HETATM   33  C23   D T1000       4.137  14.574  -1.993  1.00 14.86     0.286 C 
HETATM   34  C25   D T1000       2.717  13.911  -3.832  1.00 15.24     0.285 C 
HETATM   35  C24   D T1000       5.055  14.019  -0.931  1.00 14.88     0.286 C 
ENDBRANCH  28  29
ENDBRANCH  25  28
BRANCH  26  36
HETATM   36  C19   D T1000       6.380   9.958   2.002  1.00 17.30     0.419 C 
HETATM   37  F1    D T1000       7.248  10.815   2.574  1.00 16.85    -0.166 F 
HETATM   38  F2    D T1000       6.595   9.880   0.680  1.00 16.63    -0.166 F 
HETATM   39  F3    D T1000       6.551   8.740   2.496  1.00 15.75    -0.166 F 
ENDBRANCH  26  36
ENDBRANCH   3  22
TORSDOF 14
ENDMDL
MODEL 5
REMARK VINA RESULT:    -8.764      2.184      2.664
REMARK INTER + INTRA:         -13.475
REMARK INTER:                 -12.446
REMARK INTRA:                  -1.029
REMARK UNBOUND:                -1.124
REMARK  14 active torsions:
REMARK  status: ('A' for Active; 'I' for Inactive)
REMARK    1  A    between atoms: N3_2  and  C20_12 
REMARK    2  A    between atoms: C4_3  and  C5_4 
REMARK    3  A    between atoms: C13_9  and  N2_29 
REMARK    4  A    between atoms: C17_11  and  C19_33 
REMARK    5  A    between atoms: C20_12  and  C16_31 
REMARK    6  A    between atoms: C2_23  and  C3_24 
REMARK    7  A    between atoms: C9_25  and  C12_27 
REMARK       I    between atoms: C12_27  and  N2_29 
REMARK    8  A    between atoms: N3_41  and  C20_51 
REMARK    9  A    between atoms: C4_42  and  C5_43 
REMARK   10  A    between atoms: C13_48  and  N2_68 
REMARK   11  A    between atoms: C17_50  and  C19_72 
REMARK   12  A    between atoms: C20_51  and  C16_70 
REMARK   13  A    between atoms: C2_62  and  C3_63 
REMARK   14  A    between atoms: C9_64  and  C12_66 
REMARK       I    between atoms: C12_66  and  N2_68 
ROOT
HETATM    1  C12   D T1000       1.369   9.530   5.005  1.00 17.98     0.279 C 
HETATM    2  O1    D T1000       0.903  10.657   5.183  1.00 17.01    -0.265 OA
HETATM    3  N2    D T1000       2.650   9.316   4.379  1.00 17.28    -0.208 NA
ENDROOT
BRANCH   1   4
HETATM    4  C9    D T1000       0.657   8.349   5.646  1.00 17.71     0.059 A 
HETATM    5  C8    D T1000      -0.603   7.875   5.256  1.00 17.52     0.004 A 
HETATM    6  C7    D T1000      -1.160   6.702   5.824  1.00 17.00    -0.004 A 
HETATM    7  C6    D T1000      -0.458   5.960   6.772  1.00 17.97    -0.014 A 
HETATM    8  C5    D T1000       0.749   6.438   7.171  1.00 18.43     0.038 A 
HETATM    9  C11   D T1000      -0.999   4.726   7.409  1.00 16.62     0.032 C 
HETATM   10  C10   D T1000       1.362   7.612   6.596  1.00 18.40     0.013 A 
BRANCH   8  11
HETATM   11  C4    D T1000       1.618   5.754   8.139  1.00 17.09    -0.058 C 
HETATM   12  C3    D T1000       2.336   5.274   8.899  1.00 17.10    -0.039 C 
BRANCH  12  13
HETATM   13  C2    D T1000       3.305   4.722   9.820  1.00 16.30     0.145 A 
HETATM   14  N82   D T1000       4.646   4.670   9.796  1.00 17.01    -0.203 N 
HETATM   15  N81   D T1000       5.562   5.188   8.949  1.00 17.09    -0.162 NA
HETATM   16  C84   D T1000       5.006   3.945  10.914  1.00 17.67     0.165 A 
HETATM   17  C83   D T1000       6.883   4.977   9.223  1.00 18.49     0.121 A 
HETATM   18  C82   D T1000       7.302   4.283  10.327  1.00 18.11     0.026 A 
HETATM   19  C81   D T1000       6.382   3.756  11.199  1.00 17.49     0.041 A 
HETATM   20  N1    D T1000       3.885   3.551  11.573  1.00 17.94    -0.223 NA
HETATM   21  C1    D T1000       2.832   4.000  10.916  1.00 17.69     0.128 A 
ENDBRANCH  12  13
ENDBRANCH   8  11
ENDBRANCH   1   4
BRANCH   3  22
HETATM   22  C13   D T1000       3.582  10.290   3.847  1.00 16.63     0.085 A 
HETATM   23  C14   D T1000       3.234  11.258   2.947  1.00 16.52     0.019 A 
HETATM   24  C15   D T1000       4.194  12.123   2.399  1.00 16.39    -0.001 A 
HETATM   25  C16   D T1000       5.541  11.992   2.755  1.00 15.29     0.015 A 
HETATM   26  C17   D T1000       5.922  10.991   3.630  1.00 16.55     0.071 A 
HETATM   27  C18   D T1000       4.944  10.145   4.177  1.00 16.28     0.023 A 
BRANCH  25  28
HETATM   28  C20   D T1000       6.510  12.985   2.092  1.00 14.99     0.277 C 
BRANCH  28  29
HETATM   29  N3    D T1000       6.762  12.647   0.690  1.00 14.64     0.146 N 
HETATM   30  C21   D T1000       8.092  12.102   0.495  1.00 14.41     0.286 C 
HETATM   31  C22   D T1000       8.212  11.652  -0.950  1.00 14.86     0.286 C 
HETATM   32  N4    D T1000       7.928  12.730  -1.865  1.00 14.70     0.143 N 
HETATM   33  C23   D T1000       6.590  13.256  -1.692  1.00 14.86     0.286 C 
HETATM   34  C25   D T1000       8.195  12.371  -3.267  1.00 15.24     0.285 C 
HETATM   35  C24   D T1000       6.441  13.697  -0.257  1.00 14.88     0.286 C 
ENDBRANCH  28  29
ENDBRANCH  25  28
BRANCH  26  36
HETATM   36  C19   D T1000       7.372  10.842   4.073  1.00 17.30     0.419 C 
HETATM   37  F1    D T1000       7.845  12.033   4.489  1.00 16.85    -0.166 F 
HETATM   38  F2    D T1000       8.157  10.330   3.113  1.00 16.63    -0.166 F 
HETATM   39  F3    D T1000       7.373   9.977   5.078  1.00 15.75    -0.166 F 
ENDBRANCH  26  36
ENDBRANCH   3  22
TORSDOF 14
ENDMDL
MODEL 6
REMARK VINA RESULT:    -8.727      4.137     12.228
REMARK INTER + INTRA:         -13.422
REMARK INTER:                 -13.340
REMARK INTRA:                  -0.082
REMARK UNBOUND:                -1.124
REMARK  14 active torsions:
REMARK  status: ('A' for Active; 'I' for Inactive)
REMARK    1  A    between atoms: N3_2  and  C20_12 
REMARK    2  A    between atoms: C4_3  and  C5_4 
REMARK    3  A    between atoms: C13_9  and  N2_29 
REMARK    4  A    between atoms: C17_11  and  C19_33 
REMARK    5  A    between atoms: C20_12  and  C16_31 
REMARK    6  A    between atoms: C2_23  and  C3_24 
REMARK    7  A    between atoms: C9_25  and  C12_27 
REMARK       I    between atoms: C12_27  and  N2_29 
REMARK    8  A    between atoms: N3_41  and  C20_51 
REMARK    9  A    between atoms: C4_42  and  C5_43 
REMARK   10  A    between atoms: C13_48  and  N2_68 
REMARK   11  A    between atoms: C17_50  and  C19_72 
REMARK   12  A    between atoms: C20_51  and  C16_70 
REMARK   13  A    between atoms: C2_62  and  C3_63 
REMARK   14  A    between atoms: C9_64  and  C12_66 
REMARK       I    between atoms: C12_66  and  N2_68 
ROOT
HETATM    1  C12   D T1000       3.432   8.984   3.129  1.00 17.98     0.279 C 
HETATM    2  O1    D T1000       3.706   7.802   2.912  1.00 17.01    -0.265 OA
HETATM    3  N2    D T1000       2.733   9.409   4.316  1.00 17.28    -0.208 NA
ENDROOT
BRANCH   1   4
HETATM    4  C9    D T1000       4.027  10.039   2.209  1.00 17.71     0.059 A 
HETATM    5  C8    D T1000       5.400  10.279   2.061  1.00 17.52     0.004 A 
HETATM    6  C7    D T1000       5.890  11.204   1.105  1.00 17.00    -0.004 A 
HETATM    7  C6    D T1000       5.021  11.888   0.256  1.00 17.97    -0.014 A 
HETATM    8  C5    D T1000       3.690  11.676   0.423  1.00 18.43     0.038 A 
HETATM    9  C11   D T1000       5.480  12.878  -0.759  1.00 16.62     0.032 C 
HETATM   10  C10   D T1000       3.155  10.722   1.364  1.00 18.40     0.013 A 
BRANCH   8  11
HETATM   11  C4    D T1000       2.654  12.300  -0.413  1.00 17.09    -0.058 C 
HETATM   12  C3    D T1000       1.872  12.847  -1.055  1.00 17.10    -0.039 C 
BRANCH  12  13
HETATM   13  C2    D T1000       0.901  13.607  -1.810  1.00 16.30     0.145 A 
HETATM   14  N82   D T1000       0.897  14.872  -2.261  1.00 17.01    -0.203 N 
HETATM   15  N81   D T1000       1.829  15.849  -2.241  1.00 17.09    -0.162 NA
HETATM   16  C84   D T1000      -0.342  15.049  -2.846  1.00 17.67     0.165 A 
HETATM   17  C83   D T1000       1.521  17.045  -2.823  1.00 18.49     0.121 A 
HETATM   18  C82   D T1000       0.317  17.274  -3.436  1.00 18.11     0.026 A 
HETATM   19  C81   D T1000      -0.638  16.288  -3.468  1.00 17.49     0.041 A 
HETATM   20  N1    D T1000      -1.067  13.908  -2.715  1.00 17.94    -0.223 NA
HETATM   21  C1    D T1000      -0.335  13.018  -2.072  1.00 17.69     0.128 A 
ENDBRANCH  12  13
ENDBRANCH   8  11
ENDBRANCH   1   4
BRANCH   3  22
HETATM   22  C13   D T1000       2.222   8.609   5.412  1.00 16.63     0.085 A 
HETATM   23  C14   D T1000       3.015   8.053   6.376  1.00 16.52     0.019 A 
HETATM   24  C15   D T1000       2.479   7.216   7.367  1.00 16.39    -0.001 A 
HETATM   25  C16   D T1000       1.111   6.919   7.370  1.00 15.29     0.015 A 
HETATM   26  C17   D T1000       0.297   7.435   6.378  1.00 16.55     0.071 A 
HETATM   27  C18   D T1000       0.851   8.281   5.403  1.00 16.28     0.023 A 
BRANCH  25  28
HETATM   28  C20   D T1000       0.629   5.988   8.495  1.00 14.99     0.277 C 
BRANCH  28  29
HETATM   29  N3    D T1000       1.736   5.245   9.100  1.00 14.64     0.146 N 
HETATM   30  C21   D T1000       1.268   4.107   9.867  1.00 14.41     0.286 C 
HETATM   31  C22   D T1000       2.480   3.322  10.335  1.00 14.86     0.286 C 
HETATM   32  N4    D T1000       3.387   4.150  11.091  1.00 14.70     0.143 N 
HETATM   33  C23   D T1000       3.879   5.271  10.318  1.00 14.86     0.286 C 
HETATM   34  C25   D T1000       4.487   3.382  11.696  1.00 15.24     0.285 C 
HETATM   35  C24   D T1000       2.689   6.060   9.828  1.00 14.88     0.286 C 
ENDBRANCH  28  29
ENDBRANCH  25  28
BRANCH  26  36
HETATM   36  C19   D T1000      -1.202   7.169   6.370  1.00 17.30     0.419 C 
HETATM   37  F1    D T1000      -1.781   7.798   7.412  1.00 16.85    -0.166 F 
HETATM   38  F2    D T1000      -1.496   5.859   6.386  1.00 16.63    -0.166 F 
HETATM   39  F3    D T1000      -1.668   7.657   5.229  1.00 15.75    -0.166 F 
ENDBRANCH  26  36
ENDBRANCH   3  22
TORSDOF 14
ENDMDL
MODEL 7
REMARK VINA RESULT:    -8.594      5.046     11.037
REMARK INTER + INTRA:         -13.235
REMARK INTER:                 -12.363
REMARK INTRA:                  -0.871
REMARK UNBOUND:                -1.124
REMARK  14 active torsions:
REMARK  status: ('A' for Active; 'I' for Inactive)
REMARK    1  A    between atoms: N3_2  and  C20_12 
REMARK    2  A    between atoms: C4_3  and  C5_4 
REMARK    3  A    between atoms: C13_9  and  N2_29 
REMARK    4  A    between atoms: C17_11  and  C19_33 
REMARK    5  A    between atoms: C20_12  and  C16_31 
REMARK    6  A    between atoms: C2_23  and  C3_24 
REMARK    7  A    between atoms: C9_25  and  C12_27 
REMARK       I    between atoms: C12_27  and  N2_29 
REMARK    8  A    between atoms: N3_41  and  C20_51 
REMARK    9  A    between atoms: C4_42  and  C5_43 
REMARK   10  A    between atoms: C13_48  and  N2_68 
REMARK   11  A    between atoms: C17_50  and  C19_72 
REMARK   12  A    between atoms: C20_51  and  C16_70 
REMARK   13  A    between atoms: C2_62  and  C3_63 
REMARK   14  A    between atoms: C9_64  and  C12_66 
REMARK       I    between atoms: C12_66  and  N2_68 
ROOT
HETATM    1  C12   D T1000       2.344   4.389  10.057  1.00 17.98     0.279 C 
HETATM    2  O1    D T1000       1.921   3.364  10.593  1.00 17.01    -0.265 OA
HETATM    3  N2    D T1000       3.706   4.835  10.215  1.00 17.28    -0.208 NA
ENDROOT
BRANCH   1   4
HETATM    4  C9    D T1000       1.454   5.091   9.043  1.00 17.71     0.059 A 
HETATM    5  C8    D T1000       0.056   4.996   9.015  1.00 17.52     0.004 A 
HETATM    6  C7    D T1000      -0.719   5.763   8.109  1.00 17.00    -0.004 A 
HETATM    7  C6    D T1000      -0.117   6.663   7.232  1.00 17.97    -0.014 A 
HETATM    8  C5    D T1000       1.240   6.730   7.239  1.00 18.43     0.038 A 
HETATM    9  C11   D T1000      -0.881   7.486   6.252  1.00 16.62     0.032 C 
HETATM   10  C10   D T1000       2.061   5.987   8.165  1.00 18.40     0.013 A 
BRANCH   8  11
HETATM   11  C4    D T1000       2.016   7.648   6.395  1.00 17.09    -0.058 C 
HETATM   12  C3    D T1000       2.660   8.315   5.713  1.00 17.10    -0.039 C 
BRANCH  12  13
HETATM   13  C2    D T1000       3.538   9.097   4.871  1.00 16.30     0.145 A 
HETATM   14  N82   D T1000       4.805   8.908   4.466  1.00 17.01    -0.203 N 
HETATM   15  N81   D T1000       5.672   7.886   4.634  1.00 17.09    -0.162 NA
HETATM   16  C84   D T1000       5.129  10.036   3.739  1.00 17.67     0.165 A 
HETATM   17  C83   D T1000       6.906   7.989   4.061  1.00 18.49     0.121 A 
HETATM   18  C82   D T1000       7.280   9.073   3.312  1.00 18.11     0.026 A 
HETATM   19  C81   D T1000       6.406  10.117   3.128  1.00 17.49     0.041 A 
HETATM   20  N1    D T1000       4.073  10.890   3.740  1.00 17.94    -0.223 NA
HETATM   21  C1    D T1000       3.094  10.345   4.438  1.00 17.69     0.128 A 
ENDBRANCH  12  13
ENDBRANCH   8  11
ENDBRANCH   1   4
BRANCH   3  22
HETATM   22  C13   D T1000       4.780   4.241  10.987  1.00 16.63     0.085 A 
HETATM   23  C14   D T1000       4.599   3.655  12.209  1.00 16.52     0.019 A 
HETATM   24  C15   D T1000       5.685   3.171  12.953  1.00 16.39    -0.001 A 
HETATM   25  C16   D T1000       6.988   3.300  12.458  1.00 15.29     0.015 A 
HETATM   26  C17   D T1000       7.199   3.928  11.244  1.00 16.55     0.071 A 
HETATM   27  C18   D T1000       6.096   4.394  10.509  1.00 16.28     0.023 A 
BRANCH  25  28
HETATM   28  C20   D T1000       8.105   2.742  13.355  1.00 14.99     0.277 C 
BRANCH  28  29
HETATM   29  N3    D T1000       8.840   3.809  14.037  1.00 14.64     0.146 N 
HETATM   30  C21   D T1000      10.274   3.603  13.974  1.00 14.41     0.286 C 
HETATM   31  C22   D T1000      10.953   4.820  14.578  1.00 14.86     0.286 C 
HETATM   32  N4    D T1000      10.499   5.066  15.924  1.00 14.70     0.143 N 
HETATM   33  C23   D T1000       9.071   5.301  15.986  1.00 14.86     0.286 C 
HETATM   34  C25   D T1000      11.256   6.136  16.593  1.00 15.24     0.285 C 
HETATM   35  C24   D T1000       8.374   4.109  15.377  1.00 14.88     0.286 C 
ENDBRANCH  28  29
ENDBRANCH  25  28
BRANCH  26  36
HETATM   36  C19   D T1000       8.596   4.052  10.652  1.00 17.30     0.419 C 
HETATM   37  F1    D T1000       9.261   2.891  10.810  1.00 16.85    -0.166 F 
HETATM   38  F2    D T1000       9.293   5.071  11.178  1.00 16.63    -0.166 F 
HETATM   39  F3    D T1000       8.440   4.313   9.362  1.00 15.75    -0.166 F 
ENDBRANCH  26  36
ENDBRANCH   3  22
TORSDOF 14
ENDMDL
MODEL 8
REMARK VINA RESULT:    -8.480      3.137      4.101
REMARK INTER + INTRA:         -13.075
REMARK INTER:                 -11.847
REMARK INTRA:                  -1.228
REMARK UNBOUND:                -1.124
REMARK  14 active torsions:
REMARK  status: ('A' for Active; 'I' for Inactive)
REMARK    1  A    between atoms: N3_2  and  C20_12 
REMARK    2  A    between atoms: C4_3  and  C5_4 
REMARK    3  A    between atoms: C13_9  and  N2_29 
REMARK    4  A    between atoms: C17_11  and  C19_33 
REMARK    5  A    between atoms: C20_12  and  C16_31 
REMARK    6  A    between atoms: C2_23  and  C3_24 
REMARK    7  A    between atoms: C9_25  and  C12_27 
REMARK       I    between atoms: C12_27  and  N2_29 
REMARK    8  A    between atoms: N3_41  and  C20_51 
REMARK    9  A    between atoms: C4_42  and  C5_43 
REMARK   10  A    between atoms: C13_48  and  N2_68 
REMARK   11  A    between atoms: C17_50  and  C19_72 
REMARK   12  A    between atoms: C20_51  and  C16_70 
REMARK   13  A    between atoms: C2_62  and  C3_63 
REMARK   14  A    between atoms: C9_64  and  C12_66 
REMARK       I    between atoms: C12_66  and  N2_68 
ROOT
HETATM    1  C12   D T1000       3.125   7.537   6.999  1.00 17.98     0.279 C 
HETATM    2  O1    D T1000       2.953   8.737   7.222  1.00 17.01    -0.265 OA
HETATM    3  N2    D T1000       3.971   7.065   5.932  1.00 17.28    -0.208 NA
ENDROOT
BRANCH   1   4
HETATM    4  C9    D T1000       2.583   6.535   8.007  1.00 17.71     0.059 A 
HETATM    5  C8    D T1000       1.250   6.108   8.063  1.00 17.52     0.004 A 
HETATM    6  C7    D T1000       0.837   5.090   8.959  1.00 17.00    -0.004 A 
HETATM    7  C6    D T1000       1.752   4.454   9.795  1.00 17.97    -0.014 A 
HETATM    8  C5    D T1000       3.037   4.890   9.760  1.00 18.43     0.038 A 
HETATM    9  C11   D T1000       1.371   3.385  10.762  1.00 16.62     0.032 C 
HETATM   10  C10   D T1000       3.502   5.904   8.844  1.00 18.40     0.013 A 
BRANCH   8  11
HETATM   11  C4    D T1000       4.121   4.302  10.561  1.00 17.09    -0.058 C 
HETATM   12  C3    D T1000       5.007   3.892  11.168  1.00 17.10    -0.039 C 
BRANCH  12  13
HETATM   13  C2    D T1000       6.178   3.412  11.869  1.00 16.30     0.145 A 
HETATM   14  N82   D T1000       7.489   3.472  11.584  1.00 17.01    -0.203 N 
HETATM   15  N81   D T1000       8.178   4.072  10.590  1.00 17.09    -0.162 NA
HETATM   16  C84   D T1000       8.116   2.768  12.593  1.00 17.67     0.165 A 
HETATM   17  C83   D T1000       9.540   3.969  10.597  1.00 18.49     0.121 A 
HETATM   18  C82   D T1000      10.220   3.301  11.581  1.00 18.11     0.026 A 
HETATM   19  C81   D T1000       9.532   2.691  12.602  1.00 17.49     0.041 A 
HETATM   20  N1    D T1000       7.181   2.277  13.447  1.00 17.94    -0.223 NA
HETATM   21  C1    D T1000       5.987   2.644  13.017  1.00 17.69     0.128 A 
ENDBRANCH  12  13
ENDBRANCH   8  11
ENDBRANCH   1   4
BRANCH   3  22
HETATM   22  C13   D T1000       4.725   7.828   4.957  1.00 16.63     0.085 A 
HETATM   23  C14   D T1000       4.189   8.314   3.797  1.00 16.52     0.019 A 
HETATM   24  C15   D T1000       4.983   8.973   2.847  1.00 16.39    -0.001 A 
HETATM   25  C16   D T1000       6.357   9.126   3.066  1.00 15.29     0.015 A 
HETATM   26  C17   D T1000       6.929   8.604   4.211  1.00 16.55     0.071 A 
HETATM   27  C18   D T1000       6.114   7.960   5.156  1.00 16.28     0.023 A 
BRANCH  25  28
HETATM   28  C20   D T1000       7.135   9.857   1.959  1.00 14.99     0.277 C 
BRANCH  28  29
HETATM   29  N3    D T1000       6.598  11.195   1.707  1.00 14.64     0.146 N 
HETATM   30  C21   D T1000       6.344  11.419   0.297  1.00 14.41     0.286 C 
HETATM   31  C22   D T1000       5.661  12.767   0.148  1.00 14.86     0.286 C 
HETATM   32  N4    D T1000       6.446  13.825   0.733  1.00 14.70     0.143 N 
HETATM   33  C23   D T1000       6.676  13.619   2.148  1.00 14.86     0.286 C 
HETATM   34  C25   D T1000       5.891  15.161   0.461  1.00 15.24     0.285 C 
HETATM   35  C24   D T1000       7.342  12.276   2.322  1.00 14.88     0.286 C 
ENDBRANCH  28  29
ENDBRANCH  25  28
BRANCH  26  36
HETATM   36  C19   D T1000       8.412   8.787   4.506  1.00 17.30     0.419 C 
HETATM   37  F1    D T1000       8.680  10.093   4.700  1.00 16.85    -0.166 F 
HETATM   38  F2    D T1000       9.197   8.281   3.542  1.00 16.63    -0.166 F 
HETATM   39  F3    D T1000       8.666   8.101   5.612  1.00 15.75    -0.166 F 
ENDBRANCH  26  36
ENDBRANCH   3  22
TORSDOF 14
ENDMDL
MODEL 9
REMARK VINA RESULT:    -8.467      2.308      3.369
REMARK INTER + INTRA:         -13.056
REMARK INTER:                 -12.041
REMARK INTRA:                  -1.015
REMARK UNBOUND:                -1.124
REMARK  14 active torsions:
REMARK  status: ('A' for Active; 'I' for Inactive)
REMARK    1  A    between atoms: N3_2  and  C20_12 
REMARK    2  A    between atoms: C4_3  and  C5_4 
REMARK    3  A    between atoms: C13_9  and  N2_29 
REMARK    4  A    between atoms: C17_11  and  C19_33 
REMARK    5  A    between atoms: C20_12  and  C16_31 
REMARK    6  A    between atoms: C2_23  and  C3_24 
REMARK    7  A    between atoms: C9_25  and  C12_27 
REMARK       I    between atoms: C12_27  and  N2_29 
REMARK    8  A    between atoms: N3_41  and  C20_51 
REMARK    9  A    between atoms: C4_42  and  C5_43 
REMARK   10  A    between atoms: C13_48  and  N2_68 
REMARK   11  A    between atoms: C17_50  and  C19_72 
REMARK   12  A    between atoms: C20_51  and  C16_70 
REMARK   13  A    between atoms: C2_62  and  C3_63 
REMARK   14  A    between atoms: C9_64  and  C12_66 
REMARK       I    between atoms: C12_66  and  N2_68 
ROOT
HETATM    1  C12   D T1000       1.635   9.576   4.598  1.00 17.98     0.279 C 
HETATM    2  O1    D T1000       1.352  10.764   4.757  1.00 17.01    -0.265 OA
HETATM    3  N2    D T1000       2.609   9.138   3.629  1.00 17.28    -0.208 NA
ENDROOT
BRANCH   1   4
HETATM    4  C9    D T1000       1.084   8.566   5.594  1.00 17.71     0.059 A 
HETATM    5  C8    D T1000      -0.275   8.255   5.738  1.00 17.52     0.004 A 
HETATM    6  C7    D T1000      -0.708   7.226   6.611  1.00 17.00    -0.004 A 
HETATM    7  C6    D T1000       0.207   6.464   7.335  1.00 17.97    -0.014 A 
HETATM    8  C5    D T1000       1.521   6.788   7.216  1.00 18.43     0.038 A 
HETATM    9  C11   D T1000      -0.194   5.378   8.273  1.00 16.62     0.032 C 
HETATM   10  C10   D T1000       2.004   7.809   6.318  1.00 18.40     0.013 A 
BRANCH   8  11
HETATM   11  C4    D T1000       2.605   6.061   7.893  1.00 17.09    -0.058 C 
HETATM   12  C3    D T1000       3.493   5.543   8.408  1.00 17.10    -0.039 C 
BRANCH  12  13
HETATM   13  C2    D T1000       4.665   4.934   8.997  1.00 16.30     0.145 A 
HETATM   14  N82   D T1000       4.889   4.387  10.202  1.00 17.01    -0.203 N 
HETATM   15  N81   D T1000       4.080   4.138  11.254  1.00 17.09    -0.162 NA
HETATM   16  C84   D T1000       6.227   4.045  10.208  1.00 17.67     0.165 A 
HETATM   17  C83   D T1000       4.618   3.530  12.352  1.00 18.49     0.121 A 
HETATM   18  C82   D T1000       5.933   3.150  12.409  1.00 18.11     0.026 A 
HETATM   19  C81   D T1000       6.767   3.391  11.344  1.00 17.49     0.041 A 
HETATM   20  N1    D T1000       6.789   4.413   9.027  1.00 17.94    -0.223 NA
HETATM   21  C1    D T1000       5.858   4.973   8.276  1.00 17.69     0.128 A 
ENDBRANCH  12  13
ENDBRANCH   8  11
ENDBRANCH   1   4
BRANCH   3  22
HETATM   22  C13   D T1000       3.387   9.927   2.694  1.00 16.63     0.085 A 
HETATM   23  C14   D T1000       2.863  10.502   1.570  1.00 16.52     0.019 A 
HETATM   24  C15   D T1000       3.677  11.184   0.653  1.00 16.39    -0.001 A 
HETATM   25  C16   D T1000       5.057  11.269   0.868  1.00 15.29     0.015 A 
HETATM   26  C17   D T1000       5.615  10.657   1.976  1.00 16.55     0.071 A 
HETATM   27  C18   D T1000       4.781   9.991   2.888  1.00 16.28     0.023 A 
BRANCH  25  28
HETATM   28  C20   D T1000       5.857  12.032  -0.200  1.00 14.99     0.277 C 
BRANCH  28  29
HETATM   29  N3    D T1000       5.346  13.390  -0.397  1.00 14.64     0.146 N 
HETATM   30  C21   D T1000       4.870  13.597  -1.752  1.00 14.41     0.286 C 
HETATM   31  C22   D T1000       4.233  14.974  -1.824  1.00 14.86     0.286 C 
HETATM   32  N4    D T1000       5.152  16.004  -1.408  1.00 14.70     0.143 N 
HETATM   33  C23   D T1000       5.606  15.816  -0.046  1.00 14.86     0.286 C 
HETATM   34  C25   D T1000       4.620  17.359  -1.622  1.00 15.24     0.285 C 
HETATM   35  C24   D T1000       6.231  14.446   0.054  1.00 14.88     0.286 C 
ENDBRANCH  28  29
ENDBRANCH  25  28
BRANCH  26  36
HETATM   36  C19   D T1000       7.107  10.762   2.267  1.00 17.30     0.419 C 
HETATM   37  F1    D T1000       7.374  10.222   3.472  1.00 16.85    -0.166 F 
HETATM   38  F2    D T1000       7.559  12.024   2.203  1.00 16.63    -0.166 F 
HETATM   39  F3    D T1000       7.727  10.079   1.315  1.00 15.75    -0.166 F 
ENDBRANCH  26  36
ENDBRANCH   3  22
TORSDOF 14
ENDMDL
