MODEL 1
REMARK VINA RESULT:      -7.1      0.000      0.000
REMARK  5 active torsions:
REMARK  status: ('A' for Active; 'I' for Inactive)
REMARK    1  A    between atoms: N6_6  and  S7_7 
REMARK    2  A    between atoms: S7_7  and  C10_10 
REMARK    3  A    between atoms: C13_13  and  C16_16 
REMARK    4  A    between atoms: C20_20  and  C22_22 
REMARK       I    between atoms: C22_22  and  N24_24 
REMARK    5  A    between atoms: N24_24  and  C25_25 
ROOT
HETATM    1  C10   D T1385      27.291 -14.215  14.101  1.00 57.68     0.103 A 
HETATM    2  C11   D T1385      26.736 -15.260  13.344  1.00 54.26     0.013 A 
HETATM    3  C12   D T1385      25.464 -15.161  12.815  1.00 48.90     0.002 A 
HETATM    4  C13   D T1385      24.699 -14.006  13.038  1.00 50.29     0.019 A 
HETATM    5  C14   D T1385      25.263 -12.943  13.768  1.00 51.45     0.002 A 
HETATM    6  C15   D T1385      26.529 -13.061  14.307  1.00 54.38     0.013 A 
ENDROOT
BRANCH   4   7
HETATM    7  C16   D T1385      23.341 -13.846  12.428  1.00 50.04     0.101 A 
HETATM    8  C17   D T1385      22.534 -12.723  12.704  1.00 50.19     0.119 A 
HETATM    9  N18   D T1385      21.302 -12.652  12.225  1.00 49.80    -0.227 NA
HETATM   10  C19   D T1385      20.805 -13.622  11.442  1.00 47.61     0.173 A 
HETATM   11  C20   D T1385      21.608 -14.752  11.138  1.00 48.53     0.170 A 
HETATM   12  N31   D T1385      19.516 -13.498  10.958  1.00 45.02    -0.078 NA
HETATM   13  N21   D T1385      22.845 -14.820  11.656  1.00 49.17    -0.236 NA
BRANCH  11  14
HETATM   14  C22   D T1385      21.128 -15.888  10.313  1.00 48.43     0.299 C 
HETATM   15  O23   D T1385      20.010 -16.355  10.491  1.00 48.88    -0.263 OA
HETATM   16  N24   D T1385      22.007 -16.398   9.402  1.00 47.37    -0.205 NA
BRANCH  16  17
HETATM   17  C25   D T1385      21.833 -17.451   8.496  1.00 45.74     0.104 A 
HETATM   18  C26   D T1385      22.888 -18.345   8.357  1.00 45.70     0.022 A 
HETATM   19  C27   D T1385      22.778 -19.427   7.484  1.00 47.37     0.022 A 
HETATM   20  C28   D T1385      21.622 -19.541   6.725  1.00 50.45     0.099 A 
HETATM   21  N29   D T1385      20.624 -18.668   6.859  1.00 52.66    -0.241 NA
HETATM   22  C30   D T1385      20.696 -17.633   7.694  1.00 50.21     0.118 A 
ENDBRANCH  16  17
ENDBRANCH  11  14
ENDBRANCH   4   7
BRANCH   1  23
HETATM   23  S7    D T1385      28.927 -14.367  14.810  1.00 58.55     0.264 S 
HETATM   24  O8    D T1385      29.086 -13.346  15.796  1.00 56.62    -0.200 OA
HETATM   25  O9    D T1385      29.837 -14.513  13.717  1.00 53.39    -0.200 OA
BRANCH  23  26
HETATM   26  N6    D T1385      28.930 -15.800  15.635  1.00 64.29    -0.270 N 
HETATM   27  C5    D T1385      27.856 -16.045  16.628  1.00 67.15     0.148 C 
HETATM   28  C4    D T1385      27.413 -17.519  16.578  1.00 70.71     0.275 C 
HETATM   29  N2    D T1385      28.617 -18.360  16.661  1.00 71.36     0.143 N 
HETATM   30  C1    D T1385      29.510 -18.249  15.488  1.00 69.90     0.275 C 
HETATM   31  C3    D T1385      28.270 -19.746  16.987  1.00 74.69     0.286 C 
HETATM   32  C6    D T1385      30.016 -16.797  15.371  1.00 67.38     0.148 C 
ENDBRANCH  23  26
ENDBRANCH   1  23
TORSDOF 5
ENDMDL
MODEL 2
REMARK VINA RESULT:      -7.0      3.320      9.245
REMARK  5 active torsions:
REMARK  status: ('A' for Active; 'I' for Inactive)
REMARK    1  A    between atoms: N6_6  and  S7_7 
REMARK    2  A    between atoms: S7_7  and  C10_10 
REMARK    3  A    between atoms: C13_13  and  C16_16 
REMARK    4  A    between atoms: C20_20  and  C22_22 
REMARK       I    between atoms: C22_22  and  N24_24 
REMARK    5  A    between atoms: N24_24  and  C25_25 
ROOT
HETATM    1  C10   D T1385      23.423 -14.888  11.618  1.00 57.68     0.103 A 
HETATM    2  C11   D T1385      24.247 -16.021  11.527  1.00 54.26     0.013 A 
HETATM    3  C12   D T1385      25.443 -16.092  12.214  1.00 48.90     0.002 A 
HETATM    4  C13   D T1385      25.858 -15.016  13.014  1.00 50.29     0.019 A 
HETATM    5  C14   D T1385      25.020 -13.892  13.134  1.00 51.45     0.002 A 
HETATM    6  C15   D T1385      23.835 -13.825  12.427  1.00 54.38     0.013 A 
ENDROOT
BRANCH   4   7
HETATM    7  C16   D T1385      27.119 -15.088  13.818  1.00 50.04     0.101 A 
HETATM    8  C17   D T1385      28.129 -14.111  13.699  1.00 50.19     0.119 A 
HETATM    9  N18   D T1385      29.272 -14.249  14.352  1.00 49.80    -0.227 NA
HETATM   10  C19   D T1385      29.485 -15.295  15.165  1.00 47.61     0.173 A 
HETATM   11  C20   D T1385      28.473 -16.280  15.312  1.00 48.53     0.170 A 
HETATM   12  N31   D T1385      30.691 -15.390  15.833  1.00 45.02    -0.078 NA
HETATM   13  N21   D T1385      27.331 -16.138  14.620  1.00 49.17    -0.236 NA
BRANCH  11  14
HETATM   14  C22   D T1385      28.637 -17.488  16.158  1.00 48.43     0.299 C 
HETATM   15  O23   D T1385      28.315 -17.466  17.339  1.00 48.88    -0.263 OA
HETATM   16  N24   D T1385      29.201 -18.579  15.565  1.00 47.37    -0.205 NA
BRANCH  16  17
HETATM   17  C25   D T1385      29.472 -19.842  16.107  1.00 45.74     0.104 A 
HETATM   18  C26   D T1385      28.631 -20.884  15.734  1.00 45.70     0.022 A 
HETATM   19  C27   D T1385      28.852 -22.171  16.223  1.00 47.37     0.022 A 
HETATM   20  C28   D T1385      29.885 -22.358  17.129  1.00 50.45     0.099 A 
HETATM   21  N29   D T1385      30.675 -21.348  17.489  1.00 52.66    -0.241 NA
HETATM   22  C30   D T1385      30.497 -20.111  17.029  1.00 50.21     0.118 A 
ENDBRANCH  16  17
ENDBRANCH  11  14
ENDBRANCH   4   7
BRANCH   1  23
HETATM   23  S7    D T1385      21.892 -14.792  10.696  1.00 58.55     0.264 S 
HETATM   24  O8    D T1385      21.501 -16.117  10.335  1.00 56.62    -0.200 OA
HETATM   25  O9    D T1385      22.064 -13.760   9.720  1.00 53.39    -0.200 OA
BRANCH  23  26
HETATM   26  N6    D T1385      20.753 -14.256  11.768  1.00 64.29    -0.270 N 
HETATM   27  C5    D T1385      20.127 -15.241  12.684  1.00 67.15     0.148 C 
HETATM   28  C4    D T1385      19.914 -14.613  14.073  1.00 70.71     0.275 C 
HETATM   29  N2    D T1385      19.225 -13.326  13.890  1.00 71.36     0.143 N 
HETATM   30  C1    D T1385      20.036 -12.304  13.193  1.00 69.90     0.275 C 
HETATM   31  C3    D T1385      18.663 -12.845  15.156  1.00 74.69     0.286 C 
HETATM   32  C6    D T1385      20.375 -12.807  11.775  1.00 67.38     0.148 C 
ENDBRANCH  23  26
ENDBRANCH   1  23
TORSDOF 5
ENDMDL
MODEL 3
REMARK VINA RESULT:      -6.8      2.270      3.215
REMARK  5 active torsions:
REMARK  status: ('A' for Active; 'I' for Inactive)
REMARK    1  A    between atoms: N6_6  and  S7_7 
REMARK    2  A    between atoms: S7_7  and  C10_10 
REMARK    3  A    between atoms: C13_13  and  C16_16 
REMARK    4  A    between atoms: C20_20  and  C22_22 
REMARK       I    between atoms: C22_22  and  N24_24 
REMARK    5  A    between atoms: N24_24  and  C25_25 
ROOT
HETATM    1  C10   D T1385      30.055 -15.788  15.006  1.00 57.68     0.103 A 
HETATM    2  C11   D T1385      30.015 -14.833  13.977  1.00 54.26     0.013 A 
HETATM    3  C12   D T1385      28.814 -14.391  13.459  1.00 48.90     0.002 A 
HETATM    4  C13   D T1385      27.605 -14.903  13.955  1.00 50.29     0.019 A 
HETATM    5  C14   D T1385      27.639 -15.835  15.009  1.00 51.45     0.002 A 
HETATM    6  C15   D T1385      28.847 -16.284  15.506  1.00 54.38     0.013 A 
ENDROOT
BRANCH   4   7
HETATM    7  C16   D T1385      26.287 -14.400  13.456  1.00 50.04     0.101 A 
HETATM    8  C17   D T1385      25.874 -13.068  13.668  1.00 50.19     0.119 A 
HETATM    9  N18   D T1385      24.665 -12.676  13.296  1.00 49.80    -0.227 NA
HETATM   10  C19   D T1385      23.820 -13.518  12.682  1.00 47.61     0.173 A 
HETATM   11  C20   D T1385      24.224 -14.859  12.444  1.00 48.53     0.170 A 
HETATM   12  N31   D T1385      22.573 -13.059  12.305  1.00 45.02    -0.078 NA
HETATM   13  N21   D T1385      25.443 -15.246  12.852  1.00 49.17    -0.236 NA
BRANCH  11  14
HETATM   14  C22   D T1385      23.342 -15.867  11.807  1.00 48.43     0.299 C 
HETATM   15  O23   D T1385      22.576 -16.540  12.485  1.00 48.88    -0.263 OA
HETATM   16  N24   D T1385      23.472 -16.029  10.458  1.00 47.37    -0.205 NA
BRANCH  16  17
HETATM   17  C25   D T1385      22.780 -16.891   9.598  1.00 45.74     0.104 A 
HETATM   18  C26   D T1385      21.485 -16.529   9.247  1.00 45.70     0.022 A 
HETATM   19  C27   D T1385      20.744 -17.333   8.381  1.00 47.37     0.022 A 
HETATM   20  C28   D T1385      21.313 -18.519   7.941  1.00 50.45     0.099 A 
HETATM   21  N29   D T1385      22.551 -18.861   8.297  1.00 52.66    -0.241 NA
HETATM   22  C30   D T1385      23.286 -18.107   9.111  1.00 50.21     0.118 A 
ENDBRANCH  16  17
ENDBRANCH  11  14
ENDBRANCH   4   7
BRANCH   1  23
HETATM   23  S7    D T1385      31.618 -16.380  15.647  1.00 58.55     0.264 S 
HETATM   24  O8    D T1385      31.692 -16.045  17.033  1.00 56.62    -0.200 OA
HETATM   25  O9    D T1385      32.624 -15.974  14.714  1.00 53.39    -0.200 OA
BRANCH  23  26
HETATM   26  N6    D T1385      31.537 -18.030  15.581  1.00 64.29    -0.270 N 
HETATM   27  C5    D T1385      31.366 -18.780  16.849  1.00 67.15     0.148 C 
HETATM   28  C4    D T1385      30.424 -19.978  16.634  1.00 70.71     0.275 C 
HETATM   29  N2    D T1385      30.903 -20.729  15.464  1.00 71.36     0.143 N 
HETATM   30  C1    D T1385      30.786 -19.992  14.187  1.00 69.90     0.275 C 
HETATM   31  C3    D T1385      30.298 -22.064  15.411  1.00 74.69     0.286 C 
HETATM   32  C6    D T1385      31.653 -18.719  14.256  1.00 67.38     0.148 C 
ENDBRANCH  23  26
ENDBRANCH   1  23
TORSDOF 5
ENDMDL
MODEL 4
REMARK VINA RESULT:      -6.7      2.253      3.064
REMARK  5 active torsions:
REMARK  status: ('A' for Active; 'I' for Inactive)
REMARK    1  A    between atoms: N6_6  and  S7_7 
REMARK    2  A    between atoms: S7_7  and  C10_10 
REMARK    3  A    between atoms: C13_13  and  C16_16 
REMARK    4  A    between atoms: C20_20  and  C22_22 
REMARK       I    between atoms: C22_22  and  N24_24 
REMARK    5  A    between atoms: N24_24  and  C25_25 
ROOT
HETATM    1  C10   D T1385      29.724 -15.707  15.448  1.00 57.68     0.103 A 
HETATM    2  C11   D T1385      28.513 -16.332  15.789  1.00 54.26     0.013 A 
HETATM    3  C12   D T1385      27.355 -16.081  15.079  1.00 48.90     0.002 A 
HETATM    4  C13   D T1385      27.373 -15.183  14.002  1.00 50.29     0.019 A 
HETATM    5  C14   D T1385      28.590 -14.579  13.635  1.00 51.45     0.002 A 
HETATM    6  C15   D T1385      29.738 -14.823  14.364  1.00 54.38     0.013 A 
ENDROOT
BRANCH   4   7
HETATM    7  C16   D T1385      26.148 -14.936  13.177  1.00 50.04     0.101 A 
HETATM    8  C17   D T1385      25.466 -13.702  13.215  1.00 50.19     0.119 A 
HETATM    9  N18   D T1385      24.334 -13.545  12.546  1.00 49.80    -0.227 NA
HETATM   10  C19   D T1385      23.828 -14.533  11.794  1.00 47.61     0.173 A 
HETATM   11  C20   D T1385      24.509 -15.777  11.729  1.00 48.53     0.170 A 
HETATM   12  N31   D T1385      22.649 -14.316  11.107  1.00 45.02    -0.078 NA
HETATM   13  N21   D T1385      25.641 -15.929  12.436  1.00 49.17    -0.236 NA
BRANCH  11  14
HETATM   14  C22   D T1385      24.004 -16.937  10.954  1.00 48.43     0.299 C 
HETATM   15  O23   D T1385      23.366 -17.823  11.507  1.00 48.88    -0.263 OA
HETATM   16  N24   D T1385      24.330 -16.977   9.629  1.00 47.37    -0.205 NA
BRANCH  16  17
HETATM   17  C25   D T1385      23.995 -17.933   8.662  1.00 45.74     0.104 A 
HETATM   18  C26   D T1385      22.645 -18.216   8.495  1.00 45.70     0.022 A 
HETATM   19  C27   D T1385      22.238 -19.146   7.539  1.00 47.37     0.022 A 
HETATM   20  C28   D T1385      23.217 -19.813   6.817  1.00 50.45     0.099 A 
HETATM   21  N29   D T1385      24.508 -19.541   6.997  1.00 52.66    -0.241 NA
HETATM   22  C30   D T1385      24.926 -18.650   7.893  1.00 50.21     0.118 A 
ENDBRANCH  16  17
ENDBRANCH  11  14
ENDBRANCH   4   7
BRANCH   1  23
HETATM   23  S7    D T1385      31.211 -16.012  16.395  1.00 58.55     0.264 S 
HETATM   24  O8    D T1385      31.196 -15.161  17.542  1.00 56.62    -0.200 OA
HETATM   25  O9    D T1385      32.297 -16.012  15.465  1.00 53.39    -0.200 OA
BRANCH  23  26
HETATM   26  N6    D T1385      31.070 -17.556  16.972  1.00 64.29    -0.270 N 
HETATM   27  C5    D T1385      30.733 -17.746  18.404  1.00 67.15     0.148 C 
HETATM   28  C4    D T1385      29.772 -18.937  18.569  1.00 70.71     0.275 C 
HETATM   29  N2    D T1385      30.342 -20.086  17.849  1.00 71.36     0.143 N 
HETATM   30  C1    D T1385      30.392 -19.911  16.381  1.00 69.90     0.275 C 
HETATM   31  C3    D T1385      29.693 -21.337  18.254  1.00 74.69     0.286 C 
HETATM   32  C6    D T1385      31.299 -18.710  16.045  1.00 67.38     0.148 C 
ENDBRANCH  23  26
ENDBRANCH   1  23
TORSDOF 5
ENDMDL
MODEL 5
REMARK VINA RESULT:      -6.7      2.375      9.399
REMARK  5 active torsions:
REMARK  status: ('A' for Active; 'I' for Inactive)
REMARK    1  A    between atoms: N6_6  and  S7_7 
REMARK    2  A    between atoms: S7_7  and  C10_10 
REMARK    3  A    between atoms: C13_13  and  C16_16 
REMARK    4  A    between atoms: C20_20  and  C22_22 
REMARK       I    between atoms: C22_22  and  N24_24 
REMARK    5  A    between atoms: N24_24  and  C25_25 
ROOT
HETATM    1  C10   D T1385      22.527 -14.513  12.167  1.00 57.68     0.103 A 
HETATM    2  C11   D T1385      23.246 -15.719  12.158  1.00 54.26     0.013 A 
HETATM    3  C12   D T1385      24.585 -15.756  12.495  1.00 48.90     0.002 A 
HETATM    4  C13   D T1385      25.253 -14.573  12.847  1.00 50.29     0.019 A 
HETATM    5  C14   D T1385      24.529 -13.367  12.890  1.00 51.45     0.002 A 
HETATM    6  C15   D T1385      23.195 -13.340  12.533  1.00 54.38     0.013 A 
ENDROOT
BRANCH   4   7
HETATM    7  C16   D T1385      26.687 -14.590  13.274  1.00 50.04     0.101 A 
HETATM    8  C17   D T1385      27.697 -13.981  12.501  1.00 50.19     0.119 A 
HETATM    9  N18   D T1385      28.968 -14.091  12.856  1.00 49.80    -0.227 NA
HETATM   10  C19   D T1385      29.323 -14.750  13.969  1.00 47.61     0.173 A 
HETATM   11  C20   D T1385      28.320 -15.356  14.771  1.00 48.53     0.170 A 
HETATM   12  N31   D T1385      30.662 -14.830  14.303  1.00 45.02    -0.078 NA
HETATM   13  N21   D T1385      27.038 -15.257  14.380  1.00 49.17    -0.236 NA
BRANCH  11  14
HETATM   14  C22   D T1385      28.623 -16.135  15.995  1.00 48.43     0.299 C 
HETATM   15  O23   D T1385      29.006 -15.570  17.012  1.00 48.88    -0.263 OA
HETATM   16  N24   D T1385      28.500 -17.491  15.905  1.00 47.37    -0.205 NA
BRANCH  16  17
HETATM   17  C25   D T1385      28.713 -18.468  16.885  1.00 45.74     0.104 A 
HETATM   18  C26   D T1385      27.667 -18.719  17.765  1.00 45.70     0.022 A 
HETATM   19  C27   D T1385      27.805 -19.691  18.757  1.00 47.37     0.022 A 
HETATM   20  C28   D T1385      29.024 -20.342  18.870  1.00 50.45     0.099 A 
HETATM   21  N29   D T1385      30.023 -20.082  18.028  1.00 52.66    -0.241 NA
HETATM   22  C30   D T1385      29.917 -19.169  17.064  1.00 50.21     0.118 A 
ENDBRANCH  16  17
ENDBRANCH  11  14
ENDBRANCH   4   7
BRANCH   1  23
HETATM   23  S7    D T1385      20.801 -14.470  11.696  1.00 58.55     0.264 S 
HETATM   24  O8    D T1385      20.487 -13.148  11.259  1.00 56.62    -0.200 OA
HETATM   25  O9    D T1385      20.074 -15.116  12.743  1.00 53.39    -0.200 OA
BRANCH  23  26
HETATM   26  N6    D T1385      20.676 -15.434  10.357  1.00 64.29    -0.270 N 
HETATM   27  C5    D T1385      21.819 -15.484   9.414  1.00 67.15     0.148 C 
HETATM   28  C4    D T1385      22.006 -16.916   8.881  1.00 70.71     0.275 C 
HETATM   29  N2    D T1385      20.703 -17.393   8.392  1.00 71.36     0.143 N 
HETATM   30  C1    D T1385      19.691 -17.571   9.455  1.00 69.90     0.275 C 
HETATM   31  C3    D T1385      20.860 -18.581   7.547  1.00 74.69     0.286 C 
HETATM   32  C6    D T1385      19.417 -16.211  10.127  1.00 67.38     0.148 C 
ENDBRANCH  23  26
ENDBRANCH   1  23
TORSDOF 5
ENDMDL
MODEL 6
REMARK VINA RESULT:      -6.5      2.892      3.892
REMARK  5 active torsions:
REMARK  status: ('A' for Active; 'I' for Inactive)
REMARK    1  A    between atoms: N6_6  and  S7_7 
REMARK    2  A    between atoms: S7_7  and  C10_10 
REMARK    3  A    between atoms: C13_13  and  C16_16 
REMARK    4  A    between atoms: C20_20  and  C22_22 
REMARK       I    between atoms: C22_22  and  N24_24 
REMARK    5  A    between atoms: N24_24  and  C25_25 
ROOT
HETATM    1  C10   D T1385      29.787 -16.046  15.317  1.00 57.68     0.103 A 
HETATM    2  C11   D T1385      28.536 -16.631  15.571  1.00 54.26     0.013 A 
HETATM    3  C12   D T1385      27.380 -16.114  15.020  1.00 48.90     0.002 A 
HETATM    4  C13   D T1385      27.442 -14.979  14.196  1.00 50.29     0.019 A 
HETATM    5  C14   D T1385      28.697 -14.409  13.912  1.00 51.45     0.002 A 
HETATM    6  C15   D T1385      29.844 -14.924  14.484  1.00 54.38     0.013 A 
ENDROOT
BRANCH   4   7
HETATM    7  C16   D T1385      26.215 -14.432  13.536  1.00 50.04     0.101 A 
HETATM    8  C17   D T1385      25.517 -13.329  14.070  1.00 50.19     0.119 A 
HETATM    9  N18   D T1385      24.384 -12.925  13.518  1.00 49.80    -0.227 NA
HETATM   10  C19   D T1385      23.892 -13.526  12.424  1.00 47.61     0.173 A 
HETATM   11  C20   D T1385      24.589 -14.627  11.861  1.00 48.53     0.170 A 
HETATM   12  N31   D T1385      22.710 -13.061  11.878  1.00 45.02    -0.078 NA
HETATM   13  N21   D T1385      25.722 -15.041  12.451  1.00 49.17    -0.236 NA
BRANCH  11  14
HETATM   14  C22   D T1385      24.099 -15.375  10.678  1.00 48.43     0.299 C 
HETATM   15  O23   D T1385      24.663 -15.264   9.596  1.00 48.88    -0.263 OA
HETATM   16  N24   D T1385      22.980 -16.135  10.853  1.00 47.37    -0.205 NA
BRANCH  16  17
HETATM   17  C25   D T1385      22.301 -16.941   9.931  1.00 45.74     0.104 A 
HETATM   18  C26   D T1385      23.052 -17.891   9.249  1.00 45.70     0.022 A 
HETATM   19  C27   D T1385      22.438 -18.739   8.327  1.00 47.37     0.022 A 
HETATM   20  C28   D T1385      21.086 -18.560   8.073  1.00 50.45     0.099 A 
HETATM   21  N29   D T1385      20.381 -17.636   8.724  1.00 52.66    -0.241 NA
HETATM   22  C30   D T1385      20.937 -16.821   9.618  1.00 50.21     0.118 A 
ENDBRANCH  16  17
ENDBRANCH  11  14
ENDBRANCH   4   7
BRANCH   1  23
HETATM   23  S7    D T1385      31.275 -16.703  16.064  1.00 58.55     0.264 S 
HETATM   24  O8    D T1385      30.946 -17.930  16.715  1.00 56.62    -0.200 OA
HETATM   25  O9    D T1385      31.898 -15.620  16.759  1.00 53.39    -0.200 OA
BRANCH  23  26
HETATM   26  N6    D T1385      32.271 -17.106  14.807  1.00 64.29    -0.270 N 
HETATM   27  C5    D T1385      32.154 -18.464  14.222  1.00 67.15     0.148 C 
HETATM   28  C4    D T1385      32.329 -18.401  12.694  1.00 70.71     0.275 C 
HETATM   29  N2    D T1385      33.557 -17.643  12.407  1.00 71.36     0.143 N 
HETATM   30  C1    D T1385      33.484 -16.215  12.785  1.00 69.90     0.275 C 
HETATM   31  C3    D T1385      33.990 -17.847  11.021  1.00 74.69     0.286 C 
HETATM   32  C6    D T1385      33.266 -16.105  14.308  1.00 67.38     0.148 C 
ENDBRANCH  23  26
ENDBRANCH   1  23
TORSDOF 5
ENDMDL
MODEL 7
REMARK VINA RESULT:      -6.4      3.711      5.963
REMARK  5 active torsions:
REMARK  status: ('A' for Active; 'I' for Inactive)
REMARK    1  A    between atoms: N6_6  and  S7_7 
REMARK    2  A    between atoms: S7_7  and  C10_10 
REMARK    3  A    between atoms: C13_13  and  C16_16 
REMARK    4  A    between atoms: C20_20  and  C22_22 
REMARK       I    between atoms: C22_22  and  N24_24 
REMARK    5  A    between atoms: N24_24  and  C25_25 
ROOT
HETATM    1  C10   D T1385      29.576 -19.345  16.759  1.00 57.68     0.103 A 
HETATM    2  C11   D T1385      30.354 -18.425  16.038  1.00 54.26     0.013 A 
HETATM    3  C12   D T1385      29.813 -17.243  15.571  1.00 48.90     0.002 A 
HETATM    4  C13   D T1385      28.462 -16.948  15.807  1.00 50.29     0.019 A 
HETATM    5  C14   D T1385      27.686 -17.851  16.557  1.00 51.45     0.002 A 
HETATM    6  C15   D T1385      28.233 -19.039  17.003  1.00 54.38     0.013 A 
ENDROOT
BRANCH   4   7
HETATM    7  C16   D T1385      27.863 -15.649  15.365  1.00 50.04     0.101 A 
HETATM    8  C17   D T1385      28.005 -14.471  16.128  1.00 50.19     0.119 A 
HETATM    9  N18   D T1385      27.387 -13.359  15.760  1.00 49.80    -0.227 NA
HETATM   10  C19   D T1385      26.645 -13.314  14.644  1.00 47.61     0.173 A 
HETATM   11  C20   D T1385      26.503 -14.485  13.853  1.00 48.53     0.170 A 
HETATM   12  N31   D T1385      26.027 -12.127  14.297  1.00 45.02    -0.078 NA
HETATM   13  N21   D T1385      27.114 -15.611  14.256  1.00 49.17    -0.236 NA
BRANCH  11  14
HETATM   14  C22   D T1385      25.672 -14.537  12.626  1.00 48.43     0.299 C 
HETATM   15  O23   D T1385      25.947 -13.836  11.660  1.00 48.88    -0.263 OA
HETATM   16  N24   D T1385      24.582 -15.356  12.659  1.00 47.37    -0.205 NA
BRANCH  16  17
HETATM   17  C25   D T1385      23.631 -15.608  11.662  1.00 45.74     0.104 A 
HETATM   18  C26   D T1385      23.702 -16.837  11.017  1.00 45.70     0.022 A 
HETATM   19  C27   D T1385      22.777 -17.161  10.025  1.00 47.37     0.022 A 
HETATM   20  C28   D T1385      21.839 -16.203   9.667  1.00 50.45     0.099 A 
HETATM   21  N29   D T1385      21.791 -15.024  10.284  1.00 52.66    -0.241 NA
HETATM   22  C30   D T1385      22.653 -14.692  11.243  1.00 50.21     0.118 A 
ENDBRANCH  16  17
ENDBRANCH  11  14
ENDBRANCH   4   7
BRANCH   1  23
HETATM   23  S7    D T1385      30.277 -20.889  17.331  1.00 58.55     0.264 S 
HETATM   24  O8    D T1385      29.332 -21.520  18.195  1.00 56.62    -0.200 OA
HETATM   25  O9    D T1385      31.614 -20.603  17.750  1.00 53.39    -0.200 OA
BRANCH  23  26
HETATM   26  N6    D T1385      30.388 -21.856  15.994  1.00 64.29    -0.270 N 
HETATM   27  C5    D T1385      29.321 -21.765  14.966  1.00 67.15     0.148 C 
HETATM   28  C4    D T1385      29.930 -21.887  13.558  1.00 70.71     0.275 C 
HETATM   29  N2    D T1385      30.791 -23.079  13.535  1.00 71.36     0.143 N 
HETATM   30  C1    D T1385      31.988 -22.972  14.398  1.00 69.90     0.275 C 
HETATM   31  C3    D T1385      31.110 -23.474  12.160  1.00 74.69     0.286 C 
HETATM   32  C6    D T1385      31.543 -22.800  15.864  1.00 67.38     0.148 C 
ENDBRANCH  23  26
ENDBRANCH   1  23
TORSDOF 5
ENDMDL
MODEL 8
REMARK VINA RESULT:      -6.2      3.499      6.117
REMARK  5 active torsions:
REMARK  status: ('A' for Active; 'I' for Inactive)
REMARK    1  A    between atoms: N6_6  and  S7_7 
REMARK    2  A    between atoms: S7_7  and  C10_10 
REMARK    3  A    between atoms: C13_13  and  C16_16 
REMARK    4  A    between atoms: C20_20  and  C22_22 
REMARK       I    between atoms: C22_22  and  N24_24 
REMARK    5  A    between atoms: N24_24  and  C25_25 
ROOT
HETATM    1  C10   D T1385      29.153 -18.642  18.025  1.00 57.68     0.103 A 
HETATM    2  C11   D T1385      27.806 -18.442  17.683  1.00 54.26     0.013 A 
HETATM    3  C12   D T1385      27.443 -17.529  16.712  1.00 48.90     0.002 A 
HETATM    4  C13   D T1385      28.428 -16.776  16.054  1.00 50.29     0.019 A 
HETATM    5  C14   D T1385      29.781 -16.997  16.370  1.00 51.45     0.002 A 
HETATM    6  C15   D T1385      30.130 -17.899  17.356  1.00 54.38     0.013 A 
ENDROOT
BRANCH   4   7
HETATM    7  C16   D T1385      28.071 -15.824  14.955  1.00 50.04     0.101 A 
HETATM    8  C17   D T1385      28.823 -14.655  14.716  1.00 50.19     0.119 A 
HETATM    9  N18   D T1385      28.429 -13.784  13.799  1.00 49.80    -0.227 NA
HETATM   10  C19   D T1385      27.335 -14.006  13.055  1.00 47.61     0.173 A 
HETATM   11  C20   D T1385      26.575 -15.186  13.269  1.00 48.53     0.170 A 
HETATM   12  N31   D T1385      26.972 -13.072  12.103  1.00 45.02    -0.078 NA
HETATM   13  N21   D T1385      26.972 -16.043  14.222  1.00 49.17    -0.236 NA
BRANCH  11  14
HETATM   14  C22   D T1385      25.332 -15.493  12.521  1.00 48.43     0.299 C 
HETATM   15  O23   D T1385      25.317 -16.384  11.679  1.00 48.88    -0.263 OA
HETATM   16  N24   D T1385      24.247 -14.709  12.785  1.00 47.37    -0.205 NA
BRANCH  16  17
HETATM   17  C25   D T1385      22.957 -14.767  12.244  1.00 45.74     0.104 A 
HETATM   18  C26   D T1385      21.923 -15.104  13.108  1.00 45.70     0.022 A 
HETATM   19  C27   D T1385      20.610 -15.165  12.640  1.00 47.37     0.022 A 
HETATM   20  C28   D T1385      20.387 -14.943  11.289  1.00 50.45     0.099 A 
HETATM   21  N29   D T1385      21.390 -14.634  10.469  1.00 52.66    -0.241 NA
HETATM   22  C30   D T1385      22.651 -14.556  10.890  1.00 50.21     0.118 A 
ENDBRANCH  16  17
ENDBRANCH  11  14
ENDBRANCH   4   7
BRANCH   1  23
HETATM   23  S7    D T1385      29.610 -19.801  19.310  1.00 58.55     0.264 S 
HETATM   24  O8    D T1385      28.496 -19.960  20.189  1.00 56.62    -0.200 OA
HETATM   25  O9    D T1385      30.898 -19.403  19.784  1.00 53.39    -0.200 OA
BRANCH  23  26
HETATM   26  N6    D T1385      29.804 -21.259  18.553  1.00 64.29    -0.270 N 
HETATM   27  C5    D T1385      30.025 -22.464  19.389  1.00 67.15     0.148 C 
HETATM   28  C4    D T1385      29.282 -23.671  18.788  1.00 70.71     0.275 C 
HETATM   29  N2    D T1385      29.637 -23.761  17.363  1.00 71.36     0.143 N 
HETATM   30  C1    D T1385      29.138 -22.633  16.547  1.00 69.90     0.275 C 
HETATM   31  C3    D T1385      29.275 -25.070  16.811  1.00 74.69     0.286 C 
HETATM   32  C6    D T1385      29.768 -21.321  17.057  1.00 67.38     0.148 C 
ENDBRANCH  23  26
ENDBRANCH   1  23
TORSDOF 5
ENDMDL
MODEL 9
REMARK VINA RESULT:      -6.0      4.606      7.299
REMARK  5 active torsions:
REMARK  status: ('A' for Active; 'I' for Inactive)
REMARK    1  A    between atoms: N6_6  and  S7_7 
REMARK    2  A    between atoms: S7_7  and  C10_10 
REMARK    3  A    between atoms: C13_13  and  C16_16 
REMARK    4  A    between atoms: C20_20  and  C22_22 
REMARK       I    between atoms: C22_22  and  N24_24 
REMARK    5  A    between atoms: N24_24  and  C25_25 
ROOT
HETATM    1  C10   D T1385      28.395 -20.517   7.996  1.00 57.68     0.103 A 
HETATM    2  C11   D T1385      27.954 -19.235   8.363  1.00 54.26     0.013 A 
HETATM    3  C12   D T1385      26.637 -18.856   8.193  1.00 48.90     0.002 A 
HETATM    4  C13   D T1385      25.714 -19.756   7.638  1.00 50.29     0.019 A 
HETATM    5  C14   D T1385      26.144 -21.053   7.299  1.00 51.45     0.002 A 
HETATM    6  C15   D T1385      27.469 -21.413   7.456  1.00 54.38     0.013 A 
ENDROOT
BRANCH   4   7
HETATM    7  C16   D T1385      24.268 -19.396   7.497  1.00 50.04     0.101 A 
HETATM    8  C17   D T1385      23.513 -19.794   6.374  1.00 50.19     0.119 A 
HETATM    9  N18   D T1385      22.262 -19.383   6.232  1.00 49.80    -0.227 NA
HETATM   10  C19   D T1385      21.674 -18.614   7.160  1.00 47.61     0.173 A 
HETATM   11  C20   D T1385      22.412 -18.217   8.306  1.00 48.53     0.170 A 
HETATM   12  N31   D T1385      20.363 -18.219   6.971  1.00 45.02    -0.078 NA
HETATM   13  N21   D T1385      23.688 -18.620   8.420  1.00 49.17    -0.236 NA
BRANCH  11  14
HETATM   14  C22   D T1385      21.856 -17.337   9.363  1.00 48.43     0.299 C 
HETATM   15  O23   D T1385      20.685 -17.443   9.706  1.00 48.88    -0.263 OA
HETATM   16  N24   D T1385      22.695 -16.394   9.879  1.00 47.37    -0.205 NA
BRANCH  16  17
HETATM   17  C25   D T1385      22.452 -15.441  10.876  1.00 45.74     0.104 A 
HETATM   18  C26   D T1385      21.822 -14.265  10.486  1.00 45.70     0.022 A 
HETATM   19  C27   D T1385      21.534 -13.279  11.429  1.00 47.37     0.022 A 
HETATM   20  C28   D T1385      21.951 -13.483  12.737  1.00 50.45     0.099 A 
HETATM   21  N29   D T1385      22.567 -14.609  13.094  1.00 52.66    -0.241 NA
HETATM   22  C30   D T1385      22.843 -15.573  12.218  1.00 50.21     0.118 A 
ENDBRANCH  16  17
ENDBRANCH  11  14
ENDBRANCH   4   7
BRANCH   1  23
HETATM   23  S7    D T1385      30.112 -20.985   8.189  1.00 58.55     0.264 S 
HETATM   24  O8    D T1385      30.923 -19.844   7.908  1.00 56.62    -0.200 OA
HETATM   25  O9    D T1385      30.280 -22.223   7.494  1.00 53.39    -0.200 OA
BRANCH  23  26
HETATM   26  N6    D T1385      30.315 -21.303   9.799  1.00 64.29    -0.270 N 
HETATM   27  C5    D T1385      29.243 -22.038  10.514  1.00 67.15     0.148 C 
HETATM   28  C4    D T1385      29.858 -23.021  11.526  1.00 70.71     0.275 C 
HETATM   29  N2    D T1385      30.833 -22.282  12.343  1.00 71.36     0.143 N 
HETATM   30  C1    D T1385      32.015 -21.811  11.589  1.00 69.90     0.275 C 
HETATM   31  C3    D T1385      31.187 -23.035  13.551  1.00 74.69     0.286 C 
HETATM   32  C6    D T1385      31.558 -20.832  10.489  1.00 67.38     0.148 C 
ENDBRANCH  23  26
ENDBRANCH   1  23
TORSDOF 5
ENDMDL
