MODEL 1
REMARK VINA RESULT:    -7.812      0.000      0.000
REMARK INTER + INTRA:         -10.583
REMARK INTER:                 -10.095
REMARK INTRA:                  -0.488
REMARK UNBOUND:                -0.488
REMARK  5 active torsions:
REMARK  status: ('A' for Active; 'I' for Inactive)
REMARK    1  A    between atoms: N6_6  and  S7_7 
REMARK    2  A    between atoms: S7_7  and  C10_10 
REMARK    3  A    between atoms: C13_13  and  C16_16 
REMARK    4  A    between atoms: C20_20  and  C22_22 
REMARK       I    between atoms: C22_22  and  N24_24 
REMARK    5  A    between atoms: N24_24  and  C25_25 
ROOT
HETATM    1  C10   D T1385      20.784 -14.740  11.202  1.00 57.68     0.103 A 
HETATM    2  C11   D T1385      21.261 -13.481  10.800  1.00 54.26     0.013 A 
HETATM    3  C12   D T1385      21.424 -12.455  11.710  1.00 48.90     0.002 A 
HETATM    4  C13   D T1385      21.104 -12.657  13.061  1.00 50.29     0.019 A 
HETATM    5  C14   D T1385      20.657 -13.926  13.474  1.00 51.45     0.002 A 
HETATM    6  C15   D T1385      20.480 -14.939  12.552  1.00 54.38     0.013 A 
ENDROOT
BRANCH   4   7
HETATM    7  C16   D T1385      21.327 -11.584  14.080  1.00 50.04     0.101 A 
HETATM    8  C17   D T1385      20.261 -11.037  14.824  1.00 50.19     0.119 A 
HETATM    9  N18   D T1385      20.474 -10.025  15.651  1.00 49.80    -0.227 NA
HETATM   10  C19   D T1385      21.704  -9.520  15.828  1.00 47.61     0.173 A 
HETATM   11  C20   D T1385      22.793 -10.069  15.101  1.00 48.53     0.170 A 
HETATM   12  N31   D T1385      21.877  -8.470  16.710  1.00 45.02    -0.078 NA
HETATM   13  N21   D T1385      22.554 -11.076  14.246  1.00 49.17    -0.236 NA
BRANCH  11  14
HETATM   14  C22   D T1385      24.179  -9.549  15.205  1.00 48.43     0.299 C 
HETATM   15  O23   D T1385      25.031 -10.173  15.825  1.00 48.88    -0.263 OA
HETATM   16  N24   D T1385      24.425  -8.339  14.625  1.00 47.37    -0.205 NA
BRANCH  16  17
HETATM   17  C25   D T1385      25.621  -7.613  14.560  1.00 45.74     0.104 A 
HETATM   18  C26   D T1385      26.131  -7.347  13.295  1.00 45.70     0.022 A 
HETATM   19  C27   D T1385      27.310  -6.615  13.156  1.00 47.37     0.022 A 
HETATM   20  C28   D T1385      27.977  -6.224  14.307  1.00 50.45     0.099 A 
HETATM   21  N29   D T1385      27.483  -6.498  15.514  1.00 52.66    -0.241 NA
HETATM   22  C30   D T1385      26.354  -7.183  15.678  1.00 50.21     0.118 A 
ENDBRANCH  16  17
ENDBRANCH  11  14
ENDBRANCH   4   7
BRANCH   1  23
HETATM   23  S7    D T1385      20.543 -16.052  10.009  1.00 58.55     0.264 S 
HETATM   24  O8    D T1385      20.277 -15.460   8.737  1.00 56.62    -0.200 OA
HETATM   25  O9    D T1385      19.649 -16.993  10.609  1.00 53.39    -0.200 OA
BRANCH  23  26
HETATM   26  N6    D T1385      22.009 -16.804   9.864  1.00 64.29    -0.270 N 
HETATM   27  C5    D T1385      22.099 -18.015   9.011  1.00 67.15     0.148 C 
HETATM   28  C4    D T1385      23.431 -18.021   8.239  1.00 70.71     0.275 C 
HETATM   29  N2    D T1385      24.518 -17.789   9.203  1.00 71.36     0.143 N 
HETATM   30  C1    D T1385      24.503 -16.442   9.813  1.00 69.90     0.275 C 
HETATM   31  C3    D T1385      25.818 -18.142   8.625  1.00 74.69     0.286 C 
HETATM   32  C6    D T1385      23.191 -16.257  10.602  1.00 67.38     0.148 C 
ENDBRANCH  23  26
ENDBRANCH   1  23
TORSDOF 5
ENDMDL
MODEL 2
REMARK VINA RESULT:    -7.602      2.087      2.469
REMARK INTER + INTRA:         -10.313
REMARK INTER:                  -9.892
REMARK INTRA:                  -0.420
REMARK UNBOUND:                -0.488
REMARK  5 active torsions:
REMARK  status: ('A' for Active; 'I' for Inactive)
REMARK    1  A    between atoms: N6_6  and  S7_7 
REMARK    2  A    between atoms: S7_7  and  C10_10 
REMARK    3  A    between atoms: C13_13  and  C16_16 
REMARK    4  A    between atoms: C20_20  and  C22_22 
REMARK       I    between atoms: C22_22  and  N24_24 
REMARK    5  A    between atoms: N24_24  and  C25_25 
ROOT
HETATM    1  C10   D T1385      20.466 -15.110  10.853  1.00 57.68     0.103 A 
HETATM    2  C11   D T1385      20.658 -13.772  10.471  1.00 54.26     0.013 A 
HETATM    3  C12   D T1385      20.616 -12.751  11.401  1.00 48.90     0.002 A 
HETATM    4  C13   D T1385      20.370 -13.042  12.751  1.00 50.29     0.019 A 
HETATM    5  C14   D T1385      20.210 -14.384  13.144  1.00 51.45     0.002 A 
HETATM    6  C15   D T1385      20.235 -15.394  12.202  1.00 54.38     0.013 A 
ENDROOT
BRANCH   4   7
HETATM    7  C16   D T1385      20.378 -11.964  13.790  1.00 50.04     0.101 A 
HETATM    8  C17   D T1385      19.185 -11.358  14.237  1.00 50.19     0.119 A 
HETATM    9  N18   D T1385      19.230 -10.344  15.088  1.00 49.80    -0.227 NA
HETATM   10  C19   D T1385      20.397  -9.893  15.571  1.00 47.61     0.173 A 
HETATM   11  C20   D T1385      21.608 -10.502  15.146  1.00 48.53     0.170 A 
HETATM   12  N31   D T1385      20.391  -8.839  16.464  1.00 45.02    -0.078 NA
HETATM   13  N21   D T1385      21.546 -11.510  14.262  1.00 49.17    -0.236 NA
BRANCH  11  14
HETATM   14  C22   D T1385      22.945 -10.044  15.598  1.00 48.43     0.299 C 
HETATM   15  O23   D T1385      23.752  -9.595  14.794  1.00 48.88    -0.263 OA
HETATM   16  N24   D T1385      23.230 -10.198  16.923  1.00 47.37    -0.205 NA
BRANCH  16  17
HETATM   17  C25   D T1385      24.392  -9.859  17.626  1.00 45.74     0.104 A 
HETATM   18  C26   D T1385      24.985 -10.859  18.388  1.00 45.70     0.022 A 
HETATM   19  C27   D T1385      26.154 -10.595  19.101  1.00 47.37     0.022 A 
HETATM   20  C28   D T1385      26.660  -9.304  19.073  1.00 50.45     0.099 A 
HETATM   21  N29   D T1385      26.074  -8.352  18.350  1.00 52.66    -0.241 NA
HETATM   22  C30   D T1385      24.965  -8.577  17.649  1.00 50.21     0.118 A 
ENDBRANCH  16  17
ENDBRANCH  11  14
ENDBRANCH   4   7
BRANCH   1  23
HETATM   23  S7    D T1385      20.488 -16.422   9.636  1.00 58.55     0.264 S 
HETATM   24  O8    D T1385      20.319 -15.839   8.343  1.00 56.62    -0.200 OA
HETATM   25  O9    D T1385      19.621 -17.449  10.123  1.00 53.39    -0.200 OA
BRANCH  23  26
HETATM   26  N6    D T1385      22.024 -17.035   9.660  1.00 64.29    -0.270 N 
HETATM   27  C5    D T1385      22.286 -18.310   8.950  1.00 67.15     0.148 C 
HETATM   28  C4    D T1385      23.664 -18.262   8.264  1.00 70.71     0.275 C 
HETATM   29  N2    D T1385      24.654 -17.827   9.261  1.00 71.36     0.143 N 
HETATM   30  C1    D T1385      24.471 -16.433   9.721  1.00 69.90     0.275 C 
HETATM   31  C3    D T1385      26.019 -18.104   8.805  1.00 74.69     0.286 C 
HETATM   32  C6    D T1385      23.096 -16.301  10.405  1.00 67.38     0.148 C 
ENDBRANCH  23  26
ENDBRANCH   1  23
TORSDOF 5
ENDMDL
MODEL 3
REMARK VINA RESULT:    -7.336      3.456      9.670
REMARK INTER + INTRA:          -9.969
REMARK INTER:                  -9.728
REMARK INTRA:                  -0.241
REMARK UNBOUND:                -0.488
REMARK  5 active torsions:
REMARK  status: ('A' for Active; 'I' for Inactive)
REMARK    1  A    between atoms: N6_6  and  S7_7 
REMARK    2  A    between atoms: S7_7  and  C10_10 
REMARK    3  A    between atoms: C13_13  and  C16_16 
REMARK    4  A    between atoms: C20_20  and  C22_22 
REMARK       I    between atoms: C22_22  and  N24_24 
REMARK    5  A    between atoms: N24_24  and  C25_25 
ROOT
HETATM    1  C10   D T1385      23.574  -9.809  15.996  1.00 57.68     0.103 A 
HETATM    2  C11   D T1385      24.336 -10.796  15.350  1.00 54.26     0.013 A 
HETATM    3  C12   D T1385      23.754 -11.683  14.466  1.00 48.90     0.002 A 
HETATM    4  C13   D T1385      22.377 -11.614  14.206  1.00 50.29     0.019 A 
HETATM    5  C14   D T1385      21.615 -10.605  14.825  1.00 51.45     0.002 A 
HETATM    6  C15   D T1385      22.205  -9.736  15.722  1.00 54.38     0.013 A 
ENDROOT
BRANCH   4   7
HETATM    7  C16   D T1385      21.729 -12.522  13.208  1.00 50.04     0.101 A 
HETATM    8  C17   D T1385      20.393 -12.336  12.796  1.00 50.19     0.119 A 
HETATM    9  N18   D T1385      19.818 -13.209  11.983  1.00 49.80    -0.227 NA
HETATM   10  C19   D T1385      20.494 -14.265  11.506  1.00 47.61     0.173 A 
HETATM   11  C20   D T1385      21.845 -14.460  11.896  1.00 48.53     0.170 A 
HETATM   12  N31   D T1385      19.852 -15.142  10.653  1.00 45.02    -0.078 NA
HETATM   13  N21   D T1385      22.404 -13.580  12.743  1.00 49.17    -0.236 NA
BRANCH  11  14
HETATM   14  C22   D T1385      22.657 -15.619  11.450  1.00 48.43     0.299 C 
HETATM   15  O23   D T1385      23.375 -16.216  12.242  1.00 48.88    -0.263 OA
HETATM   16  N24   D T1385      22.593 -15.937  10.125  1.00 47.37    -0.205 NA
BRANCH  16  17
HETATM   17  C25   D T1385      23.236 -16.967   9.428  1.00 45.74     0.104 A 
HETATM   18  C26   D T1385      22.431 -17.957   8.876  1.00 45.70     0.022 A 
HETATM   19  C27   D T1385      23.004 -19.004   8.156  1.00 47.37     0.022 A 
HETATM   20  C28   D T1385      24.387 -19.056   8.064  1.00 50.45     0.099 A 
HETATM   21  N29   D T1385      25.148 -18.108   8.610  1.00 52.66    -0.241 NA
HETATM   22  C30   D T1385      24.628 -17.090   9.292  1.00 50.21     0.118 A 
ENDBRANCH  16  17
ENDBRANCH  11  14
ENDBRANCH   4   7
BRANCH   1  23
HETATM   23  S7    D T1385      24.331  -8.686  17.166  1.00 58.55     0.264 S 
HETATM   24  O8    D T1385      23.293  -8.011  17.878  1.00 56.62    -0.200 OA
HETATM   25  O9    D T1385      25.348  -7.976  16.454  1.00 53.39    -0.200 OA
BRANCH  23  26
HETATM   26  N6    D T1385      25.098  -9.642  18.277  1.00 64.29    -0.270 N 
HETATM   27  C5    D T1385      24.455 -10.918  18.673  1.00 67.15     0.148 C 
HETATM   28  C4    D T1385      25.520 -12.014  18.858  1.00 70.71     0.275 C 
HETATM   29  N2    D T1385      26.572 -11.484  19.739  1.00 71.36     0.143 N 
HETATM   30  C1    D T1385      27.348 -10.373  19.147  1.00 69.90     0.275 C 
HETATM   31  C3    D T1385      27.419 -12.562  20.256  1.00 74.69     0.286 C 
HETATM   32  C6    D T1385      26.401  -9.190  18.859  1.00 67.38     0.148 C 
ENDBRANCH  23  26
ENDBRANCH   1  23
TORSDOF 5
ENDMDL
MODEL 4
REMARK VINA RESULT:    -7.053      5.029      9.449
REMARK INTER + INTRA:          -9.603
REMARK INTER:                  -9.266
REMARK INTRA:                  -0.336
REMARK UNBOUND:                -0.488
REMARK  5 active torsions:
REMARK  status: ('A' for Active; 'I' for Inactive)
REMARK    1  A    between atoms: N6_6  and  S7_7 
REMARK    2  A    between atoms: S7_7  and  C10_10 
REMARK    3  A    between atoms: C13_13  and  C16_16 
REMARK    4  A    between atoms: C20_20  and  C22_22 
REMARK       I    between atoms: C22_22  and  N24_24 
REMARK    5  A    between atoms: N24_24  and  C25_25 
ROOT
HETATM    1  C10   D T1385      27.382 -14.367  14.045  1.00 57.68     0.103 A 
HETATM    2  C11   D T1385      26.788 -15.434  13.351  1.00 54.26     0.013 A 
HETATM    3  C12   D T1385      25.514 -15.325  12.829  1.00 48.90     0.002 A 
HETATM    4  C13   D T1385      24.786 -14.137  12.997  1.00 50.29     0.019 A 
HETATM    5  C14   D T1385      25.389 -13.054  13.663  1.00 51.45     0.002 A 
HETATM    6  C15   D T1385      26.657 -13.181  14.197  1.00 54.38     0.013 A 
ENDROOT
BRANCH   4   7
HETATM    7  C16   D T1385      23.427 -13.969  12.392  1.00 50.04     0.101 A 
HETATM    8  C17   D T1385      22.617 -12.854  12.692  1.00 50.19     0.119 A 
HETATM    9  N18   D T1385      21.384 -12.777  12.215  1.00 49.80    -0.227 NA
HETATM   10  C19   D T1385      20.888 -13.732  11.414  1.00 47.61     0.173 A 
HETATM   11  C20   D T1385      21.695 -14.854  11.087  1.00 48.53     0.170 A 
HETATM   12  N31   D T1385      19.599 -13.602  10.934  1.00 45.02    -0.078 NA
HETATM   13  N21   D T1385      22.933 -14.929  11.602  1.00 49.17    -0.236 NA
BRANCH  11  14
HETATM   14  C22   D T1385      21.217 -15.975  10.240  1.00 48.43     0.299 C 
HETATM   15  O23   D T1385      20.066 -16.382  10.341  1.00 48.88    -0.263 OA
HETATM   16  N24   D T1385      22.131 -16.541   9.401  1.00 47.37    -0.205 NA
BRANCH  16  17
HETATM   17  C25   D T1385      21.968 -17.596   8.494  1.00 45.74     0.104 A 
HETATM   18  C26   D T1385      22.991 -18.535   8.427  1.00 45.70     0.022 A 
HETATM   19  C27   D T1385      22.888 -19.621   7.558  1.00 47.37     0.022 A 
HETATM   20  C28   D T1385      21.776 -19.694   6.731  1.00 50.45     0.099 A 
HETATM   21  N29   D T1385      20.810 -18.780   6.796  1.00 52.66    -0.241 NA
HETATM   22  C30   D T1385      20.875 -17.739   7.625  1.00 50.21     0.118 A 
ENDBRANCH  16  17
ENDBRANCH  11  14
ENDBRANCH   4   7
BRANCH   1  23
HETATM   23  S7    D T1385      29.021 -14.530  14.746  1.00 58.55     0.264 S 
HETATM   24  O8    D T1385      29.188 -13.516  15.738  1.00 56.62    -0.200 OA
HETATM   25  O9    D T1385      29.925 -14.673  13.648  1.00 53.39    -0.200 OA
BRANCH  23  26
HETATM   26  N6    D T1385      29.021 -15.969  15.562  1.00 64.29    -0.270 N 
HETATM   27  C5    D T1385      27.962 -16.208  16.573  1.00 67.15     0.148 C 
HETATM   28  C4    D T1385      27.501 -17.675  16.521  1.00 70.71     0.275 C 
HETATM   29  N2    D T1385      28.696 -18.531  16.578  1.00 71.36     0.143 N 
HETATM   30  C1    D T1385      29.569 -18.423  15.390  1.00 69.90     0.275 C 
HETATM   31  C3    D T1385      28.338 -19.915  16.902  1.00 74.69     0.286 C 
HETATM   32  C6    D T1385      30.090 -16.977  15.273  1.00 67.38     0.148 C 
ENDBRANCH  23  26
ENDBRANCH   1  23
TORSDOF 5
ENDMDL
MODEL 5
REMARK VINA RESULT:    -7.040      6.390      8.477
REMARK INTER + INTRA:          -9.586
REMARK INTER:                  -8.851
REMARK INTRA:                  -0.735
REMARK UNBOUND:                -0.488
REMARK  5 active torsions:
REMARK  status: ('A' for Active; 'I' for Inactive)
REMARK    1  A    between atoms: N6_6  and  S7_7 
REMARK    2  A    between atoms: S7_7  and  C10_10 
REMARK    3  A    between atoms: C13_13  and  C16_16 
REMARK    4  A    between atoms: C20_20  and  C22_22 
REMARK       I    between atoms: C22_22  and  N24_24 
REMARK    5  A    between atoms: N24_24  and  C25_25 
ROOT
HETATM    1  C10   D T1385      23.427 -15.021  11.549  1.00 57.68     0.103 A 
HETATM    2  C11   D T1385      24.271 -16.139  11.453  1.00 54.26     0.013 A 
HETATM    3  C12   D T1385      25.476 -16.185  12.127  1.00 48.90     0.002 A 
HETATM    4  C13   D T1385      25.879 -15.098  12.918  1.00 50.29     0.019 A 
HETATM    5  C14   D T1385      25.021 -13.989  13.043  1.00 51.45     0.002 A 
HETATM    6  C15   D T1385      23.828 -13.947  12.349  1.00 54.38     0.013 A 
ENDROOT
BRANCH   4   7
HETATM    7  C16   D T1385      27.150 -15.142  13.708  1.00 50.04     0.101 A 
HETATM    8  C17   D T1385      28.254 -14.328  13.379  1.00 50.19     0.119 A 
HETATM    9  N18   D T1385      29.396 -14.456  14.037  1.00 49.80    -0.227 NA
HETATM   10  C19   D T1385      29.522 -15.329  15.048  1.00 47.61     0.173 A 
HETATM   11  C20   D T1385      28.416 -16.145  15.405  1.00 48.53     0.170 A 
HETATM   12  N31   D T1385      30.732 -15.418  15.710  1.00 45.02    -0.078 NA
HETATM   13  N21   D T1385      27.275 -16.022  14.709  1.00 49.17    -0.236 NA
BRANCH  11  14
HETATM   14  C22   D T1385      28.477 -17.163  16.482  1.00 48.43     0.299 C 
HETATM   15  O23   D T1385      28.987 -18.257  16.275  1.00 48.88    -0.263 OA
HETATM   16  N24   D T1385      27.898 -16.831  17.672  1.00 47.37    -0.205 NA
BRANCH  16  17
HETATM   17  C25   D T1385      27.807 -17.578  18.853  1.00 45.74     0.104 A 
HETATM   18  C26   D T1385      27.073 -18.757  18.799  1.00 45.70     0.022 A 
HETATM   19  C27   D T1385      26.954 -19.559  19.934  1.00 47.37     0.022 A 
HETATM   20  C28   D T1385      27.530 -19.113  21.114  1.00 50.45     0.099 A 
HETATM   21  N29   D T1385      28.218 -17.973  21.155  1.00 52.66    -0.241 NA
HETATM   22  C30   D T1385      28.360 -17.194  20.085  1.00 50.21     0.118 A 
ENDBRANCH  16  17
ENDBRANCH  11  14
ENDBRANCH   4   7
BRANCH   1  23
HETATM   23  S7    D T1385      21.885 -14.957  10.643  1.00 58.55     0.264 S 
HETATM   24  O8    D T1385      21.502 -16.293  10.314  1.00 56.62    -0.200 OA
HETATM   25  O9    D T1385      22.035 -13.944   9.646  1.00 53.39    -0.200 OA
BRANCH  23  26
HETATM   26  N6    D T1385      20.753 -14.411  11.719  1.00 64.29    -0.270 N 
HETATM   27  C5    D T1385      20.158 -15.381  12.671  1.00 67.15     0.148 C 
HETATM   28  C4    D T1385      19.955 -14.719  14.045  1.00 70.71     0.275 C 
HETATM   29  N2    D T1385      19.242 -13.449  13.839  1.00 71.36     0.143 N 
HETATM   30  C1    D T1385      20.025 -12.433  13.101  1.00 69.90     0.275 C 
HETATM   31  C3    D T1385      18.691 -12.942  15.099  1.00 74.69     0.286 C 
HETATM   32  C6    D T1385      20.351 -12.969  11.693  1.00 67.38     0.148 C 
ENDBRANCH  23  26
ENDBRANCH   1  23
TORSDOF 5
ENDMDL
MODEL 6
REMARK VINA RESULT:    -6.818      4.427      9.556
REMARK INTER + INTRA:          -9.299
REMARK INTER:                  -8.743
REMARK INTRA:                  -0.556
REMARK UNBOUND:                -0.488
REMARK  5 active torsions:
REMARK  status: ('A' for Active; 'I' for Inactive)
REMARK    1  A    between atoms: N6_6  and  S7_7 
REMARK    2  A    between atoms: S7_7  and  C10_10 
REMARK    3  A    between atoms: C13_13  and  C16_16 
REMARK    4  A    between atoms: C20_20  and  C22_22 
REMARK       I    between atoms: C22_22  and  N24_24 
REMARK    5  A    between atoms: N24_24  and  C25_25 
ROOT
HETATM    1  C10   D T1385      25.411 -10.654  17.889  1.00 57.68     0.103 A 
HETATM    2  C11   D T1385      24.252  -9.917  17.596  1.00 54.26     0.013 A 
HETATM    3  C12   D T1385      23.522 -10.159  16.448  1.00 48.90     0.002 A 
HETATM    4  C13   D T1385      23.941 -11.150  15.546  1.00 50.29     0.019 A 
HETATM    5  C14   D T1385      25.083 -11.913  15.852  1.00 51.45     0.002 A 
HETATM    6  C15   D T1385      25.814 -11.650  16.994  1.00 54.38     0.013 A 
ENDROOT
BRANCH   4   7
HETATM    7  C16   D T1385      23.139 -11.475  14.325  1.00 50.04     0.101 A 
HETATM    8  C17   D T1385      22.286 -10.526  13.725  1.00 50.19     0.119 A 
HETATM    9  N18   D T1385      21.519 -10.870  12.701  1.00 49.80    -0.227 NA
HETATM   10  C19   D T1385      21.559 -12.109  12.190  1.00 47.61     0.173 A 
HETATM   11  C20   D T1385      22.424 -13.074  12.769  1.00 48.53     0.170 A 
HETATM   12  N31   D T1385      20.747 -12.417  11.115  1.00 45.02    -0.078 NA
HETATM   13  N21   D T1385      23.173 -12.716  13.824  1.00 49.17    -0.236 NA
BRANCH  11  14
HETATM   14  C22   D T1385      22.505 -14.477  12.294  1.00 48.43     0.299 C 
HETATM   15  O23   D T1385      22.336 -15.408  13.072  1.00 48.88    -0.263 OA
HETATM   16  N24   D T1385      22.820 -14.661  10.979  1.00 47.37    -0.205 NA
BRANCH  16  17
HETATM   17  C25   D T1385      22.961 -15.854  10.260  1.00 45.74     0.104 A 
HETATM   18  C26   D T1385      21.807 -16.400   9.708  1.00 45.70     0.022 A 
HETATM   19  C27   D T1385      21.876 -17.578   8.965  1.00 47.37     0.022 A 
HETATM   20  C28   D T1385      23.106 -18.209   8.852  1.00 50.45     0.099 A 
HETATM   21  N29   D T1385      24.201 -17.683   9.398  1.00 52.66    -0.241 NA
HETATM   22  C30   D T1385      24.169 -16.553  10.101  1.00 50.21     0.118 A 
ENDBRANCH  16  17
ENDBRANCH  11  14
ENDBRANCH   4   7
BRANCH   1  23
HETATM   23  S7    D T1385      26.367 -10.310  19.361  1.00 58.55     0.264 S 
HETATM   24  O8    D T1385      25.573 -10.639  20.501  1.00 56.62    -0.200 OA
HETATM   25  O9    D T1385      26.939  -9.011  19.185  1.00 53.39    -0.200 OA
BRANCH  23  26
HETATM   26  N6    D T1385      27.618 -11.392  19.351  1.00 64.29    -0.270 N 
HETATM   27  C5    D T1385      27.367 -12.765  19.852  1.00 67.15     0.148 C 
HETATM   28  C4    D T1385      28.126 -13.792  18.992  1.00 70.71     0.275 C 
HETATM   29  N2    D T1385      29.526 -13.354  18.890  1.00 71.36     0.143 N 
HETATM   30  C1    D T1385      29.709 -12.096  18.132  1.00 69.90     0.275 C 
HETATM   31  C3    D T1385      30.385 -14.441  18.410  1.00 74.69     0.286 C 
HETATM   32  C6    D T1385      28.962 -10.957  18.854  1.00 67.38     0.148 C 
ENDBRANCH  23  26
ENDBRANCH   1  23
TORSDOF 5
ENDMDL
MODEL 7
REMARK VINA RESULT:    -6.768      6.396     10.056
REMARK INTER + INTRA:          -9.235
REMARK INTER:                  -8.424
REMARK INTRA:                  -0.811
REMARK UNBOUND:                -0.488
REMARK  5 active torsions:
REMARK  status: ('A' for Active; 'I' for Inactive)
REMARK    1  A    between atoms: N6_6  and  S7_7 
REMARK    2  A    between atoms: S7_7  and  C10_10 
REMARK    3  A    between atoms: C13_13  and  C16_16 
REMARK    4  A    between atoms: C20_20  and  C22_22 
REMARK       I    between atoms: C22_22  and  N24_24 
REMARK    5  A    between atoms: N24_24  and  C25_25 
ROOT
HETATM    1  C10   D T1385      29.912 -16.038  15.352  1.00 57.68     0.103 A 
HETATM    2  C11   D T1385      29.962 -15.032  14.372  1.00 54.26     0.013 A 
HETATM    3  C12   D T1385      28.812 -14.576  13.758  1.00 48.90     0.002 A 
HETATM    4  C13   D T1385      27.567 -15.124  14.103  1.00 50.29     0.019 A 
HETATM    5  C14   D T1385      27.509 -16.108  15.107  1.00 51.45     0.002 A 
HETATM    6  C15   D T1385      28.667 -16.570  15.701  1.00 54.38     0.013 A 
ENDROOT
BRANCH   4   7
HETATM    7  C16   D T1385      26.299 -14.609  13.497  1.00 50.04     0.101 A 
HETATM    8  C17   D T1385      25.917 -13.257  13.617  1.00 50.19     0.119 A 
HETATM    9  N18   D T1385      24.746 -12.850  13.152  1.00 49.80    -0.227 NA
HETATM   10  C19   D T1385      23.914 -13.697  12.529  1.00 47.61     0.173 A 
HETATM   11  C20   D T1385      24.288 -15.059  12.382  1.00 48.53     0.170 A 
HETATM   12  N31   D T1385      22.707 -13.222  12.052  1.00 45.02    -0.078 NA
HETATM   13  N21   D T1385      25.466 -15.461  12.885  1.00 49.17    -0.236 NA
BRANCH  11  14
HETATM   14  C22   D T1385      23.415 -16.074  11.742  1.00 48.43     0.299 C 
HETATM   15  O23   D T1385      22.867 -16.937  12.416  1.00 48.88    -0.263 OA
HETATM   16  N24   D T1385      23.304 -16.016  10.383  1.00 47.37    -0.205 NA
BRANCH  16  17
HETATM   17  C25   D T1385      22.559 -16.828   9.519  1.00 45.74     0.104 A 
HETATM   18  C26   D T1385      21.288 -16.383   9.173  1.00 45.70     0.022 A 
HETATM   19  C27   D T1385      20.497 -17.134   8.303  1.00 47.37     0.022 A 
HETATM   20  C28   D T1385      20.991 -18.350   7.855  1.00 50.45     0.099 A 
HETATM   21  N29   D T1385      22.205 -18.770   8.205  1.00 52.66    -0.241 NA
HETATM   22  C30   D T1385      22.988 -18.069   9.023  1.00 50.21     0.118 A 
ENDBRANCH  16  17
ENDBRANCH  11  14
ENDBRANCH   4   7
BRANCH   1  23
HETATM   23  S7    D T1385      31.411 -16.646  16.118  1.00 58.55     0.264 S 
HETATM   24  O8    D T1385      31.102 -17.852  16.815  1.00 56.62    -0.200 OA
HETATM   25  O9    D T1385      32.021 -15.529  16.769  1.00 53.39    -0.200 OA
BRANCH  23  26
HETATM   26  N6    D T1385      32.408 -17.082  14.873  1.00 64.29    -0.270 N 
HETATM   27  C5    D T1385      32.222 -18.417  14.254  1.00 67.15     0.148 C 
HETATM   28  C4    D T1385      32.434 -18.331  12.732  1.00 70.71     0.275 C 
HETATM   29  N2    D T1385      33.712 -17.645  12.488  1.00 71.36     0.143 N 
HETATM   30  C1    D T1385      33.719 -16.224  12.898  1.00 69.90     0.275 C 
HETATM   31  C3    D T1385      34.163 -17.844  11.108  1.00 74.69     0.286 C 
HETATM   32  C6    D T1385      33.474 -16.133  14.418  1.00 67.38     0.148 C 
ENDBRANCH  23  26
ENDBRANCH   1  23
TORSDOF 5
ENDMDL
MODEL 8
REMARK VINA RESULT:    -6.755      3.458     10.419
REMARK INTER + INTRA:          -9.217
REMARK INTER:                  -9.114
REMARK INTRA:                  -0.104
REMARK UNBOUND:                -0.488
REMARK  5 active torsions:
REMARK  status: ('A' for Active; 'I' for Inactive)
REMARK    1  A    between atoms: N6_6  and  S7_7 
REMARK    2  A    between atoms: S7_7  and  C10_10 
REMARK    3  A    between atoms: C13_13  and  C16_16 
REMARK    4  A    between atoms: C20_20  and  C22_22 
REMARK       I    between atoms: C22_22  and  N24_24 
REMARK    5  A    between atoms: N24_24  and  C25_25 
ROOT
HETATM    1  C10   D T1385      23.925 -10.577  15.299  1.00 57.68     0.103 A 
HETATM    2  C11   D T1385      22.887 -11.148  14.544  1.00 54.26     0.013 A 
HETATM    3  C12   D T1385      23.103 -12.269  13.766  1.00 48.90     0.002 A 
HETATM    4  C13   D T1385      24.378 -12.853  13.714  1.00 50.29     0.019 A 
HETATM    5  C14   D T1385      25.413 -12.304  14.494  1.00 51.45     0.002 A 
HETATM    6  C15   D T1385      25.190 -11.171  15.253  1.00 54.38     0.013 A 
ENDROOT
BRANCH   4   7
HETATM    7  C16   D T1385      24.627 -14.102  12.928  1.00 50.04     0.101 A 
HETATM    8  C17   D T1385      25.773 -14.896  13.144  1.00 50.19     0.119 A 
HETATM    9  N18   D T1385      26.014 -15.944  12.371  1.00 49.80    -0.227 NA
HETATM   10  C19   D T1385      25.166 -16.296  11.394  1.00 47.61     0.173 A 
HETATM   11  C20   D T1385      23.998 -15.520  11.172  1.00 48.53     0.170 A 
HETATM   12  N31   D T1385      25.457 -17.404  10.621  1.00 45.02    -0.078 NA
HETATM   13  N21   D T1385      23.783 -14.444  11.947  1.00 49.17    -0.236 NA
BRANCH  11  14
HETATM   14  C22   D T1385      23.025 -15.812  10.091  1.00 48.43     0.299 C 
HETATM   15  O23   D T1385      22.334 -14.918   9.618  1.00 48.88    -0.263 OA
HETATM   16  N24   D T1385      22.915 -17.116   9.702  1.00 47.37    -0.205 NA
BRANCH  16  17
HETATM   17  C25   D T1385      22.096 -17.681   8.718  1.00 45.74     0.104 A 
HETATM   18  C26   D T1385      22.718 -18.458   7.748  1.00 45.70     0.022 A 
HETATM   19  C27   D T1385      21.960 -19.065   6.746  1.00 47.37     0.022 A 
HETATM   20  C28   D T1385      20.596 -18.818   6.717  1.00 50.45     0.099 A 
HETATM   21  N29   D T1385      20.015 -18.060   7.645  1.00 52.66    -0.241 NA
HETATM   22  C30   D T1385      20.710 -17.478   8.621  1.00 50.21     0.118 A 
ENDBRANCH  16  17
ENDBRANCH  11  14
ENDBRANCH   4   7
BRANCH   1  23
HETATM   23  S7    D T1385      23.644  -9.104  16.276  1.00 58.55     0.264 S 
HETATM   24  O8    D T1385      22.247  -9.011  16.557  1.00 56.62    -0.200 OA
HETATM   25  O9    D T1385      24.361  -8.045  15.637  1.00 53.39    -0.200 OA
BRANCH  23  26
HETATM   26  N6    D T1385      24.384  -9.379  17.729  1.00 64.29    -0.270 N 
HETATM   27  C5    D T1385      23.864 -10.469  18.591  1.00 67.15     0.148 C 
HETATM   28  C4    D T1385      25.029 -11.199  19.283  1.00 70.71     0.275 C 
HETATM   29  N2    D T1385      25.889 -10.188  19.916  1.00 71.36     0.143 N 
HETATM   30  C1    D T1385      26.585  -9.304  18.956  1.00 69.90     0.275 C 
HETATM   31  C3    D T1385      26.797 -10.802  20.890  1.00 74.69     0.286 C 
HETATM   32  C6    D T1385      25.538  -8.519  18.140  1.00 67.38     0.148 C 
ENDBRANCH  23  26
ENDBRANCH   1  23
TORSDOF 5
ENDMDL
MODEL 9
REMARK VINA RESULT:    -6.583      6.683     10.658
REMARK INTER + INTRA:          -8.996
REMARK INTER:                  -8.272
REMARK INTRA:                  -0.723
REMARK UNBOUND:                -0.488
REMARK  5 active torsions:
REMARK  status: ('A' for Active; 'I' for Inactive)
REMARK    1  A    between atoms: N6_6  and  S7_7 
REMARK    2  A    between atoms: S7_7  and  C10_10 
REMARK    3  A    between atoms: C13_13  and  C16_16 
REMARK    4  A    between atoms: C20_20  and  C22_22 
REMARK       I    between atoms: C22_22  and  N24_24 
REMARK    5  A    between atoms: N24_24  and  C25_25 
ROOT
HETATM    1  C10   D T1385      29.422 -15.549  15.662  1.00 57.68     0.103 A 
HETATM    2  C11   D T1385      28.318 -16.415  15.729  1.00 54.26     0.013 A 
HETATM    3  C12   D T1385      27.199 -16.207  14.947  1.00 48.90     0.002 A 
HETATM    4  C13   D T1385      27.148 -15.111  14.072  1.00 50.29     0.019 A 
HETATM    5  C14   D T1385      28.265 -14.260  13.976  1.00 51.45     0.002 A 
HETATM    6  C15   D T1385      29.371 -14.467  14.777  1.00 54.38     0.013 A 
ENDROOT
BRANCH   4   7
HETATM    7  C16   D T1385      25.974 -14.894  13.169  1.00 50.04     0.101 A 
HETATM    8  C17   D T1385      25.315 -13.649  13.097  1.00 50.19     0.119 A 
HETATM    9  N18   D T1385      24.224 -13.512  12.360  1.00 49.80    -0.227 NA
HETATM   10  C19   D T1385      23.740 -14.535  11.640  1.00 47.61     0.173 A 
HETATM   11  C20   D T1385      24.399 -15.792  11.685  1.00 48.53     0.170 A 
HETATM   12  N31   D T1385      22.603 -14.340  10.878  1.00 45.02    -0.078 NA
HETATM   13  N21   D T1385      25.488 -15.920  12.460  1.00 49.17    -0.236 NA
BRANCH  11  14
HETATM   14  C22   D T1385      23.913 -16.987  10.952  1.00 48.43     0.299 C 
HETATM   15  O23   D T1385      23.412 -17.926  11.558  1.00 48.88    -0.263 OA
HETATM   16  N24   D T1385      24.099 -16.995   9.601  1.00 47.37    -0.205 NA
BRANCH  16  17
HETATM   17  C25   D T1385      23.745 -17.972   8.662  1.00 45.74     0.104 A 
HETATM   18  C26   D T1385      24.782 -18.607   7.989  1.00 45.70     0.022 A 
HETATM   19  C27   D T1385      24.502 -19.602   7.052  1.00 47.37     0.022 A 
HETATM   20  C28   D T1385      23.172 -19.884   6.775  1.00 50.45     0.099 A 
HETATM   21  N29   D T1385      22.188 -19.257   7.418  1.00 52.66    -0.241 NA
HETATM   22  C30   D T1385      22.425 -18.313   8.326  1.00 50.21     0.118 A 
ENDBRANCH  16  17
ENDBRANCH  11  14
ENDBRANCH   4   7
BRANCH   1  23
HETATM   23  S7    D T1385      30.854 -15.807  16.704  1.00 58.55     0.264 S 
HETATM   24  O8    D T1385      30.952 -14.710  17.613  1.00 56.62    -0.200 OA
HETATM   25  O9    D T1385      31.931 -16.174  15.839  1.00 53.39    -0.200 OA
BRANCH  23  26
HETATM   26  N6    D T1385      30.505 -17.134  17.629  1.00 64.29    -0.270 N 
HETATM   27  C5    D T1385      29.779 -16.933  18.906  1.00 67.15     0.148 C 
HETATM   28  C4    D T1385      28.769 -18.073  19.128  1.00 70.71     0.275 C 
HETATM   29  N2    D T1385      29.476 -19.350  18.945  1.00 71.36     0.143 N 
HETATM   30  C1    D T1385      29.936 -19.588  17.560  1.00 69.90     0.275 C 
HETATM   31  C3    D T1385      28.697 -20.466  19.489  1.00 74.69     0.286 C 
HETATM   32  C6    D T1385      30.941 -18.489  17.163  1.00 67.38     0.148 C 
ENDBRANCH  23  26
ENDBRANCH   1  23
TORSDOF 5
ENDMDL
