MODEL 1
REMARK VINA RESULT:    -7.186      0.000      0.000
REMARK INTER + INTRA:         -11.057
REMARK INTER:                 -10.127
REMARK INTRA:                  -0.931
REMARK UNBOUND:                -0.931
REMARK  7 active torsions:
REMARK  status: ('A' for Active; 'I' for Inactive)
REMARK    1  A    between atoms: C22_10  and  C19_16 
REMARK       I    between atoms: C22_10  and  N25_19 
REMARK    2  A    between atoms: C12_12  and  C18_15 
REMARK    3  A    between atoms: N25_19  and  C37_23 
REMARK    4  A    between atoms: C37_23  and  C38_24 
REMARK    5  A    between atoms: C38_24  and  N4_25 
REMARK    6  A    between atoms: N4_25  and  C39_26 
REMARK    7  A    between atoms: N4_25  and  C40_27 
ROOT
HETATM    1  C4    D T2000      -1.044   4.678  -7.429  1.00 48.44     0.052 C 
HETATM    2  C13   D T2000      -4.543   3.919  -8.752  1.00 48.75     0.002 A 
HETATM    3  C3    D T2000      -5.796   3.314  -9.488  1.00 43.40     0.033 C 
HETATM    4  C14   D T2000      -2.499   4.480  -7.885  1.00 49.83     0.064 A 
HETATM    5  C18   D T2000      -4.636   5.034  -7.892  1.00 45.93     0.077 A 
HETATM    6  C19   D T2000      -3.114   3.539  -8.749  1.00 51.55     0.069 A 
HETATM    7  N23   D T2000      -3.416   5.317  -7.420  1.00 47.90    -0.250 NA
ENDROOT
BRANCH   5   8
HETATM    8  C12   D T2000      -5.883   5.756  -7.569  1.00 43.39     0.024 C 
HETATM    9  C20   D T2000      -6.711   6.602  -8.357  1.00 43.86     0.061 A 
HETATM   10  C17   D T2000      -7.968   7.356  -7.950  1.00 43.90     0.025 A 
HETATM   11  C21   D T2000      -6.613   7.007  -9.780  1.00 40.96     0.279 A 
HETATM   12  C7    D T2000      -8.676   7.434  -6.687  1.00 45.29     0.031 A 
HETATM   13  C16   D T2000      -8.421   8.059  -9.074  1.00 41.24     0.085 A 
HETATM   14  C15   D T2000      -9.825   8.228  -6.614  1.00 46.91     0.140 A 
HETATM   15  C5    D T2000     -10.256   8.934  -7.777  1.00 46.93     0.031 A 
HETATM   16  F29   D T2000     -10.541   8.351  -5.493  1.00 48.65    -0.204 F 
HETATM   17  C6    D T2000      -9.563   8.860  -9.016  1.00 43.16     0.021 A 
HETATM   18  N24   D T2000      -7.618   7.844 -10.138  1.00 38.68    -0.208 NA
HETATM   19  O27   D T2000      -5.753   6.646 -10.538  1.00 39.38    -0.265 OA
ENDBRANCH   5   8
BRANCH   6  20
HETATM   20  C22   D T2000      -2.371   2.418  -9.470  1.00 57.19     0.276 C 
HETATM   21  N25   D T2000      -2.784   1.136  -9.363  1.00 64.68    -0.232 NA
HETATM   22  O28   D T2000      -1.378   2.579 -10.187  1.00 55.46    -0.266 OA
BRANCH  21  23
HETATM   23  C37   D T2000      -2.095   0.037 -10.055  1.00 72.35     0.164 C 
BRANCH  23  24
HETATM   24  C38   D T2000      -2.700  -0.621 -11.331  1.00 75.73     0.276 C 
BRANCH  24  25
HETATM   25  N4    D T2000      -4.126  -0.134 -11.460  1.00 81.36     0.139 N 
BRANCH  25  26
HETATM   26  C39   D T2000      -5.011  -1.345 -11.758  1.00 83.55     0.250 C 
HETATM   27  C42   D T2000      -6.594  -1.310 -11.752  1.00 84.17     0.037 C 
ENDBRANCH  25  26
BRANCH  25  28
HETATM   28  C40   D T2000      -4.238   1.047 -12.478  1.00 83.04     0.250 C 
HETATM   29  C41   D T2000      -5.461   2.016 -12.511  1.00 82.57     0.037 C 
ENDBRANCH  25  28
ENDBRANCH  24  25
ENDBRANCH  23  24
ENDBRANCH  21  23
ENDBRANCH   6  20
TORSDOF 7
ENDMDL
MODEL 2
REMARK VINA RESULT:    -6.439      3.655      4.676
REMARK INTER + INTRA:         -10.005
REMARK INTER:                  -9.540
REMARK INTRA:                  -0.465
REMARK UNBOUND:                -0.931
REMARK  7 active torsions:
REMARK  status: ('A' for Active; 'I' for Inactive)
REMARK    1  A    between atoms: C22_10  and  C19_16 
REMARK       I    between atoms: C22_10  and  N25_19 
REMARK    2  A    between atoms: C12_12  and  C18_15 
REMARK    3  A    between atoms: N25_19  and  C37_23 
REMARK    4  A    between atoms: C37_23  and  C38_24 
REMARK    5  A    between atoms: C38_24  and  N4_25 
REMARK    6  A    between atoms: N4_25  and  C39_26 
REMARK    7  A    between atoms: N4_25  and  C40_27 
ROOT
HETATM    1  C4    D T2000       0.888   1.036 -10.958  1.00 48.44     0.052 C 
HETATM    2  C13   D T2000      -2.196   1.954  -8.905  1.00 48.75     0.002 A 
HETATM    3  C3    D T2000      -3.614   2.004  -8.226  1.00 43.40     0.033 C 
HETATM    4  C14   D T2000      -0.282   1.517 -10.084  1.00 49.83     0.064 A 
HETATM    5  C18   D T2000      -1.206   2.929  -8.661  1.00 45.93     0.077 A 
HETATM    6  C19   D T2000      -1.583   1.001  -9.855  1.00 51.55     0.069 A 
HETATM    7  N23   D T2000      -0.116   2.624  -9.375  1.00 47.90    -0.250 NA
ENDROOT
BRANCH   5   8
HETATM    8  C12   D T2000      -1.356   4.086  -7.756  1.00 43.39     0.024 C 
HETATM    9  C20   D T2000      -2.291   5.158  -7.749  1.00 43.86     0.061 A 
HETATM   10  C17   D T2000      -2.368   6.351  -6.808  1.00 43.90     0.025 A 
HETATM   11  C21   D T2000      -3.449   5.446  -8.630  1.00 40.96     0.279 A 
HETATM   12  C7    D T2000      -1.547   6.739  -5.678  1.00 45.29     0.031 A 
HETATM   13  C16   D T2000      -3.456   7.136  -7.210  1.00 41.24     0.085 A 
HETATM   14  C15   D T2000      -1.866   7.916  -4.993  1.00 46.91     0.140 A 
HETATM   15  C5    D T2000      -2.980   8.693  -5.432  1.00 46.93     0.031 A 
HETATM   16  F29   D T2000      -1.168   8.344  -3.938  1.00 48.65    -0.204 F 
HETATM   17  C6    D T2000      -3.785   8.317  -6.540  1.00 43.16     0.021 A 
HETATM   18  N24   D T2000      -4.080   6.592  -8.277  1.00 38.68    -0.208 NA
HETATM   19  O27   D T2000      -3.798   4.756  -9.550  1.00 39.38    -0.265 OA
ENDBRANCH   5   8
BRANCH   6  20
HETATM   20  C22   D T2000      -2.132  -0.268 -10.500  1.00 57.19     0.276 C 
HETATM   21  N25   D T2000      -3.107  -0.202 -11.434  1.00 64.68    -0.232 NA
HETATM   22  O28   D T2000      -1.747  -1.413 -10.241  1.00 55.46    -0.266 OA
BRANCH  21  23
HETATM   23  C37   D T2000      -3.647  -1.406 -12.080  1.00 72.35     0.164 C 
BRANCH  23  24
HETATM   24  C38   D T2000      -5.170  -1.553 -12.374  1.00 75.73     0.276 C 
BRANCH  24  25
HETATM   25  N4    D T2000      -5.864  -0.350 -11.778  1.00 81.36     0.139 N 
BRANCH  25  26
HETATM   26  C39   D T2000      -7.224  -0.806 -11.246  1.00 83.55     0.250 C 
HETATM   27  C42   D T2000      -8.402   0.178 -10.859  1.00 84.17     0.037 C 
ENDBRANCH  25  26
BRANCH  25  28
HETATM   28  C40   D T2000      -5.906   0.846 -12.785  1.00 83.04     0.250 C 
HETATM   29  C41   D T2000      -5.543   2.306 -12.373  1.00 82.57     0.037 C 
ENDBRANCH  25  28
ENDBRANCH  24  25
ENDBRANCH  23  24
ENDBRANCH  21  23
ENDBRANCH   6  20
TORSDOF 7
ENDMDL
MODEL 3
REMARK VINA RESULT:    -6.123      3.854      8.487
REMARK INTER + INTRA:          -9.559
REMARK INTER:                  -9.063
REMARK INTRA:                  -0.497
REMARK UNBOUND:                -0.931
REMARK  7 active torsions:
REMARK  status: ('A' for Active; 'I' for Inactive)
REMARK    1  A    between atoms: C22_10  and  C19_16 
REMARK       I    between atoms: C22_10  and  N25_19 
REMARK    2  A    between atoms: C12_12  and  C18_15 
REMARK    3  A    between atoms: N25_19  and  C37_23 
REMARK    4  A    between atoms: C37_23  and  C38_24 
REMARK    5  A    between atoms: C38_24  and  N4_25 
REMARK    6  A    between atoms: N4_25  and  C39_26 
REMARK    7  A    between atoms: N4_25  and  C40_27 
ROOT
HETATM    1  C4    D T2000       0.831   3.818  -8.873  1.00 48.44     0.052 C 
HETATM    2  C13   D T2000      -2.942   4.001  -8.321  1.00 48.75     0.002 A 
HETATM    3  C3    D T2000      -4.393   4.334  -7.811  1.00 43.40     0.033 C 
HETATM    4  C14   D T2000      -0.703   3.799  -8.756  1.00 49.83     0.064 A 
HETATM    5  C18   D T2000      -2.701   3.091  -9.372  1.00 45.93     0.077 A 
HETATM    6  C19   D T2000      -1.607   4.484  -7.905  1.00 51.55     0.069 A 
HETATM    7  N23   D T2000      -1.381   3.011  -9.578  1.00 47.90    -0.250 NA
ENDROOT
BRANCH   5   8
HETATM    8  C12   D T2000      -3.743   2.358 -10.119  1.00 43.39     0.024 C 
HETATM    9  C20   D T2000      -3.745   1.061 -10.701  1.00 43.86     0.061 A 
HETATM   10  C17   D T2000      -4.844   0.374 -11.500  1.00 43.90     0.025 A 
HETATM   11  C21   D T2000      -2.710  -0.002 -10.716  1.00 40.96     0.279 A 
HETATM   12  C7    D T2000      -6.168   0.818 -11.891  1.00 45.29     0.031 A 
HETATM   13  C16   D T2000      -4.371  -0.892 -11.866  1.00 41.24     0.085 A 
HETATM   14  C15   D T2000      -6.966  -0.050 -12.643  1.00 46.91     0.140 A 
HETATM   15  C5    D T2000      -6.451  -1.332 -13.002  1.00 46.93     0.031 A 
HETATM   16  F29   D T2000      -8.200   0.275 -13.040  1.00 48.65    -0.204 F 
HETATM   17  C6    D T2000      -5.154  -1.768 -12.621  1.00 43.16     0.021 A 
HETATM   18  N24   D T2000      -3.121  -1.098 -11.398  1.00 38.68    -0.208 NA
HETATM   19  O27   D T2000      -1.633   0.085 -10.190  1.00 39.38    -0.265 OA
ENDBRANCH   5   8
BRANCH   6  20
HETATM   20  C22   D T2000      -1.191   5.480  -6.827  1.00 57.19     0.276 C 
HETATM   21  N25   D T2000      -1.367   6.808  -7.009  1.00 64.68    -0.232 NA
HETATM   22  O28   D T2000      -0.687   5.173  -5.742  1.00 55.46    -0.266 OA
BRANCH  21  23
HETATM   23  C37   D T2000      -0.986   7.789  -5.984  1.00 72.35     0.164 C 
BRANCH  23  24
HETATM   24  C38   D T2000      -1.663   9.191  -5.914  1.00 75.73     0.276 C 
BRANCH  24  25
HETATM   25  N4    D T2000      -2.852   9.074  -4.987  1.00 81.36     0.139 N 
BRANCH  25  26
HETATM   26  C39   D T2000      -2.327   8.744  -3.588  1.00 83.55     0.250 C 
HETATM   27  C42   D T2000      -3.246   8.596  -2.307  1.00 84.17     0.037 C 
ENDBRANCH  25  26
BRANCH  25  28
HETATM   28  C40   D T2000      -3.924   8.086  -5.551  1.00 83.04     0.250 C 
HETATM   29  C41   D T2000      -4.650   8.319  -6.912  1.00 82.57     0.037 C 
ENDBRANCH  25  28
ENDBRANCH  24  25
ENDBRANCH  23  24
ENDBRANCH  21  23
ENDBRANCH   6  20
TORSDOF 7
ENDMDL
MODEL 4
REMARK VINA RESULT:    -5.827      3.566      9.065
REMARK INTER + INTRA:          -9.142
REMARK INTER:                  -8.501
REMARK INTRA:                  -0.641
REMARK UNBOUND:                -0.931
REMARK  7 active torsions:
REMARK  status: ('A' for Active; 'I' for Inactive)
REMARK    1  A    between atoms: C22_10  and  C19_16 
REMARK       I    between atoms: C22_10  and  N25_19 
REMARK    2  A    between atoms: C12_12  and  C18_15 
REMARK    3  A    between atoms: N25_19  and  C37_23 
REMARK    4  A    between atoms: C37_23  and  C38_24 
REMARK    5  A    between atoms: C38_24  and  N4_25 
REMARK    6  A    between atoms: N4_25  and  C39_26 
REMARK    7  A    between atoms: N4_25  and  C40_27 
ROOT
HETATM    1  C4    D T2000      -8.012   8.558 -11.067  1.00 48.44     0.052 C 
HETATM    2  C13   D T2000      -6.553   6.525  -8.186  1.00 48.75     0.002 A 
HETATM    3  C3    D T2000      -6.252   5.847  -6.797  1.00 43.40     0.033 C 
HETATM    4  C14   D T2000      -7.326   7.694  -9.997  1.00 49.83     0.064 A 
HETATM    5  C18   D T2000      -5.753   6.298  -9.326  1.00 45.93     0.077 A 
HETATM    6  C19   D T2000      -7.612   7.456  -8.628  1.00 51.55     0.069 A 
HETATM    7  N23   D T2000      -6.249   7.006 -10.348  1.00 47.90    -0.250 NA
ENDROOT
BRANCH   5   8
HETATM    8  C12   D T2000      -4.570   5.415  -9.374  1.00 43.39     0.024 C 
HETATM    9  C20   D T2000      -4.284   4.270 -10.166  1.00 43.86     0.061 A 
HETATM   10  C17   D T2000      -3.055   3.372 -10.139  1.00 43.90     0.025 A 
HETATM   11  C21   D T2000      -5.067   3.606 -11.237  1.00 40.96     0.279 A 
HETATM   12  C7    D T2000      -1.853   3.414  -9.329  1.00 45.29     0.031 A 
HETATM   13  C16   D T2000      -3.241   2.372 -11.101  1.00 41.24     0.085 A 
HETATM   14  C15   D T2000      -0.879   2.430  -9.531  1.00 46.91     0.140 A 
HETATM   15  C5    D T2000      -1.103   1.424 -10.518  1.00 46.93     0.031 A 
HETATM   16  F29   D T2000       0.261   2.397  -8.835  1.00 48.65    -0.204 F 
HETATM   17  C6    D T2000      -2.281   1.380 -11.311  1.00 43.16     0.021 A 
HETATM   18  N24   D T2000      -4.423   2.523 -11.737  1.00 38.68    -0.208 NA
HETATM   19  O27   D T2000      -6.143   3.973 -11.626  1.00 39.38    -0.265 OA
ENDBRANCH   5   8
BRANCH   6  20
HETATM   20  C22   D T2000      -8.783   8.078  -7.872  1.00 57.19     0.276 C 
HETATM   21  N25   D T2000      -9.949   8.341  -8.501  1.00 64.68    -0.232 NA
HETATM   22  O28   D T2000      -8.768   8.373  -6.672  1.00 55.46    -0.266 OA
BRANCH  21  23
HETATM   23  C37   D T2000     -11.097   8.929  -7.796  1.00 72.35     0.164 C 
BRANCH  23  24
HETATM   24  C38   D T2000     -12.449   9.190  -8.526  1.00 75.73     0.276 C 
BRANCH  24  25
HETATM   25  N4    D T2000     -13.112   7.850  -8.746  1.00 81.36     0.139 N 
BRANCH  25  26
HETATM   26  C39   D T2000     -13.234   7.627 -10.254  1.00 83.55     0.250 C 
HETATM   27  C42   D T2000     -12.115   8.019 -11.303  1.00 84.17     0.037 C 
ENDBRANCH  25  26
BRANCH  25  28
HETATM   28  C40   D T2000     -14.446   7.731  -7.939  1.00 83.04     0.250 C 
HETATM   29  C41   D T2000     -15.409   6.511  -8.080  1.00 82.57     0.037 C 
ENDBRANCH  25  28
ENDBRANCH  24  25
ENDBRANCH  23  24
ENDBRANCH  21  23
ENDBRANCH   6  20
TORSDOF 7
ENDMDL
MODEL 5
REMARK VINA RESULT:    -5.763      3.712      5.143
REMARK INTER + INTRA:          -9.053
REMARK INTER:                  -8.638
REMARK INTRA:                  -0.415
REMARK UNBOUND:                -0.931
REMARK  7 active torsions:
REMARK  status: ('A' for Active; 'I' for Inactive)
REMARK    1  A    between atoms: C22_10  and  C19_16 
REMARK       I    between atoms: C22_10  and  N25_19 
REMARK    2  A    between atoms: C12_12  and  C18_15 
REMARK    3  A    between atoms: N25_19  and  C37_23 
REMARK    4  A    between atoms: C37_23  and  C38_24 
REMARK    5  A    between atoms: C38_24  and  N4_25 
REMARK    6  A    between atoms: N4_25  and  C39_26 
REMARK    7  A    between atoms: N4_25  and  C40_27 
ROOT
HETATM    1  C4    D T2000      -1.998  -0.459 -10.037  1.00 48.44     0.052 C 
HETATM    2  C13   D T2000      -3.600   2.962 -10.590  1.00 48.75     0.002 A 
HETATM    3  C3    D T2000      -4.466   4.175 -11.094  1.00 43.40     0.033 C 
HETATM    4  C14   D T2000      -2.560   0.968 -10.157  1.00 49.83     0.064 A 
HETATM    5  C18   D T2000      -2.641   3.092  -9.563  1.00 45.93     0.077 A 
HETATM    6  C19   D T2000      -3.555   1.539 -10.992  1.00 51.55     0.069 A 
HETATM    7  N23   D T2000      -2.067   1.901  -9.357  1.00 47.90    -0.250 NA
ENDROOT
BRANCH   5   8
HETATM    8  C12   D T2000      -2.337   4.342  -8.837  1.00 43.39     0.024 C 
HETATM    9  C20   D T2000      -3.163   5.205  -8.066  1.00 43.86     0.061 A 
HETATM   10  C17   D T2000      -2.797   6.509  -7.373  1.00 43.90     0.025 A 
HETATM   11  C21   D T2000      -4.599   5.113  -7.704  1.00 40.96     0.279 A 
HETATM   12  C7    D T2000      -1.544   7.235  -7.291  1.00 45.29     0.031 A 
HETATM   13  C16   D T2000      -3.952   6.995  -6.748  1.00 41.24     0.085 A 
HETATM   14  C15   D T2000      -1.514   8.434  -6.571  1.00 46.91     0.140 A 
HETATM   15  C5    D T2000      -2.711   8.901  -5.949  1.00 46.93     0.031 A 
HETATM   16  F29   D T2000      -0.402   9.163  -6.439  1.00 48.65    -0.204 F 
HETATM   17  C6    D T2000      -3.940   8.192  -6.030  1.00 43.16     0.021 A 
HETATM   18  N24   D T2000      -4.999   6.165  -6.949  1.00 38.68    -0.208 NA
HETATM   19  O27   D T2000      -5.332   4.219  -8.034  1.00 39.38    -0.265 OA
ENDBRANCH   5   8
BRANCH   6  20
HETATM   20  C22   D T2000      -4.346   0.766 -12.042  1.00 57.19     0.276 C 
HETATM   21  N25   D T2000      -5.510   1.254 -12.527  1.00 64.68    -0.232 NA
HETATM   22  O28   D T2000      -4.003  -0.319 -12.525  1.00 55.46    -0.266 OA
BRANCH  21  23
HETATM   23  C37   D T2000      -6.287   0.537 -13.547  1.00 72.35     0.164 C 
BRANCH  23  24
HETATM   24  C38   D T2000      -7.574  -0.259 -13.174  1.00 75.73     0.276 C 
BRANCH  24  25
HETATM   25  N4    D T2000      -8.398   0.617 -12.258  1.00 81.36     0.139 N 
BRANCH  25  26
HETATM   26  C39   D T2000      -8.188   0.128 -10.824  1.00 83.55     0.250 C 
HETATM   27  C42   D T2000      -7.370   0.922  -9.726  1.00 84.17     0.037 C 
ENDBRANCH  25  26
BRANCH  25  28
HETATM   28  C40   D T2000      -9.888   0.697 -12.728  1.00 83.04     0.250 C 
HETATM   29  C41   D T2000     -10.352   0.217 -14.138  1.00 82.57     0.037 C 
ENDBRANCH  25  28
ENDBRANCH  24  25
ENDBRANCH  23  24
ENDBRANCH  21  23
ENDBRANCH   6  20
TORSDOF 7
ENDMDL
MODEL 6
REMARK VINA RESULT:    -5.624      4.853      7.463
REMARK INTER + INTRA:          -8.856
REMARK INTER:                  -7.759
REMARK INTRA:                  -1.097
REMARK UNBOUND:                -0.931
REMARK  7 active torsions:
REMARK  status: ('A' for Active; 'I' for Inactive)
REMARK    1  A    between atoms: C22_10  and  C19_16 
REMARK       I    between atoms: C22_10  and  N25_19 
REMARK    2  A    between atoms: C12_12  and  C18_15 
REMARK    3  A    between atoms: N25_19  and  C37_23 
REMARK    4  A    between atoms: C37_23  and  C38_24 
REMARK    5  A    between atoms: C38_24  and  N4_25 
REMARK    6  A    between atoms: N4_25  and  C39_26 
REMARK    7  A    between atoms: N4_25  and  C40_27 
ROOT
HETATM    1  C4    D T2000      -2.990  -2.420 -11.716  1.00 48.44     0.052 C 
HETATM    2  C13   D T2000      -4.929   0.838 -12.154  1.00 48.75     0.002 A 
HETATM    3  C3    D T2000      -5.414   2.335 -12.148  1.00 43.40     0.033 C 
HETATM    4  C14   D T2000      -3.871  -1.183 -11.957  1.00 49.83     0.064 A 
HETATM    5  C18   D T2000      -5.695  -0.203 -12.720  1.00 45.93     0.077 A 
HETATM    6  C19   D T2000      -3.702   0.190 -11.644  1.00 51.55     0.069 A 
HETATM    7  N23   D T2000      -5.031  -1.356 -12.573  1.00 47.90    -0.250 NA
ENDROOT
BRANCH   5   8
HETATM    8  C12   D T2000      -7.010  -0.034 -13.372  1.00 43.39     0.024 C 
HETATM    9  C20   D T2000      -8.267   0.388 -12.857  1.00 43.86     0.061 A 
HETATM   10  C17   D T2000      -9.603   0.502 -13.576  1.00 43.90     0.025 A 
HETATM   11  C21   D T2000      -8.662   0.835 -11.500  1.00 40.96     0.279 A 
HETATM   12  C7    D T2000      -9.982   0.228 -14.949  1.00 45.29     0.031 A 
HETATM   13  C16   D T2000     -10.546   0.954 -12.645  1.00 41.24     0.085 A 
HETATM   14  C15   D T2000     -11.315   0.426 -15.324  1.00 46.91     0.140 A 
HETATM   15  C5    D T2000     -12.250   0.884 -14.348  1.00 46.93     0.031 A 
HETATM   16  F29   D T2000     -11.750   0.205 -16.568  1.00 48.65    -0.204 F 
HETATM   17  C6    D T2000     -11.881   1.151 -13.003  1.00 43.16     0.021 A 
HETATM   18  N24   D T2000      -9.980   1.146 -11.434  1.00 38.68    -0.208 NA
HETATM   19  O27   D T2000      -7.916   0.918 -10.561  1.00 39.38    -0.265 OA
ENDBRANCH   5   8
BRANCH   6  20
HETATM   20  C22   D T2000      -2.482   0.767 -10.933  1.00 57.19     0.276 C 
HETATM   21  N25   D T2000      -1.709   1.699 -11.534  1.00 64.68    -0.232 NA
HETATM   22  O28   D T2000      -2.116   0.454  -9.794  1.00 55.46    -0.266 OA
BRANCH  21  23
HETATM   23  C37   D T2000      -0.535   2.281 -10.869  1.00 72.35     0.164 C 
BRANCH  23  24
HETATM   24  C38   D T2000      -0.588   3.701 -10.230  1.00 75.73     0.276 C 
BRANCH  24  25
HETATM   25  N4    D T2000      -1.383   3.592  -8.948  1.00 81.36     0.139 N 
BRANCH  25  26
HETATM   26  C39   D T2000      -2.806   4.074  -9.234  1.00 83.55     0.250 C 
HETATM   27  C42   D T2000      -4.112   3.319  -8.752  1.00 84.17     0.037 C 
ENDBRANCH  25  26
BRANCH  25  28
HETATM   28  C40   D T2000      -0.658   4.307  -7.761  1.00 83.04     0.250 C 
HETATM   29  C41   D T2000      -1.324   5.451  -6.935  1.00 82.57     0.037 C 
ENDBRANCH  25  28
ENDBRANCH  24  25
ENDBRANCH  23  24
ENDBRANCH  21  23
ENDBRANCH   6  20
TORSDOF 7
ENDMDL
MODEL 7
REMARK VINA RESULT:    -5.566      4.486      7.619
REMARK INTER + INTRA:          -8.774
REMARK INTER:                  -7.826
REMARK INTRA:                  -0.949
REMARK UNBOUND:                -0.931
REMARK  7 active torsions:
REMARK  status: ('A' for Active; 'I' for Inactive)
REMARK    1  A    between atoms: C22_10  and  C19_16 
REMARK       I    between atoms: C22_10  and  N25_19 
REMARK    2  A    between atoms: C12_12  and  C18_15 
REMARK    3  A    between atoms: N25_19  and  C37_23 
REMARK    4  A    between atoms: C37_23  and  C38_24 
REMARK    5  A    between atoms: C38_24  and  N4_25 
REMARK    6  A    between atoms: N4_25  and  C39_26 
REMARK    7  A    between atoms: N4_25  and  C40_27 
ROOT
HETATM    1  C4    D T2000      -2.827  -2.008 -11.502  1.00 48.44     0.052 C 
HETATM    2  C13   D T2000      -4.918   1.122 -12.131  1.00 48.75     0.002 A 
HETATM    3  C3    D T2000      -5.477   2.591 -12.209  1.00 43.40     0.033 C 
HETATM    4  C14   D T2000      -3.764  -0.831 -11.817  1.00 49.83     0.064 A 
HETATM    5  C18   D T2000      -5.623   0.017 -12.653  1.00 45.93     0.077 A 
HETATM    6  C19   D T2000      -3.668   0.563 -11.572  1.00 51.55     0.069 A 
HETATM    7  N23   D T2000      -4.905  -1.092 -12.439  1.00 47.90    -0.250 NA
ENDROOT
BRANCH   5   8
HETATM    8  C12   D T2000      -6.933   0.086 -13.331  1.00 43.39     0.024 C 
HETATM    9  C20   D T2000      -8.225   0.429 -12.845  1.00 43.86     0.061 A 
HETATM   10  C17   D T2000      -9.553   0.441 -13.588  1.00 43.90     0.025 A 
HETATM   11  C21   D T2000      -8.675   0.867 -11.501  1.00 40.96     0.279 A 
HETATM   12  C7    D T2000      -9.888   0.123 -14.963  1.00 45.29     0.031 A 
HETATM   13  C16   D T2000     -10.542   0.840 -12.680  1.00 41.24     0.085 A 
HETATM   14  C15   D T2000     -11.224   0.224 -15.364  1.00 46.91     0.140 A 
HETATM   15  C5    D T2000     -12.206   0.630 -14.412  1.00 46.93     0.031 A 
HETATM   16  F29   D T2000     -11.619  -0.044 -16.612  1.00 48.65    -0.204 F 
HETATM   17  C6    D T2000     -11.881   0.941 -13.064  1.00 43.16     0.021 A 
HETATM   18  N24   D T2000     -10.012   1.088 -11.463  1.00 38.68    -0.208 NA
HETATM   19  O27   D T2000      -7.954   1.013 -10.551  1.00 39.38    -0.265 OA
ENDBRANCH   5   8
BRANCH   6  20
HETATM   20  C22   D T2000      -2.490   1.236 -10.875  1.00 57.19     0.276 C 
HETATM   21  N25   D T2000      -2.628   1.760  -9.637  1.00 64.68    -0.232 NA
HETATM   22  O28   D T2000      -1.358   1.350 -11.358  1.00 55.46    -0.266 OA
BRANCH  21  23
HETATM   23  C37   D T2000      -1.508   2.405  -8.937  1.00 72.35     0.164 C 
BRANCH  23  24
HETATM   24  C38   D T2000      -1.731   3.211  -7.623  1.00 75.73     0.276 C 
BRANCH  24  25
HETATM   25  N4    D T2000      -2.029   4.641  -8.014  1.00 81.36     0.139 N 
BRANCH  25  26
HETATM   26  C39   D T2000      -1.467   5.554  -6.922  1.00 83.55     0.250 C 
HETATM   27  C42   D T2000      -1.608   7.131  -6.924  1.00 84.17     0.037 C 
ENDBRANCH  25  26
BRANCH  25  28
HETATM   28  C40   D T2000      -3.545   4.842  -8.342  1.00 83.04     0.250 C 
HETATM   29  C41   D T2000      -4.067   5.084  -9.792  1.00 82.57     0.037 C 
ENDBRANCH  25  28
ENDBRANCH  24  25
ENDBRANCH  23  24
ENDBRANCH  21  23
ENDBRANCH   6  20
TORSDOF 7
ENDMDL
MODEL 8
REMARK VINA RESULT:    -5.259      8.164     10.040
REMARK INTER + INTRA:          -8.342
REMARK INTER:                  -7.380
REMARK INTRA:                  -0.962
REMARK UNBOUND:                -0.931
REMARK  7 active torsions:
REMARK  status: ('A' for Active; 'I' for Inactive)
REMARK    1  A    between atoms: C22_10  and  C19_16 
REMARK       I    between atoms: C22_10  and  N25_19 
REMARK    2  A    between atoms: C12_12  and  C18_15 
REMARK    3  A    between atoms: N25_19  and  C37_23 
REMARK    4  A    between atoms: C37_23  and  C38_24 
REMARK    5  A    between atoms: C38_24  and  N4_25 
REMARK    6  A    between atoms: N4_25  and  C39_26 
REMARK    7  A    between atoms: N4_25  and  C40_27 
ROOT
HETATM    1  C4    D T2000     -10.351   0.170 -13.969  1.00 48.44     0.052 C 
HETATM    2  C13   D T2000     -13.207   2.638 -14.532  1.00 48.75     0.002 A 
HETATM    3  C3    D T2000     -14.434   3.446 -15.096  1.00 43.40     0.033 C 
HETATM    4  C14   D T2000     -11.466   1.223 -14.073  1.00 49.83     0.064 A 
HETATM    5  C18   D T2000     -12.583   2.967 -13.310  1.00 45.93     0.077 A 
HETATM    6  C19   D T2000     -12.466   1.467 -15.049  1.00 51.55     0.069 A 
HETATM    7  N23   D T2000     -11.576   2.112 -13.096  1.00 47.90    -0.250 NA
ENDROOT
BRANCH   5   8
HETATM    8  C12   D T2000     -12.990   4.071 -12.417  1.00 43.39     0.024 C 
HETATM    9  C20   D T2000     -13.777   4.080 -11.232  1.00 43.86     0.061 A 
HETATM   10  C17   D T2000     -14.198   5.265 -10.375  1.00 43.90     0.025 A 
HETATM   11  C21   D T2000     -14.417   2.974 -10.480  1.00 40.96     0.279 A 
HETATM   12  C7    D T2000     -13.933   6.685 -10.501  1.00 45.29     0.031 A 
HETATM   13  C16   D T2000     -14.973   4.768  -9.320  1.00 41.24     0.085 A 
HETATM   14  C15   D T2000     -14.469   7.551  -9.542  1.00 46.91     0.140 A 
HETATM   15  C5    D T2000     -15.257   7.010  -8.482  1.00 46.93     0.031 A 
HETATM   16  F29   D T2000     -14.270   8.871  -9.578  1.00 48.65    -0.204 F 
HETATM   17  C6    D T2000     -15.519   5.620  -8.357  1.00 43.16     0.021 A 
HETATM   18  N24   D T2000     -15.091   3.425  -9.394  1.00 38.68    -0.208 NA
HETATM   19  O27   D T2000     -14.356   1.813 -10.785  1.00 39.38    -0.265 OA
ENDBRANCH   5   8
BRANCH   6  20
HETATM   20  C22   D T2000     -12.651   0.643 -16.319  1.00 57.19     0.276 C 
HETATM   21  N25   D T2000     -13.888   0.333 -16.767  1.00 64.68    -0.232 NA
HETATM   22  O28   D T2000     -11.728   0.213 -17.019  1.00 55.46    -0.266 OA
BRANCH  21  23
HETATM   23  C37   D T2000     -14.096  -0.450 -17.993  1.00 72.35     0.164 C 
BRANCH  23  24
HETATM   24  C38   D T2000     -14.514  -1.950 -17.934  1.00 75.73     0.276 C 
BRANCH  24  25
HETATM   25  N4    D T2000     -13.808  -2.571 -16.751  1.00 81.36     0.139 N 
BRANCH  25  26
HETATM   26  C39   D T2000     -13.109  -3.843 -17.235  1.00 83.55     0.250 C 
HETATM   27  C42   D T2000     -11.542  -3.976 -17.426  1.00 84.17     0.037 C 
ENDBRANCH  25  26
BRANCH  25  28
HETATM   28  C40   D T2000     -14.778  -2.759 -15.538  1.00 83.04     0.250 C 
HETATM   29  C41   D T2000     -14.481  -2.168 -14.125  1.00 82.57     0.037 C 
ENDBRANCH  25  28
ENDBRANCH  24  25
ENDBRANCH  23  24
ENDBRANCH  21  23
ENDBRANCH   6  20
TORSDOF 7
ENDMDL
MODEL 9
REMARK VINA RESULT:    -5.107     10.090     14.325
REMARK INTER + INTRA:          -8.127
REMARK INTER:                  -6.938
REMARK INTRA:                  -1.189
REMARK UNBOUND:                -0.931
REMARK  7 active torsions:
REMARK  status: ('A' for Active; 'I' for Inactive)
REMARK    1  A    between atoms: C22_10  and  C19_16 
REMARK       I    between atoms: C22_10  and  N25_19 
REMARK    2  A    between atoms: C12_12  and  C18_15 
REMARK    3  A    between atoms: N25_19  and  C37_23 
REMARK    4  A    between atoms: C37_23  and  C38_24 
REMARK    5  A    between atoms: C38_24  and  N4_25 
REMARK    6  A    between atoms: N4_25  and  C39_26 
REMARK    7  A    between atoms: N4_25  and  C40_27 
ROOT
HETATM    1  C4    D T2000     -11.061   0.656 -16.951  1.00 48.44     0.052 C 
HETATM    2  C13   D T2000     -13.197  -1.856 -15.029  1.00 48.75     0.002 A 
HETATM    3  C3    D T2000     -14.340  -2.595 -14.239  1.00 43.40     0.033 C 
HETATM    4  C14   D T2000     -11.814  -0.446 -16.188  1.00 49.83     0.064 A 
HETATM    5  C18   D T2000     -11.962  -2.472 -15.324  1.00 45.93     0.077 A 
HETATM    6  C19   D T2000     -13.107  -0.499 -15.609  1.00 51.55     0.069 A 
HETATM    7  N23   D T2000     -11.197  -1.604 -15.997  1.00 47.90    -0.250 NA
ENDROOT
BRANCH   5   8
HETATM    8  C12   D T2000     -11.590  -3.852 -14.953  1.00 43.39     0.024 C 
HETATM    9  C20   D T2000     -11.820  -5.095 -15.605  1.00 43.86     0.061 A 
HETATM   10  C17   D T2000     -11.445  -6.497 -15.147  1.00 43.90     0.025 A 
HETATM   11  C21   D T2000     -12.480  -5.410 -16.895  1.00 40.96     0.279 A 
HETATM   12  C7    D T2000     -10.765  -6.970 -13.957  1.00 45.29     0.031 A 
HETATM   13  C16   D T2000     -11.892  -7.394 -16.125  1.00 41.24     0.085 A 
HETATM   14  C15   D T2000     -10.562  -8.346 -13.807  1.00 46.91     0.140 A 
HETATM   15  C5    D T2000     -11.033  -9.231 -14.822  1.00 46.93     0.031 A 
HETATM   16  F29   D T2000      -9.939  -8.867 -12.747  1.00 48.65    -0.204 F 
HETATM   17  C6    D T2000     -11.702  -8.771 -15.988  1.00 43.16     0.021 A 
HETATM   18  N24   D T2000     -12.494  -6.743 -17.143  1.00 38.68    -0.208 NA
HETATM   19  O27   D T2000     -12.949  -4.594 -17.642  1.00 39.38    -0.265 OA
ENDBRANCH   5   8
BRANCH   6  20
HETATM   20  C22   D T2000     -14.110   0.651 -15.633  1.00 57.19     0.276 C 
HETATM   21  N25   D T2000     -14.570   1.190 -14.483  1.00 64.68    -0.232 NA
HETATM   22  O28   D T2000     -14.561   1.170 -16.660  1.00 55.46    -0.266 OA
BRANCH  21  23
HETATM   23  C37   D T2000     -15.528   2.305 -14.476  1.00 72.35     0.164 C 
BRANCH  23  24
HETATM   24  C38   D T2000     -15.272   3.586 -13.627  1.00 75.73     0.276 C 
BRANCH  24  25
HETATM   25  N4    D T2000     -13.808   3.594 -13.247  1.00 81.36     0.139 N 
BRANCH  25  26
HETATM   26  C39   D T2000     -13.710   3.920 -11.756  1.00 83.55     0.250 C 
HETATM   27  C42   D T2000     -14.176   2.942 -10.601  1.00 84.17     0.037 C 
ENDBRANCH  25  26
BRANCH  25  28
HETATM   28  C40   D T2000     -12.975   4.520 -14.193  1.00 83.04     0.250 C 
HETATM   29  C41   D T2000     -12.034   3.959 -15.304  1.00 82.57     0.037 C 
ENDBRANCH  25  28
ENDBRANCH  24  25
ENDBRANCH  23  24
ENDBRANCH  21  23
ENDBRANCH   6  20
TORSDOF 7
ENDMDL
