MODEL 1
REMARK VINA RESULT:    -7.957      0.000      0.000
REMARK INTER + INTRA:         -12.398
REMARK INTER:                 -11.213
REMARK INTRA:                  -1.185
REMARK UNBOUND:                -1.185
REMARK  7 active torsions:
REMARK  status: ('A' for Active; 'I' for Inactive)
REMARK    1  A    between atoms: C22_10  and  C19_16 
REMARK       I    between atoms: C22_10  and  N25_19 
REMARK    2  A    between atoms: C12_12  and  C18_15 
REMARK    3  A    between atoms: N25_19  and  C37_23 
REMARK    4  A    between atoms: C37_23  and  C38_24 
REMARK    5  A    between atoms: C38_24  and  N4_25 
REMARK    6  A    between atoms: N4_25  and  C39_26 
REMARK    7  A    between atoms: N4_25  and  C40_27 
ROOT
HETATM    1  C4    D T2000      12.051   0.029  -1.982  1.00 48.44     0.052 C 
HETATM    2  C13   D T2000       9.090   2.437  -2.011  1.00 48.75     0.002 A 
HETATM    3  C3    D T2000       7.892   3.382  -1.630  1.00 43.40     0.033 C 
HETATM    4  C14   D T2000      10.870   1.000  -2.133  1.00 49.83     0.064 A 
HETATM    5  C18   D T2000       9.483   2.215  -3.348  1.00 45.93     0.077 A 
HETATM    6  C19   D T2000      10.018   1.628  -1.189  1.00 51.55     0.069 A 
HETATM    7  N23   D T2000      10.520   1.370  -3.358  1.00 47.90    -0.250 NA
ENDROOT
BRANCH   5   8
HETATM    8  C12   D T2000       8.850   2.829  -4.533  1.00 43.39     0.024 C 
HETATM    9  C20   D T2000       7.961   2.295  -5.506  1.00 43.86     0.061 A 
HETATM   10  C17   D T2000       7.372   2.971  -6.736  1.00 43.90     0.025 A 
HETATM   11  C21   D T2000       7.343   0.951  -5.627  1.00 40.96     0.279 A 
HETATM   12  C7    D T2000       7.533   4.310  -7.264  1.00 45.29     0.031 A 
HETATM   13  C16   D T2000       6.560   2.033  -7.384  1.00 41.24     0.085 A 
HETATM   14  C15   D T2000       6.855   4.649  -8.441  1.00 46.91     0.140 A 
HETATM   15  C5    D T2000       6.038   3.668  -9.077  1.00 46.93     0.031 A 
HETATM   16  F29   D T2000       6.942   5.862  -8.993  1.00 48.65    -0.204 F 
HETATM   17  C6    D T2000       5.879   2.354  -8.561  1.00 43.16     0.021 A 
HETATM   18  N24   D T2000       6.551   0.856  -6.723  1.00 38.68    -0.208 NA
HETATM   19  O27   D T2000       7.516   0.045  -4.856  1.00 39.38    -0.265 OA
ENDBRANCH   5   8
BRANCH   6  20
HETATM   20  C22   D T2000      10.120   1.444   0.320  1.00 57.19     0.276 C 
HETATM   21  N25   D T2000      11.268   1.731   0.974  1.00 64.68    -0.232 NA
HETATM   22  O28   D T2000       9.205   1.039   1.044  1.00 55.46    -0.266 OA
BRANCH  21  23
HETATM   23  C37   D T2000      11.392   1.573   2.431  1.00 72.35     0.164 C 
BRANCH  23  24
HETATM   24  C38   D T2000      12.572   0.773   3.059  1.00 75.73     0.276 C 
BRANCH  24  25
HETATM   25  N4    D T2000      12.101  -0.649   3.259  1.00 81.36     0.139 N 
BRANCH  25  26
HETATM   26  C39   D T2000      12.365  -1.421   1.966  1.00 83.55     0.250 C 
HETATM   27  C42   D T2000      11.233  -2.084   1.079  1.00 84.17     0.037 C 
ENDBRANCH  25  26
BRANCH  25  28
HETATM   28  C40   D T2000      10.626  -0.697   3.780  1.00 83.04     0.250 C 
HETATM   29  C41   D T2000      10.259  -0.526   5.287  1.00 82.57     0.037 C 
ENDBRANCH  25  28
ENDBRANCH  24  25
ENDBRANCH  23  24
ENDBRANCH  21  23
ENDBRANCH   6  20
TORSDOF 7
ENDMDL
MODEL 2
REMARK VINA RESULT:    -7.813      2.377      3.437
REMARK INTER + INTRA:         -12.195
REMARK INTER:                 -11.045
REMARK INTRA:                  -1.151
REMARK UNBOUND:                -1.185
REMARK  7 active torsions:
REMARK  status: ('A' for Active; 'I' for Inactive)
REMARK    1  A    between atoms: C22_10  and  C19_16 
REMARK       I    between atoms: C22_10  and  N25_19 
REMARK    2  A    between atoms: C12_12  and  C18_15 
REMARK    3  A    between atoms: N25_19  and  C37_23 
REMARK    4  A    between atoms: C37_23  and  C38_24 
REMARK    5  A    between atoms: C38_24  and  N4_25 
REMARK    6  A    between atoms: N4_25  and  C39_26 
REMARK    7  A    between atoms: N4_25  and  C40_27 
ROOT
HETATM    1  C4    D T2000       8.493   3.404   0.430  1.00 48.44     0.052 C 
HETATM    2  C13   D T2000       9.606   1.577  -2.732  1.00 48.75     0.002 A 
HETATM    3  C3    D T2000      10.344   0.681  -3.793  1.00 43.40     0.033 C 
HETATM    4  C14   D T2000       8.835   2.731  -0.909  1.00 49.83     0.064 A 
HETATM    5  C18   D T2000       8.477   2.360  -3.056  1.00 45.93     0.077 A 
HETATM    6  C19   D T2000       9.850   1.817  -1.292  1.00 51.55     0.069 A 
HETATM    7  N23   D T2000       8.074   3.010  -1.959  1.00 47.90    -0.250 NA
ENDROOT
BRANCH   5   8
HETATM    8  C12   D T2000       7.849   2.433  -4.391  1.00 43.39     0.024 C 
HETATM    9  C20   D T2000       7.898   3.435  -5.399  1.00 43.86     0.061 A 
HETATM   10  C17   D T2000       7.190   3.471  -6.745  1.00 43.90     0.025 A 
HETATM   11  C21   D T2000       8.632   4.724  -5.456  1.00 40.96     0.279 A 
HETATM   12  C7    D T2000       6.289   2.532  -7.382  1.00 45.29     0.031 A 
HETATM   13  C16   D T2000       7.547   4.668  -7.378  1.00 41.24     0.085 A 
HETATM   14  C15   D T2000       5.782   2.846  -8.647  1.00 46.91     0.140 A 
HETATM   15  C5    D T2000       6.165   4.076  -9.262  1.00 46.93     0.031 A 
HETATM   16  F29   D T2000       4.952   2.035  -9.308  1.00 48.65    -0.204 F 
HETATM   17  C6    D T2000       7.047   4.999  -8.640  1.00 43.16     0.021 A 
HETATM   18  N24   D T2000       8.393   5.389  -6.612  1.00 38.68    -0.208 NA
HETATM   19  O27   D T2000       9.354   5.140  -4.590  1.00 39.38    -0.265 OA
ENDBRANCH   5   8
BRANCH   6  20
HETATM   20  C22   D T2000      10.912   1.264  -0.349  1.00 57.19     0.276 C 
HETATM   21  N25   D T2000      10.677   0.148   0.376  1.00 64.68    -0.232 NA
HETATM   22  O28   D T2000      12.029   1.762  -0.177  1.00 55.46    -0.266 OA
BRANCH  21  23
HETATM   23  C37   D T2000      11.687  -0.413   1.286  1.00 72.35     0.164 C 
BRANCH  23  24
HETATM   24  C38   D T2000      12.446  -1.729   0.939  1.00 75.73     0.276 C 
BRANCH  24  25
HETATM   25  N4    D T2000      11.543  -2.554   0.054  1.00 81.36     0.139 N 
BRANCH  25  26
HETATM   26  C39   D T2000      11.326  -3.908   0.731  1.00 83.55     0.250 C 
HETATM   27  C42   D T2000      12.424  -4.658   1.590  1.00 84.17     0.037 C 
ENDBRANCH  25  26
BRANCH  25  28
HETATM   28  C40   D T2000      12.080  -2.616  -1.415  1.00 83.04     0.250 C 
HETATM   29  C41   D T2000      12.840  -1.430  -2.085  1.00 82.57     0.037 C 
ENDBRANCH  25  28
ENDBRANCH  24  25
ENDBRANCH  23  24
ENDBRANCH  21  23
ENDBRANCH   6  20
TORSDOF 7
ENDMDL
MODEL 3
REMARK VINA RESULT:    -7.500      1.998      2.537
REMARK INTER + INTRA:         -11.755
REMARK INTER:                 -10.886
REMARK INTRA:                  -0.868
REMARK UNBOUND:                -1.185
REMARK  7 active torsions:
REMARK  status: ('A' for Active; 'I' for Inactive)
REMARK    1  A    between atoms: C22_10  and  C19_16 
REMARK       I    between atoms: C22_10  and  N25_19 
REMARK    2  A    between atoms: C12_12  and  C18_15 
REMARK    3  A    between atoms: N25_19  and  C37_23 
REMARK    4  A    between atoms: C37_23  and  C38_24 
REMARK    5  A    between atoms: C38_24  and  N4_25 
REMARK    6  A    between atoms: N4_25  and  C39_26 
REMARK    7  A    between atoms: N4_25  and  C40_27 
ROOT
HETATM    1  C4    D T2000      11.778  -0.127  -3.361  1.00 48.44     0.052 C 
HETATM    2  C13   D T2000       8.678   2.099  -3.350  1.00 48.75     0.002 A 
HETATM    3  C3    D T2000       7.503   3.072  -2.966  1.00 43.40     0.033 C 
HETATM    4  C14   D T2000      10.513   0.735  -3.491  1.00 49.83     0.064 A 
HETATM    5  C18   D T2000       8.817   1.554  -4.644  1.00 45.93     0.077 A 
HETATM    6  C19   D T2000       9.814   1.558  -2.571  1.00 51.55     0.069 A 
HETATM    7  N23   D T2000       9.899   0.768  -4.666  1.00 47.90    -0.250 NA
ENDROOT
BRANCH   5   8
HETATM    8  C12   D T2000       7.914   1.823  -5.781  1.00 43.39     0.024 C 
HETATM    9  C20   D T2000       7.662   3.011  -6.521  1.00 43.86     0.061 A 
HETATM   10  C17   D T2000       6.682   3.237  -7.663  1.00 43.90     0.025 A 
HETATM   11  C21   D T2000       8.256   4.368  -6.417  1.00 40.96     0.279 A 
HETATM   12  C7    D T2000       5.747   2.342  -8.316  1.00 45.29     0.031 A 
HETATM   13  C16   D T2000       6.794   4.575  -8.057  1.00 41.24     0.085 A 
HETATM   14  C15   D T2000       4.957   2.846  -9.355  1.00 46.91     0.140 A 
HETATM   15  C5    D T2000       5.095   4.216  -9.730  1.00 46.93     0.031 A 
HETATM   16  F29   D T2000       4.076   2.091 -10.016  1.00 48.65    -0.204 F 
HETATM   17  C6    D T2000       6.010   5.095  -9.090  1.00 43.16     0.021 A 
HETATM   18  N24   D T2000       7.720   5.224  -7.321  1.00 38.68    -0.208 NA
HETATM   19  O27   D T2000       9.109   4.684  -5.631  1.00 39.38    -0.265 OA
ENDBRANCH   5   8
BRANCH   6  20
HETATM   20  C22   D T2000      10.226   1.770  -1.119  1.00 57.19     0.276 C 
HETATM   21  N25   D T2000       9.676   1.030  -0.131  1.00 64.68    -0.232 NA
HETATM   22  O28   D T2000      11.064   2.593  -0.738  1.00 55.46    -0.266 OA
BRANCH  21  23
HETATM   23  C37   D T2000      10.062   1.206   1.277  1.00 72.35     0.164 C 
BRANCH  23  24
HETATM   24  C38   D T2000      10.212  -0.015   2.233  1.00 75.73     0.276 C 
BRANCH  24  25
HETATM   25  N4    D T2000      11.617  -0.548   2.072  1.00 81.36     0.139 N 
BRANCH  25  26
HETATM   26  C39   D T2000      11.522  -2.044   1.768  1.00 83.55     0.250 C 
HETATM   27  C42   D T2000      10.159  -2.836   1.619  1.00 84.17     0.037 C 
ENDBRANCH  25  26
BRANCH  25  28
HETATM   28  C40   D T2000      12.519  -0.167   3.292  1.00 83.04     0.250 C 
HETATM   29  C41   D T2000      13.360   1.146   3.340  1.00 82.57     0.037 C 
ENDBRANCH  25  28
ENDBRANCH  24  25
ENDBRANCH  23  24
ENDBRANCH  21  23
ENDBRANCH   6  20
TORSDOF 7
ENDMDL
MODEL 4
REMARK VINA RESULT:    -7.483      1.865      2.900
REMARK INTER + INTRA:         -11.730
REMARK INTER:                 -10.696
REMARK INTRA:                  -1.033
REMARK UNBOUND:                -1.185
REMARK  7 active torsions:
REMARK  status: ('A' for Active; 'I' for Inactive)
REMARK    1  A    between atoms: C22_10  and  C19_16 
REMARK       I    between atoms: C22_10  and  N25_19 
REMARK    2  A    between atoms: C12_12  and  C18_15 
REMARK    3  A    between atoms: N25_19  and  C37_23 
REMARK    4  A    between atoms: C37_23  and  C38_24 
REMARK    5  A    between atoms: C38_24  and  N4_25 
REMARK    6  A    between atoms: N4_25  and  C39_26 
REMARK    7  A    between atoms: N4_25  and  C40_27 
ROOT
HETATM    1  C4    D T2000       8.399   3.573   0.355  1.00 48.44     0.052 C 
HETATM    2  C13   D T2000       9.700   2.492  -3.066  1.00 48.75     0.002 A 
HETATM    3  C3    D T2000      10.520   1.876  -4.259  1.00 43.40     0.033 C 
HETATM    4  C14   D T2000       8.813   3.205  -1.078  1.00 49.83     0.064 A 
HETATM    5  C18   D T2000       8.527   3.251  -3.267  1.00 45.93     0.077 A 
HETATM    6  C19   D T2000       9.897   2.454  -1.601  1.00 51.55     0.069 A 
HETATM    7  N23   D T2000       8.057   3.641  -2.077  1.00 47.90    -0.250 NA
ENDROOT
BRANCH   5   8
HETATM    8  C12   D T2000       7.923   3.551  -4.581  1.00 43.39     0.024 C 
HETATM    9  C20   D T2000       7.323   2.705  -5.554  1.00 43.86     0.061 A 
HETATM   10  C17   D T2000       6.752   3.071  -6.917  1.00 43.90     0.025 A 
HETATM   11  C21   D T2000       7.070   1.243  -5.551  1.00 40.96     0.279 A 
HETATM   12  C7    D T2000       6.651   4.343  -7.605  1.00 45.29     0.031 A 
HETATM   13  C16   D T2000       6.282   1.893  -7.508  1.00 41.24     0.085 A 
HETATM   14  C15   D T2000       6.069   4.368  -8.877  1.00 46.91     0.140 A 
HETATM   15  C5    D T2000       5.603   3.148  -9.451  1.00 46.93     0.031 A 
HETATM   16  F29   D T2000       5.930   5.496  -9.578  1.00 48.65    -0.204 F 
HETATM   17  C6    D T2000       5.702   1.900  -8.779  1.00 43.16     0.021 A 
HETATM   18  N24   D T2000       6.473   0.831  -6.696  1.00 38.68    -0.208 NA
HETATM   19  O27   D T2000       7.356   0.500  -4.650  1.00 39.38    -0.265 OA
ENDBRANCH   5   8
BRANCH   6  20
HETATM   20  C22   D T2000      10.975   1.792  -0.750  1.00 57.19     0.276 C 
HETATM   21  N25   D T2000      10.682   0.728   0.031  1.00 64.68    -0.232 NA
HETATM   22  O28   D T2000      12.157   2.150  -0.707  1.00 55.46    -0.266 OA
BRANCH  21  23
HETATM   23  C37   D T2000      11.704   0.064   0.853  1.00 72.35     0.164 C 
BRANCH  23  24
HETATM   24  C38   D T2000      11.695  -1.480   1.063  1.00 75.73     0.276 C 
BRANCH  24  25
HETATM   25  N4    D T2000      11.640  -2.123  -0.303  1.00 81.36     0.139 N 
BRANCH  25  26
HETATM   26  C39   D T2000      11.708  -3.640  -0.113  1.00 83.55     0.250 C 
HETATM   27  C42   D T2000      11.236  -4.394   1.197  1.00 84.17     0.037 C 
ENDBRANCH  25  26
BRANCH  25  28
HETATM   28  C40   D T2000      12.714  -1.518  -1.266  1.00 83.04     0.250 C 
HETATM   29  C41   D T2000      12.394  -1.119  -2.740  1.00 82.57     0.037 C 
ENDBRANCH  25  28
ENDBRANCH  24  25
ENDBRANCH  23  24
ENDBRANCH  21  23
ENDBRANCH   6  20
TORSDOF 7
ENDMDL
MODEL 5
REMARK VINA RESULT:    -7.428      2.211      3.281
REMARK INTER + INTRA:         -11.653
REMARK INTER:                 -10.905
REMARK INTRA:                  -0.748
REMARK UNBOUND:                -1.185
REMARK  7 active torsions:
REMARK  status: ('A' for Active; 'I' for Inactive)
REMARK    1  A    between atoms: C22_10  and  C19_16 
REMARK       I    between atoms: C22_10  and  N25_19 
REMARK    2  A    between atoms: C12_12  and  C18_15 
REMARK    3  A    between atoms: N25_19  and  C37_23 
REMARK    4  A    between atoms: C37_23  and  C38_24 
REMARK    5  A    between atoms: C38_24  and  N4_25 
REMARK    6  A    between atoms: N4_25  and  C39_26 
REMARK    7  A    between atoms: N4_25  and  C40_27 
ROOT
HETATM    1  C4    D T2000       8.154   4.147  -0.896  1.00 48.44     0.052 C 
HETATM    2  C13   D T2000       9.010   1.461  -3.468  1.00 48.75     0.002 A 
HETATM    3  C3    D T2000       9.652   0.269  -4.270  1.00 43.40     0.033 C 
HETATM    4  C14   D T2000       8.391   3.112  -2.007  1.00 49.83     0.064 A 
HETATM    5  C18   D T2000       7.892   2.178  -3.945  1.00 45.93     0.077 A 
HETATM    6  C19   D T2000       9.349   2.079  -2.167  1.00 51.55     0.069 A 
HETATM    7  N23   D T2000       7.579   3.127  -3.056  1.00 47.90    -0.250 NA
ENDROOT
BRANCH   5   8
HETATM    8  C12   D T2000       7.188   1.909  -5.215  1.00 43.39     0.024 C 
HETATM    9  C20   D T2000       6.892   2.751  -6.322  1.00 43.86     0.061 A 
HETATM   10  C17   D T2000       6.120   2.424  -7.592  1.00 43.90     0.025 A 
HETATM   11  C21   D T2000       7.230   4.173  -6.582  1.00 40.96     0.279 A 
HETATM   12  C7    D T2000       5.482   1.202  -8.040  1.00 45.29     0.031 A 
HETATM   13  C16   D T2000       6.088   3.583  -8.376  1.00 41.24     0.085 A 
HETATM   14  C15   D T2000       4.830   1.205  -9.278  1.00 46.91     0.140 A 
HETATM   15  C5    D T2000       4.814   2.405 -10.050  1.00 46.93     0.031 A 
HETATM   16  F29   D T2000       4.223   0.122  -9.770  1.00 48.65    -0.204 F 
HETATM   17  C6    D T2000       5.439   3.604  -9.613  1.00 43.16     0.021 A 
HETATM   18  N24   D T2000       6.743   4.597  -7.773  1.00 38.68    -0.208 NA
HETATM   19  O27   D T2000       7.858   4.875  -5.835  1.00 39.38    -0.265 OA
ENDBRANCH   5   8
BRANCH   6  20
HETATM   20  C22   D T2000      10.446   1.757  -1.159  1.00 57.19     0.276 C 
HETATM   21  N25   D T2000      10.180   1.010  -0.065  1.00 64.68    -0.232 NA
HETATM   22  O28   D T2000      11.620   2.130  -1.253  1.00 55.46    -0.266 OA
BRANCH  21  23
HETATM   23  C37   D T2000      11.221   0.676   0.919  1.00 72.35     0.164 C 
BRANCH  23  24
HETATM   24  C38   D T2000      11.783  -0.771   1.041  1.00 75.73     0.276 C 
BRANCH  24  25
HETATM   25  N4    D T2000      11.098  -1.427   2.217  1.00 81.36     0.139 N 
BRANCH  25  26
HETATM   26  C39   D T2000      11.438  -0.622   3.472  1.00 83.55     0.250 C 
HETATM   27  C42   D T2000      10.465  -0.451   4.709  1.00 84.17     0.037 C 
ENDBRANCH  25  26
BRANCH  25  28
HETATM   28  C40   D T2000      11.423  -2.956   2.292  1.00 83.04     0.250 C 
HETATM   29  C41   D T2000      10.832  -3.993   1.287  1.00 82.57     0.037 C 
ENDBRANCH  25  28
ENDBRANCH  24  25
ENDBRANCH  23  24
ENDBRANCH  21  23
ENDBRANCH   6  20
TORSDOF 7
ENDMDL
MODEL 6
REMARK VINA RESULT:    -7.314      1.799      2.472
REMARK INTER + INTRA:         -11.492
REMARK INTER:                 -10.755
REMARK INTRA:                  -0.737
REMARK UNBOUND:                -1.185
REMARK  7 active torsions:
REMARK  status: ('A' for Active; 'I' for Inactive)
REMARK    1  A    between atoms: C22_10  and  C19_16 
REMARK       I    between atoms: C22_10  and  N25_19 
REMARK    2  A    between atoms: C12_12  and  C18_15 
REMARK    3  A    between atoms: N25_19  and  C37_23 
REMARK    4  A    between atoms: C37_23  and  C38_24 
REMARK    5  A    between atoms: C38_24  and  N4_25 
REMARK    6  A    between atoms: N4_25  and  C39_26 
REMARK    7  A    between atoms: N4_25  and  C40_27 
ROOT
HETATM    1  C4    D T2000      11.037   4.909  -2.007  1.00 48.44     0.052 C 
HETATM    2  C13   D T2000       7.757   3.110  -2.762  1.00 48.75     0.002 A 
HETATM    3  C3    D T2000       6.460   2.221  -2.710  1.00 43.40     0.033 C 
HETATM    4  C14   D T2000       9.717   4.248  -2.435  1.00 49.83     0.064 A 
HETATM    5  C18   D T2000       8.090   3.895  -3.886  1.00 45.93     0.077 A 
HETATM    6  C19   D T2000       8.841   3.344  -1.783  1.00 51.55     0.069 A 
HETATM    7  N23   D T2000       9.240   4.532  -3.640  1.00 47.90    -0.250 NA
ENDROOT
BRANCH   5   8
HETATM    8  C12   D T2000       7.288   3.995  -5.122  1.00 43.39     0.024 C 
HETATM    9  C20   D T2000       7.008   3.042  -6.140  1.00 43.86     0.061 A 
HETATM   10  C17   D T2000       6.203   3.219  -7.420  1.00 43.90     0.025 A 
HETATM   11  C21   D T2000       7.399   1.617  -6.275  1.00 40.96     0.279 A 
HETATM   12  C7    D T2000       5.505   4.367  -7.963  1.00 45.29     0.031 A 
HETATM   13  C16   D T2000       6.219   1.997  -8.101  1.00 41.24     0.085 A 
HETATM   14  C15   D T2000       4.844   4.227  -9.188  1.00 46.91     0.140 A 
HETATM   15  C5    D T2000       4.883   2.967  -9.857  1.00 46.93     0.031 A 
HETATM   16  F29   D T2000       4.171   5.230  -9.758  1.00 48.65    -0.204 F 
HETATM   17  C6    D T2000       5.567   1.841  -9.326  1.00 43.16     0.021 A 
HETATM   18  N24   D T2000       6.921   1.068  -7.418  1.00 38.68    -0.208 NA
HETATM   19  O27   D T2000       8.061   1.010  -5.475  1.00 39.38    -0.265 OA
ENDBRANCH   5   8
BRANCH   6  20
HETATM   20  C22   D T2000       9.060   2.794  -0.378  1.00 57.19     0.276 C 
HETATM   21  N25   D T2000       9.590   1.564  -0.194  1.00 64.68    -0.232 NA
HETATM   22  O28   D T2000       8.790   3.398   0.665  1.00 55.46    -0.266 OA
BRANCH  21  23
HETATM   23  C37   D T2000       9.822   1.012   1.149  1.00 72.35     0.164 C 
BRANCH  23  24
HETATM   24  C38   D T2000      10.928  -0.054   1.405  1.00 75.73     0.276 C 
BRANCH  24  25
HETATM   25  N4    D T2000      10.430  -0.972   2.497  1.00 81.36     0.139 N 
BRANCH  25  26
HETATM   26  C39   D T2000      11.003  -0.479   3.826  1.00 83.55     0.250 C 
HETATM   27  C42   D T2000      10.264  -0.620   5.220  1.00 84.17     0.037 C 
ENDBRANCH  25  26
BRANCH  25  28
HETATM   28  C40   D T2000      10.714  -2.473   2.159  1.00 83.04     0.250 C 
HETATM   29  C41   D T2000      12.113  -3.133   2.365  1.00 82.57     0.037 C 
ENDBRANCH  25  28
ENDBRANCH  24  25
ENDBRANCH  23  24
ENDBRANCH  21  23
ENDBRANCH   6  20
TORSDOF 7
ENDMDL
MODEL 7
REMARK VINA RESULT:    -7.194      3.058      4.569
REMARK INTER + INTRA:         -11.323
REMARK INTER:                 -10.296
REMARK INTRA:                  -1.027
REMARK UNBOUND:                -1.185
REMARK  7 active torsions:
REMARK  status: ('A' for Active; 'I' for Inactive)
REMARK    1  A    between atoms: C22_10  and  C19_16 
REMARK       I    between atoms: C22_10  and  N25_19 
REMARK    2  A    between atoms: C12_12  and  C18_15 
REMARK    3  A    between atoms: N25_19  and  C37_23 
REMARK    4  A    between atoms: C37_23  and  C38_24 
REMARK    5  A    between atoms: C38_24  and  N4_25 
REMARK    6  A    between atoms: N4_25  and  C39_26 
REMARK    7  A    between atoms: N4_25  and  C40_27 
ROOT
HETATM    1  C4    D T2000      11.784   0.632  -1.673  1.00 48.44     0.052 C 
HETATM    2  C13   D T2000       8.648   2.696  -2.361  1.00 48.75     0.002 A 
HETATM    3  C3    D T2000       7.409   3.661  -2.269  1.00 43.40     0.033 C 
HETATM    4  C14   D T2000      10.522   1.410  -2.079  1.00 49.83     0.064 A 
HETATM    5  C18   D T2000       8.961   1.977  -3.534  1.00 45.93     0.077 A 
HETATM    6  C19   D T2000       9.692   2.324  -1.381  1.00 51.55     0.069 A 
HETATM    7  N23   D T2000      10.058   1.245  -3.311  1.00 47.90    -0.250 NA
ENDROOT
BRANCH   5   8
HETATM    8  C12   D T2000       8.199   2.039  -4.798  1.00 43.39     0.024 C 
HETATM    9  C20   D T2000       8.035   3.085  -5.746  1.00 43.86     0.061 A 
HETATM   10  C17   D T2000       7.197   3.102  -7.016  1.00 43.90     0.025 A 
HETATM   11  C21   D T2000       8.610   4.453  -5.797  1.00 40.96     0.279 A 
HETATM   12  C7    D T2000       6.348   2.093  -7.619  1.00 45.29     0.031 A 
HETATM   13  C16   D T2000       7.353   4.360  -7.609  1.00 41.24     0.085 A 
HETATM   14  C15   D T2000       5.686   2.405  -8.812  1.00 46.91     0.140 A 
HETATM   15  C5    D T2000       5.866   3.698  -9.387  1.00 46.93     0.031 A 
HETATM   16  F29   D T2000       4.891   1.534  -9.438  1.00 48.65    -0.204 F 
HETATM   17  C6    D T2000       6.697   4.689  -8.798  1.00 43.16     0.021 A 
HETATM   18  N24   D T2000       8.185   5.139  -6.886  1.00 38.68    -0.208 NA
HETATM   19  O27   D T2000       9.364   4.910  -4.979  1.00 39.38    -0.265 OA
ENDBRANCH   5   8
BRANCH   6  20
HETATM   20  C22   D T2000       9.916   2.762   0.062  1.00 57.19     0.276 C 
HETATM   21  N25   D T2000      10.427   3.981   0.342  1.00 64.68    -0.232 NA
HETATM   22  O28   D T2000       9.657   2.074   1.055  1.00 55.46    -0.266 OA
BRANCH  21  23
HETATM   23  C37   D T2000      10.644   4.434   1.724  1.00 72.35     0.164 C 
BRANCH  23  24
HETATM   24  C38   D T2000      10.308   5.891   2.160  1.00 75.73     0.276 C 
BRANCH  24  25
HETATM   25  N4    D T2000      10.649   6.801   1.003  1.00 81.36     0.139 N 
BRANCH  25  26
HETATM   26  C39   D T2000      11.711   7.793   1.480  1.00 83.55     0.250 C 
HETATM   27  C42   D T2000      13.249   7.691   1.120  1.00 84.17     0.037 C 
ENDBRANCH  25  26
BRANCH  25  28
HETATM   28  C40   D T2000       9.365   7.440   0.378  1.00 83.04     0.250 C 
HETATM   29  C41   D T2000       9.263   7.818  -1.132  1.00 82.57     0.037 C 
ENDBRANCH  25  28
ENDBRANCH  24  25
ENDBRANCH  23  24
ENDBRANCH  21  23
ENDBRANCH   6  20
TORSDOF 7
ENDMDL
MODEL 8
REMARK VINA RESULT:    -7.107      4.416      6.184
REMARK INTER + INTRA:         -11.201
REMARK INTER:                 -10.306
REMARK INTRA:                  -0.895
REMARK UNBOUND:                -1.185
REMARK  7 active torsions:
REMARK  status: ('A' for Active; 'I' for Inactive)
REMARK    1  A    between atoms: C22_10  and  C19_16 
REMARK       I    between atoms: C22_10  and  N25_19 
REMARK    2  A    between atoms: C12_12  and  C18_15 
REMARK    3  A    between atoms: N25_19  and  C37_23 
REMARK    4  A    between atoms: C37_23  and  C38_24 
REMARK    5  A    between atoms: C38_24  and  N4_25 
REMARK    6  A    between atoms: N4_25  and  C39_26 
REMARK    7  A    between atoms: N4_25  and  C40_27 
ROOT
HETATM    1  C4    D T2000       8.787   3.577   0.262  1.00 48.44     0.052 C 
HETATM    2  C13   D T2000       9.456   4.943  -3.239  1.00 48.75     0.002 A 
HETATM    3  C3    D T2000      10.000   5.725  -4.490  1.00 43.40     0.033 C 
HETATM    4  C14   D T2000       8.957   4.040  -1.194  1.00 49.83     0.064 A 
HETATM    5  C18   D T2000       8.430   3.979  -3.337  1.00 45.93     0.077 A 
HETATM    6  C19   D T2000       9.818   4.987  -1.805  1.00 51.55     0.069 A 
HETATM    7  N23   D T2000       8.180   3.490  -2.117  1.00 47.90    -0.250 NA
ENDROOT
BRANCH   5   8
HETATM    8  C12   D T2000       7.756   3.579  -4.589  1.00 43.39     0.024 C 
HETATM    9  C20   D T2000       7.800   2.368  -5.334  1.00 43.86     0.061 A 
HETATM   10  C17   D T2000       7.111   2.029  -6.648  1.00 43.90     0.025 A 
HETATM   11  C21   D T2000       8.509   1.090  -5.075  1.00 40.96     0.279 A 
HETATM   12  C7    D T2000       6.236   2.807  -7.502  1.00 45.29     0.031 A 
HETATM   13  C16   D T2000       7.467   0.718  -6.986  1.00 41.24     0.085 A 
HETATM   14  C15   D T2000       5.752   2.218  -8.675  1.00 46.91     0.140 A 
HETATM   15  C5    D T2000       6.137   0.881  -8.989  1.00 46.93     0.031 A 
HETATM   16  F29   D T2000       4.936   2.860  -9.515  1.00 48.65    -0.204 F 
HETATM   17  C6    D T2000       6.995   0.116  -8.154  1.00 43.16     0.021 A 
HETATM   18  N24   D T2000       8.284   0.181  -6.054  1.00 38.68    -0.208 NA
HETATM   19  O27   D T2000       9.203   0.874  -4.118  1.00 39.38    -0.265 OA
ENDBRANCH   5   8
BRANCH   6  20
HETATM   20  C22   D T2000      10.854   5.817  -1.057  1.00 57.19     0.276 C 
HETATM   21  N25   D T2000      10.638   7.128  -0.805  1.00 64.68    -0.232 NA
HETATM   22  O28   D T2000      11.930   5.384  -0.631  1.00 55.46    -0.266 OA
BRANCH  21  23
HETATM   23  C37   D T2000      11.615   7.950  -0.077  1.00 72.35     0.164 C 
BRANCH  23  24
HETATM   24  C38   D T2000      11.368   9.467   0.174  1.00 75.73     0.276 C 
BRANCH  24  25
HETATM   25  N4    D T2000      10.147   9.866  -0.620  1.00 81.36     0.139 N 
BRANCH  25  26
HETATM   26  C39   D T2000      10.500  11.109  -1.439  1.00 83.55     0.250 C 
HETATM   27  C42   D T2000      11.952  11.738  -1.518  1.00 84.17     0.037 C 
ENDBRANCH  25  26
BRANCH  25  28
HETATM   28  C40   D T2000       8.885  10.002   0.296  1.00 83.04     0.250 C 
HETATM   29  C41   D T2000       8.848   9.470   1.762  1.00 82.57     0.037 C 
ENDBRANCH  25  28
ENDBRANCH  24  25
ENDBRANCH  23  24
ENDBRANCH  21  23
ENDBRANCH   6  20
TORSDOF 7
ENDMDL
MODEL 9
REMARK VINA RESULT:    -7.096      4.306      5.509
REMARK INTER + INTRA:         -11.185
REMARK INTER:                 -10.351
REMARK INTRA:                  -0.834
REMARK UNBOUND:                -1.185
REMARK  7 active torsions:
REMARK  status: ('A' for Active; 'I' for Inactive)
REMARK    1  A    between atoms: C22_10  and  C19_16 
REMARK       I    between atoms: C22_10  and  N25_19 
REMARK    2  A    between atoms: C12_12  and  C18_15 
REMARK    3  A    between atoms: N25_19  and  C37_23 
REMARK    4  A    between atoms: C37_23  and  C38_24 
REMARK    5  A    between atoms: C38_24  and  N4_25 
REMARK    6  A    between atoms: N4_25  and  C39_26 
REMARK    7  A    between atoms: N4_25  and  C40_27 
ROOT
HETATM    1  C4    D T2000       8.784   3.496   0.343  1.00 48.44     0.052 C 
HETATM    2  C13   D T2000       9.447   4.953  -3.122  1.00 48.75     0.002 A 
HETATM    3  C3    D T2000       9.987   5.770  -4.353  1.00 43.40     0.033 C 
HETATM    4  C14   D T2000       8.952   3.996  -1.101  1.00 49.83     0.064 A 
HETATM    5  C18   D T2000       8.431   3.981  -3.246  1.00 45.93     0.077 A 
HETATM    6  C19   D T2000       9.805   4.966  -1.687  1.00 51.55     0.069 A 
HETATM    7  N23   D T2000       8.183   3.461  -2.039  1.00 47.90    -0.250 NA
ENDROOT
BRANCH   5   8
HETATM    8  C12   D T2000       7.765   3.604  -4.510  1.00 43.39     0.024 C 
HETATM    9  C20   D T2000       7.812   2.408  -5.276  1.00 43.86     0.061 A 
HETATM   10  C17   D T2000       7.131   2.093  -6.600  1.00 43.90     0.025 A 
HETATM   11  C21   D T2000       8.518   1.124  -5.036  1.00 40.96     0.279 A 
HETATM   12  C7    D T2000       6.262   2.888  -7.445  1.00 45.29     0.031 A 
HETATM   13  C16   D T2000       7.488   0.788  -6.959  1.00 41.24     0.085 A 
HETATM   14  C15   D T2000       5.784   2.320  -8.631  1.00 46.91     0.140 A 
HETATM   15  C5    D T2000       6.170   0.988  -8.967  1.00 46.93     0.031 A 
HETATM   16  F29   D T2000       4.973   2.978  -9.464  1.00 48.65    -0.204 F 
HETATM   17  C6    D T2000       7.022   0.208  -8.141  1.00 43.16     0.021 A 
HETATM   18  N24   D T2000       8.298   0.233  -6.033  1.00 38.68    -0.208 NA
HETATM   19  O27   D T2000       9.207   0.890  -4.079  1.00 39.38    -0.265 OA
ENDBRANCH   5   8
BRANCH   6  20
HETATM   20  C22   D T2000      10.832   5.788  -0.916  1.00 57.19     0.276 C 
HETATM   21  N25   D T2000      11.906   5.195  -0.350  1.00 64.68    -0.232 NA
HETATM   22  O28   D T2000      10.776   7.012  -0.754  1.00 55.46    -0.266 OA
BRANCH  21  23
HETATM   23  C37   D T2000      12.918   5.965   0.390  1.00 72.35     0.164 C 
BRANCH  23  24
HETATM   24  C38   D T2000      14.191   6.516  -0.318  1.00 75.73     0.276 C 
BRANCH  24  25
HETATM   25  N4    D T2000      14.155   8.023  -0.208  1.00 81.36     0.139 N 
BRANCH  25  26
HETATM   26  C39   D T2000      14.375   8.603  -1.606  1.00 83.55     0.250 C 
HETATM   27  C42   D T2000      15.524   8.136  -2.592  1.00 84.17     0.037 C 
ENDBRANCH  25  26
BRANCH  25  28
HETATM   28  C40   D T2000      15.134   8.542   0.896  1.00 83.04     0.250 C 
HETATM   29  C41   D T2000      14.648   9.342   2.144  1.00 82.57     0.037 C 
ENDBRANCH  25  28
ENDBRANCH  24  25
ENDBRANCH  23  24
ENDBRANCH  21  23
ENDBRANCH   6  20
TORSDOF 7
ENDMDL
