MODEL 1
REMARK VINA RESULT:    -7.811      0.000      0.000
REMARK INTER + INTRA:         -11.317
REMARK INTER:                 -11.007
REMARK INTRA:                  -0.309
REMARK UNBOUND:                -0.309
REMARK  7 active torsions:
REMARK  status: ('A' for Active; 'I' for Inactive)
REMARK    1  A    between atoms: C22_10  and  C19_16 
REMARK       I    between atoms: C22_10  and  N25_19 
REMARK    2  A    between atoms: C12_12  and  C18_15 
REMARK    3  A    between atoms: N25_19  and  C37_23 
REMARK    4  A    between atoms: C37_23  and  C38_24 
REMARK    5  A    between atoms: C38_24  and  N4_25 
REMARK    6  A    between atoms: N4_25  and  C39_26 
REMARK    7  A    between atoms: N4_25  and  C40_27 
ROOT
HETATM    1  C4    D T2000      -4.966  -0.311  15.918  1.00 48.44     0.052 C 
HETATM    2  C13   D T2000      -1.452   0.674  14.802  1.00 48.75     0.002 A 
HETATM    3  C3    D T2000       0.096   0.742  14.525  1.00 43.40     0.033 C 
HETATM    4  C14   D T2000      -3.608   0.199  15.410  1.00 49.83     0.064 A 
HETATM    5  C18   D T2000      -2.344   1.670  14.356  1.00 45.93     0.077 A 
HETATM    6  C19   D T2000      -2.292  -0.320  15.507  1.00 51.55     0.069 A 
HETATM    7  N23   D T2000      -3.584   1.343  14.740  1.00 47.90    -0.250 NA
ENDROOT
BRANCH   5   8
HETATM    8  C12   D T2000      -1.963   2.870  13.584  1.00 43.39     0.024 C 
HETATM    9  C20   D T2000      -2.614   3.548  12.517  1.00 43.86     0.061 A 
HETATM   10  C17   D T2000      -2.146   4.764  11.730  1.00 43.90     0.025 A 
HETATM   11  C21   D T2000      -3.917   3.294  11.854  1.00 40.96     0.279 A 
HETATM   12  C7    D T2000      -0.943   5.566  11.827  1.00 45.29     0.031 A 
HETATM   13  C16   D T2000      -3.129   5.054  10.777  1.00 41.24     0.085 A 
HETATM   14  C15   D T2000      -0.785   6.641  10.946  1.00 46.91     0.140 A 
HETATM   15  C5    D T2000      -1.805   6.907   9.986  1.00 46.93     0.031 A 
HETATM   16  F29   D T2000       0.289   7.436  10.971  1.00 48.65    -0.204 F 
HETATM   17  C6    D T2000      -2.985   6.121   9.887  1.00 43.16     0.021 A 
HETATM   18  N24   D T2000      -4.160   4.187  10.862  1.00 38.68    -0.208 NA
HETATM   19  O27   D T2000      -4.673   2.408  12.147  1.00 39.38    -0.265 OA
ENDBRANCH   5   8
BRANCH   6  20
HETATM   20  C22   D T2000      -1.929  -1.625  16.207  1.00 57.19     0.276 C 
HETATM   21  N25   D T2000      -0.723  -2.201  16.011  1.00 64.68    -0.232 NA
HETATM   22  O28   D T2000      -2.671  -2.238  16.983  1.00 55.46    -0.266 OA
BRANCH  21  23
HETATM   23  C37   D T2000      -0.343  -3.453  16.681  1.00 72.35     0.164 C 
BRANCH  23  24
HETATM   24  C38   D T2000       0.465  -3.445  18.015  1.00 75.73     0.276 C 
BRANCH  24  25
HETATM   25  N4    D T2000       1.295  -4.706  18.051  1.00 81.36     0.139 N 
BRANCH  25  26
HETATM   26  C39   D T2000       1.489  -5.186  16.613  1.00 83.55     0.250 C 
HETATM   27  C42   D T2000       1.448  -6.705  16.170  1.00 84.17     0.037 C 
ENDBRANCH  25  26
BRANCH  25  28
HETATM   28  C40   D T2000       0.691  -5.762  19.035  1.00 83.04     0.250 C 
HETATM   29  C41   D T2000      -0.755  -5.646  19.610  1.00 82.57     0.037 C 
ENDBRANCH  25  28
ENDBRANCH  24  25
ENDBRANCH  23  24
ENDBRANCH  21  23
ENDBRANCH   6  20
TORSDOF 7
ENDMDL
MODEL 2
REMARK VINA RESULT:    -7.675      1.744      2.261
REMARK INTER + INTRA:         -11.126
REMARK INTER:                 -10.349
REMARK INTRA:                  -0.777
REMARK UNBOUND:                -0.309
REMARK  7 active torsions:
REMARK  status: ('A' for Active; 'I' for Inactive)
REMARK    1  A    between atoms: C22_10  and  C19_16 
REMARK       I    between atoms: C22_10  and  N25_19 
REMARK    2  A    between atoms: C12_12  and  C18_15 
REMARK    3  A    between atoms: N25_19  and  C37_23 
REMARK    4  A    between atoms: C37_23  and  C38_24 
REMARK    5  A    between atoms: C38_24  and  N4_25 
REMARK    6  A    between atoms: N4_25  and  C39_26 
REMARK    7  A    between atoms: N4_25  and  C40_27 
ROOT
HETATM    1  C4    D T2000      -4.265  -1.004  16.607  1.00 48.44     0.052 C 
HETATM    2  C13   D T2000      -1.142   0.129  14.729  1.00 48.75     0.002 A 
HETATM    3  C3    D T2000       0.289   0.249  14.083  1.00 43.40     0.033 C 
HETATM    4  C14   D T2000      -3.078  -0.431  15.816  1.00 49.83     0.064 A 
HETATM    5  C18   D T2000      -2.121   1.134  14.589  1.00 45.93     0.077 A 
HETATM    6  C19   D T2000      -1.777  -0.928  15.547  1.00 51.55     0.069 A 
HETATM    7  N23   D T2000      -3.225   0.755  15.243  1.00 47.90    -0.250 NA
ENDROOT
BRANCH   5   8
HETATM    8  C12   D T2000      -1.948   2.392  13.833  1.00 43.39     0.024 C 
HETATM    9  C20   D T2000      -2.777   3.034  12.873  1.00 43.86     0.061 A 
HETATM   10  C17   D T2000      -2.521   4.316  12.095  1.00 43.90     0.025 A 
HETATM   11  C21   D T2000      -4.114   2.668  12.342  1.00 40.96     0.279 A 
HETATM   12  C7    D T2000      -1.400   5.234  12.097  1.00 45.29     0.031 A 
HETATM   13  C16   D T2000      -3.628   4.534  11.265  1.00 41.24     0.085 A 
HETATM   14  C15   D T2000      -1.448   6.348  11.252  1.00 46.91     0.140 A 
HETATM   15  C5    D T2000      -2.589   6.538  10.419  1.00 46.93     0.031 A 
HETATM   16  F29   D T2000      -0.462   7.248  11.196  1.00 48.65    -0.204 F 
HETATM   17  C6    D T2000      -3.690   5.638  10.413  1.00 43.16     0.021 A 
HETATM   18  N24   D T2000      -4.553   3.563  11.423  1.00 38.68    -0.208 NA
HETATM   19  O27   D T2000      -4.742   1.700  12.676  1.00 39.38    -0.265 OA
ENDBRANCH   5   8
BRANCH   6  20
HETATM   20  C22   D T2000      -1.247  -2.269  16.041  1.00 57.19     0.276 C 
HETATM   21  N25   D T2000      -1.003  -2.473  17.354  1.00 64.68    -0.232 NA
HETATM   22  O28   D T2000      -1.011  -3.243  15.318  1.00 55.46    -0.266 OA
BRANCH  21  23
HETATM   23  C37   D T2000      -0.502  -3.759  17.861  1.00 72.35     0.164 C 
BRANCH  23  24
HETATM   24  C38   D T2000      -1.350  -4.630  18.837  1.00 75.73     0.276 C 
BRANCH  24  25
HETATM   25  N4    D T2000      -2.384  -5.361  18.012  1.00 81.36     0.139 N 
BRANCH  25  26
HETATM   26  C39   D T2000      -3.693  -4.577  18.093  1.00 83.55     0.250 C 
HETATM   27  C42   D T2000      -4.985  -5.082  18.856  1.00 84.17     0.037 C 
ENDBRANCH  25  26
BRANCH  25  28
HETATM   28  C40   D T2000      -2.478  -6.870  18.417  1.00 83.04     0.250 C 
HETATM   29  C41   D T2000      -2.286  -8.030  17.392  1.00 82.57     0.037 C 
ENDBRANCH  25  28
ENDBRANCH  24  25
ENDBRANCH  23  24
ENDBRANCH  21  23
ENDBRANCH   6  20
TORSDOF 7
ENDMDL
MODEL 3
REMARK VINA RESULT:    -7.599      3.676     10.355
REMARK INTER + INTRA:         -11.018
REMARK INTER:                 -10.495
REMARK INTRA:                  -0.523
REMARK UNBOUND:                -0.309
REMARK  7 active torsions:
REMARK  status: ('A' for Active; 'I' for Inactive)
REMARK    1  A    between atoms: C22_10  and  C19_16 
REMARK       I    between atoms: C22_10  and  N25_19 
REMARK    2  A    between atoms: C12_12  and  C18_15 
REMARK    3  A    between atoms: N25_19  and  C37_23 
REMARK    4  A    between atoms: C37_23  and  C38_24 
REMARK    5  A    between atoms: C38_24  and  N4_25 
REMARK    6  A    between atoms: N4_25  and  C39_26 
REMARK    7  A    between atoms: N4_25  and  C40_27 
ROOT
HETATM    1  C4    D T2000       1.400   0.259  13.202  1.00 48.44     0.052 C 
HETATM    2  C13   D T2000      -1.845   0.732  15.154  1.00 48.75     0.002 A 
HETATM    3  C3    D T2000      -3.148   1.302  15.830  1.00 43.40     0.033 C 
HETATM    4  C14   D T2000       0.100   0.314  14.022  1.00 49.83     0.064 A 
HETATM    5  C18   D T2000      -1.451  -0.614  15.289  1.00 45.93     0.077 A 
HETATM    6  C19   D T2000      -0.813   1.362  14.302  1.00 51.55     0.069 A 
HETATM    7  N23   D T2000      -0.312  -0.800  14.611  1.00 47.90    -0.250 NA
ENDROOT
BRANCH   5   8
HETATM    8  C12   D T2000      -2.188  -1.645  16.048  1.00 43.39     0.024 C 
HETATM    9  C20   D T2000      -1.736  -2.781  16.775  1.00 43.86     0.061 A 
HETATM   10  C17   D T2000      -2.554  -3.835  17.506  1.00 43.90     0.025 A 
HETATM   11  C21   D T2000      -0.365  -3.281  17.044  1.00 40.96     0.279 A 
HETATM   12  C7    D T2000      -3.985  -3.994  17.675  1.00 45.29     0.031 A 
HETATM   13  C16   D T2000      -1.657  -4.755  18.062  1.00 41.24     0.085 A 
HETATM   14  C15   D T2000      -4.451  -5.088  18.410  1.00 46.91     0.140 A 
HETATM   15  C5    D T2000      -3.510  -6.008  18.961  1.00 46.93     0.031 A 
HETATM   16  F29   D T2000      -5.753  -5.307  18.621  1.00 48.65    -0.204 F 
HETATM   17  C6    D T2000      -2.107  -5.855  18.795  1.00 43.16     0.021 A 
HETATM   18  N24   D T2000      -0.380  -4.417  17.785  1.00 38.68    -0.208 NA
HETATM   19  O27   D T2000       0.644  -2.756  16.658  1.00 39.38    -0.265 OA
ENDBRANCH   5   8
BRANCH   6  20
HETATM   20  C22   D T2000      -0.668   2.791  13.790  1.00 57.19     0.276 C 
HETATM   21  N25   D T2000      -1.720   3.436  13.239  1.00 64.68    -0.232 NA
HETATM   22  O28   D T2000       0.374   3.455  13.837  1.00 55.46    -0.266 OA
BRANCH  21  23
HETATM   23  C37   D T2000      -1.612   4.817  12.746  1.00 72.35     0.164 C 
BRANCH  23  24
HETATM   24  C38   D T2000      -2.881   5.688  12.497  1.00 75.73     0.276 C 
BRANCH  24  25
HETATM   25  N4    D T2000      -2.937   5.997  11.019  1.00 81.36     0.139 N 
BRANCH  25  26
HETATM   26  C39   D T2000      -4.056   5.157  10.404  1.00 83.55     0.250 C 
HETATM   27  C42   D T2000      -4.509   3.743  10.951  1.00 84.17     0.037 C 
ENDBRANCH  25  26
BRANCH  25  28
HETATM   28  C40   D T2000      -1.533   5.841  10.347  1.00 83.04     0.250 C 
HETATM   29  C41   D T2000      -1.258   4.819   9.200  1.00 82.57     0.037 C 
ENDBRANCH  25  28
ENDBRANCH  24  25
ENDBRANCH  23  24
ENDBRANCH  21  23
ENDBRANCH   6  20
TORSDOF 7
ENDMDL
MODEL 4
REMARK VINA RESULT:    -7.438      5.436      9.705
REMARK INTER + INTRA:         -10.791
REMARK INTER:                  -9.772
REMARK INTRA:                  -1.018
REMARK UNBOUND:                -0.309
REMARK  7 active torsions:
REMARK  status: ('A' for Active; 'I' for Inactive)
REMARK    1  A    between atoms: C22_10  and  C19_16 
REMARK       I    between atoms: C22_10  and  N25_19 
REMARK    2  A    between atoms: C12_12  and  C18_15 
REMARK    3  A    between atoms: N25_19  and  C37_23 
REMARK    4  A    between atoms: C37_23  and  C38_24 
REMARK    5  A    between atoms: C38_24  and  N4_25 
REMARK    6  A    between atoms: N4_25  and  C39_26 
REMARK    7  A    between atoms: N4_25  and  C40_27 
ROOT
HETATM    1  C4    D T2000       0.381   8.132  10.547  1.00 48.44     0.052 C 
HETATM    2  C13   D T2000       0.782   4.374  11.078  1.00 48.75     0.002 A 
HETATM    3  C3    D T2000       1.298   2.888  11.123  1.00 43.40     0.033 C 
HETATM    4  C14   D T2000       0.415   6.620  10.820  1.00 49.83     0.064 A 
HETATM    5  C18   D T2000      -0.479   4.752  11.585  1.00 45.93     0.077 A 
HETATM    6  C19   D T2000       1.391   5.622  10.566  1.00 51.55     0.069 A 
HETATM    7  N23   D T2000      -0.639   6.069  11.406  1.00 47.90    -0.250 NA
ENDROOT
BRANCH   5   8
HETATM    8  C12   D T2000      -1.451   3.837  12.217  1.00 43.39     0.024 C 
HETATM    9  C20   D T2000      -1.372   3.051  13.399  1.00 43.86     0.061 A 
HETATM   10  C17   D T2000      -2.400   2.091  13.979  1.00 43.90     0.025 A 
HETATM   11  C21   D T2000      -0.295   2.924  14.412  1.00 40.96     0.279 A 
HETATM   12  C7    D T2000      -3.718   1.702  13.519  1.00 45.29     0.031 A 
HETATM   13  C16   D T2000      -1.858   1.550  15.151  1.00 41.24     0.085 A 
HETATM   14  C15   D T2000      -4.441   0.775  14.276  1.00 46.91     0.140 A 
HETATM   15  C5    D T2000      -3.859   0.242  15.463  1.00 46.93     0.031 A 
HETATM   16  F29   D T2000      -5.666   0.366  13.929  1.00 48.65    -0.204 F 
HETATM   17  C6    D T2000      -2.566   0.620  15.916  1.00 43.16     0.021 A 
HETATM   18  N24   D T2000      -0.627   2.048  15.393  1.00 38.68    -0.208 NA
HETATM   19  O27   D T2000       0.750   3.516  14.379  1.00 39.38    -0.265 OA
ENDBRANCH   5   8
BRANCH   6  20
HETATM   20  C22   D T2000       2.739   5.884   9.904  1.00 57.19     0.276 C 
HETATM   21  N25   D T2000       2.931   5.603   8.597  1.00 64.68    -0.232 NA
HETATM   22  O28   D T2000       3.725   6.359  10.478  1.00 55.46    -0.266 OA
BRANCH  21  23
HETATM   23  C37   D T2000       4.218   5.855   7.930  1.00 72.35     0.164 C 
BRANCH  23  24
HETATM   24  C38   D T2000       4.990   4.712   7.205  1.00 75.73     0.276 C 
BRANCH  24  25
HETATM   25  N4    D T2000       6.331   4.565   7.887  1.00 81.36     0.139 N 
BRANCH  25  26
HETATM   26  C39   D T2000       7.206   3.662   7.019  1.00 83.55     0.250 C 
HETATM   27  C42   D T2000       6.739   3.023   5.648  1.00 84.17     0.037 C 
ENDBRANCH  25  26
BRANCH  25  28
HETATM   28  C40   D T2000       6.170   4.115   9.376  1.00 83.04     0.250 C 
HETATM   29  C41   D T2000       5.295   2.893   9.796  1.00 82.57     0.037 C 
ENDBRANCH  25  28
ENDBRANCH  24  25
ENDBRANCH  23  24
ENDBRANCH  21  23
ENDBRANCH   6  20
TORSDOF 7
ENDMDL
MODEL 5
REMARK VINA RESULT:    -7.167      5.526     10.953
REMARK INTER + INTRA:         -10.410
REMARK INTER:                  -9.704
REMARK INTRA:                  -0.706
REMARK UNBOUND:                -0.309
REMARK  7 active torsions:
REMARK  status: ('A' for Active; 'I' for Inactive)
REMARK    1  A    between atoms: C22_10  and  C19_16 
REMARK       I    between atoms: C22_10  and  N25_19 
REMARK    2  A    between atoms: C12_12  and  C18_15 
REMARK    3  A    between atoms: N25_19  and  C37_23 
REMARK    4  A    between atoms: C37_23  and  C38_24 
REMARK    5  A    between atoms: C38_24  and  N4_25 
REMARK    6  A    between atoms: N4_25  and  C39_26 
REMARK    7  A    between atoms: N4_25  and  C40_27 
ROOT
HETATM    1  C4    D T2000       0.354   8.078  10.581  1.00 48.44     0.052 C 
HETATM    2  C13   D T2000       0.734   4.322  11.137  1.00 48.75     0.002 A 
HETATM    3  C3    D T2000       1.246   2.835  11.201  1.00 43.40     0.033 C 
HETATM    4  C14   D T2000       0.379   6.567  10.861  1.00 49.83     0.064 A 
HETATM    5  C18   D T2000      -0.539   4.704  11.609  1.00 45.93     0.077 A 
HETATM    6  C19   D T2000       1.358   5.566  10.637  1.00 51.55     0.069 A 
HETATM    7  N23   D T2000      -0.691   6.020  11.421  1.00 47.90    -0.250 NA
ENDROOT
BRANCH   5   8
HETATM    8  C12   D T2000      -1.529   3.793  12.219  1.00 43.39     0.024 C 
HETATM    9  C20   D T2000      -1.486   3.019  13.411  1.00 43.86     0.061 A 
HETATM   10  C17   D T2000      -2.531   2.062  13.967  1.00 43.90     0.025 A 
HETATM   11  C21   D T2000      -0.442   2.903  14.459  1.00 40.96     0.279 A 
HETATM   12  C7    D T2000      -3.833   1.666  13.469  1.00 45.29     0.031 A 
HETATM   13  C16   D T2000      -2.025   1.534  15.161  1.00 41.24     0.085 A 
HETATM   14  C15   D T2000      -4.578   0.745  14.212  1.00 46.91     0.140 A 
HETATM   15  C5    D T2000      -4.033   0.225  15.422  1.00 46.93     0.031 A 
HETATM   16  F29   D T2000      -5.791   0.331  13.830  1.00 48.65    -0.204 F 
HETATM   17  C6    D T2000      -2.755   0.609  15.912  1.00 43.16     0.021 A 
HETATM   18  N24   D T2000      -0.804   2.037  15.438  1.00 38.68    -0.208 NA
HETATM   19  O27   D T2000       0.603   3.497  14.453  1.00 39.38    -0.265 OA
ENDBRANCH   5   8
BRANCH   6  20
HETATM   20  C22   D T2000       2.725   5.823  10.010  1.00 57.19     0.276 C 
HETATM   21  N25   D T2000       2.947   5.548   8.706  1.00 64.68    -0.232 NA
HETATM   22  O28   D T2000       3.699   6.289  10.610  1.00 55.46    -0.266 OA
BRANCH  21  23
HETATM   23  C37   D T2000       4.251   5.795   8.072  1.00 72.35     0.164 C 
BRANCH  23  24
HETATM   24  C38   D T2000       4.366   6.618   6.754  1.00 75.73     0.276 C 
BRANCH  24  25
HETATM   25  N4    D T2000       5.659   7.398   6.817  1.00 81.36     0.139 N 
BRANCH  25  26
HETATM   26  C39   D T2000       5.392   8.800   6.271  1.00 83.55     0.250 C 
HETATM   27  C42   D T2000       6.018  10.123   6.874  1.00 84.17     0.037 C 
ENDBRANCH  25  26
BRANCH  25  28
HETATM   28  C40   D T2000       6.831   6.622   6.129  1.00 83.04     0.250 C 
HETATM   29  C41   D T2000       8.008   7.345   5.405  1.00 82.57     0.037 C 
ENDBRANCH  25  28
ENDBRANCH  24  25
ENDBRANCH  23  24
ENDBRANCH  21  23
ENDBRANCH   6  20
TORSDOF 7
ENDMDL
MODEL 6
REMARK VINA RESULT:    -7.163      5.392     10.245
REMARK INTER + INTRA:         -10.403
REMARK INTER:                  -9.942
REMARK INTRA:                  -0.462
REMARK UNBOUND:                -0.309
REMARK  7 active torsions:
REMARK  status: ('A' for Active; 'I' for Inactive)
REMARK    1  A    between atoms: C22_10  and  C19_16 
REMARK       I    between atoms: C22_10  and  N25_19 
REMARK    2  A    between atoms: C12_12  and  C18_15 
REMARK    3  A    between atoms: N25_19  and  C37_23 
REMARK    4  A    between atoms: C37_23  and  C38_24 
REMARK    5  A    between atoms: C38_24  and  N4_25 
REMARK    6  A    between atoms: N4_25  and  C39_26 
REMARK    7  A    between atoms: N4_25  and  C40_27 
ROOT
HETATM    1  C4    D T2000       0.113   7.138  10.947  1.00 48.44     0.052 C 
HETATM    2  C13   D T2000       1.435   3.642  11.720  1.00 48.75     0.002 A 
HETATM    3  C3    D T2000       2.287   2.322  11.817  1.00 43.40     0.033 C 
HETATM    4  C14   D T2000       0.528   5.709  11.332  1.00 49.83     0.064 A 
HETATM    5  C18   D T2000       0.180   3.781  12.348  1.00 45.93     0.077 A 
HETATM    6  C19   D T2000       1.679   4.933  11.039  1.00 51.55     0.069 A 
HETATM    7  N23   D T2000      -0.301   5.002  12.087  1.00 47.90    -0.250 NA
ENDROOT
BRANCH   5   8
HETATM    8  C12   D T2000      -0.480   2.744  13.167  1.00 43.39     0.024 C 
HETATM    9  C20   D T2000      -1.852   2.506  13.456  1.00 43.86     0.061 A 
HETATM   10  C17   D T2000      -2.469   1.437  14.347  1.00 43.90     0.025 A 
HETATM   11  C21   D T2000      -3.078   3.203  12.996  1.00 40.96     0.279 A 
HETATM   12  C7    D T2000      -1.869   0.381  15.137  1.00 45.29     0.031 A 
HETATM   13  C16   D T2000      -3.858   1.616  14.319  1.00 41.24     0.085 A 
HETATM   14  C15   D T2000      -2.710  -0.461  15.872  1.00 46.91     0.140 A 
HETATM   15  C5    D T2000      -4.120  -0.250  15.823  1.00 46.93     0.031 A 
HETATM   16  F29   D T2000      -2.242  -1.464  16.621  1.00 48.65    -0.204 F 
HETATM   17  C6    D T2000      -4.711   0.787  15.051  1.00 43.16     0.021 A 
HETATM   18  N24   D T2000      -4.199   2.651  13.523  1.00 38.68    -0.208 NA
HETATM   19  O27   D T2000      -3.092   4.143  12.248  1.00 39.38    -0.265 OA
ENDBRANCH   5   8
BRANCH   6  20
HETATM   20  C22   D T2000       2.853   5.418  10.195  1.00 57.19     0.276 C 
HETATM   21  N25   D T2000       3.145   4.827   9.017  1.00 64.68    -0.232 NA
HETATM   22  O28   D T2000       3.600   6.354  10.500  1.00 55.46    -0.266 OA
BRANCH  21  23
HETATM   23  C37   D T2000       4.265   5.280   8.178  1.00 72.35     0.164 C 
BRANCH  23  24
HETATM   24  C38   D T2000       4.024   6.154   6.910  1.00 75.73     0.276 C 
BRANCH  24  25
HETATM   25  N4    D T2000       5.052   5.752   5.878  1.00 81.36     0.139 N 
BRANCH  25  26
HETATM   26  C39   D T2000       5.506   4.327   6.194  1.00 83.55     0.250 C 
HETATM   27  C42   D T2000       7.011   3.841   6.139  1.00 84.17     0.037 C 
ENDBRANCH  25  26
BRANCH  25  28
HETATM   28  C40   D T2000       6.197   6.812   5.766  1.00 83.04     0.250 C 
HETATM   29  C41   D T2000       6.243   8.097   6.649  1.00 82.57     0.037 C 
ENDBRANCH  25  28
ENDBRANCH  24  25
ENDBRANCH  23  24
ENDBRANCH  21  23
ENDBRANCH   6  20
TORSDOF 7
ENDMDL
MODEL 7
REMARK VINA RESULT:    -6.966      2.783      5.042
REMARK INTER + INTRA:         -10.126
REMARK INTER:                  -9.635
REMARK INTRA:                  -0.491
REMARK UNBOUND:                -0.309
REMARK  7 active torsions:
REMARK  status: ('A' for Active; 'I' for Inactive)
REMARK    1  A    between atoms: C22_10  and  C19_16 
REMARK       I    between atoms: C22_10  and  N25_19 
REMARK    2  A    between atoms: C12_12  and  C18_15 
REMARK    3  A    between atoms: N25_19  and  C37_23 
REMARK    4  A    between atoms: C37_23  and  C38_24 
REMARK    5  A    between atoms: C38_24  and  N4_25 
REMARK    6  A    between atoms: N4_25  and  C39_26 
REMARK    7  A    between atoms: N4_25  and  C40_27 
ROOT
HETATM    1  C4    D T2000      -3.972  -4.603  18.044  1.00 48.44     0.052 C 
HETATM    2  C13   D T2000      -0.625  -3.050  17.071  1.00 48.75     0.002 A 
HETATM    3  C3    D T2000       0.900  -2.734  16.845  1.00 43.40     0.033 C 
HETATM    4  C14   D T2000      -2.697  -3.872  17.596  1.00 49.83     0.064 A 
HETATM    5  C18   D T2000      -1.649  -2.186  16.630  1.00 45.93     0.077 A 
HETATM    6  C19   D T2000      -1.319  -4.186  17.716  1.00 51.55     0.069 A 
HETATM    7  N23   D T2000      -2.832  -2.714  16.964  1.00 47.90    -0.250 NA
ENDROOT
BRANCH   5   8
HETATM    8  C12   D T2000      -1.438  -0.914  15.909  1.00 43.39     0.024 C 
HETATM    9  C20   D T2000      -2.358   0.020  15.360  1.00 43.86     0.061 A 
HETATM   10  C17   D T2000      -2.075   1.300  14.588  1.00 43.90     0.025 A 
HETATM   11  C21   D T2000      -3.842   0.042  15.367  1.00 40.96     0.279 A 
HETATM   12  C7    D T2000      -0.830   1.929  14.194  1.00 45.29     0.031 A 
HETATM   13  C16   D T2000      -3.308   1.871  14.251  1.00 41.24     0.085 A 
HETATM   14  C15   D T2000      -0.887   3.124  13.470  1.00 46.91     0.140 A 
HETATM   15  C5    D T2000      -2.159   3.678  13.142  1.00 46.93     0.031 A 
HETATM   16  F29   D T2000       0.212   3.774  13.074  1.00 48.65    -0.204 F 
HETATM   17  C6    D T2000      -3.382   3.062  13.525  1.00 43.16     0.021 A 
HETATM   18  N24   D T2000      -4.333   1.125  14.715  1.00 38.68    -0.208 NA
HETATM   19  O27   D T2000      -4.537  -0.792  15.881  1.00 39.38    -0.265 OA
ENDBRANCH   5   8
BRANCH   6  20
HETATM   20  C22   D T2000      -0.777  -5.445  18.385  1.00 57.19     0.276 C 
HETATM   21  N25   D T2000      -1.144  -5.769  19.644  1.00 64.68    -0.232 NA
HETATM   22  O28   D T2000       0.003  -6.244  17.855  1.00 55.46    -0.266 OA
BRANCH  21  23
HETATM   23  C37   D T2000      -0.646  -6.982  20.310  1.00 72.35     0.164 C 
BRANCH  23  24
HETATM   24  C38   D T2000      -1.458  -8.312  20.281  1.00 75.73     0.276 C 
BRANCH  24  25
HETATM   25  N4    D T2000      -2.909  -7.954  20.063  1.00 81.36     0.139 N 
BRANCH  25  26
HETATM   26  C39   D T2000      -3.684  -8.332  21.324  1.00 83.55     0.250 C 
HETATM   27  C42   D T2000      -5.234  -8.079  21.526  1.00 84.17     0.037 C 
ENDBRANCH  25  26
BRANCH  25  28
HETATM   28  C40   D T2000      -3.457  -8.564  18.730  1.00 83.04     0.250 C 
HETATM   29  C41   D T2000      -2.678  -8.476  17.382  1.00 82.57     0.037 C 
ENDBRANCH  25  28
ENDBRANCH  24  25
ENDBRANCH  23  24
ENDBRANCH  21  23
ENDBRANCH   6  20
TORSDOF 7
ENDMDL
MODEL 8
REMARK VINA RESULT:    -6.914      6.440      8.486
REMARK INTER + INTRA:         -10.053
REMARK INTER:                  -8.839
REMARK INTRA:                  -1.214
REMARK UNBOUND:                -0.309
REMARK  7 active torsions:
REMARK  status: ('A' for Active; 'I' for Inactive)
REMARK    1  A    between atoms: C22_10  and  C19_16 
REMARK       I    between atoms: C22_10  and  N25_19 
REMARK    2  A    between atoms: C12_12  and  C18_15 
REMARK    3  A    between atoms: N25_19  and  C37_23 
REMARK    4  A    between atoms: C37_23  and  C38_24 
REMARK    5  A    between atoms: C38_24  and  N4_25 
REMARK    6  A    between atoms: N4_25  and  C39_26 
REMARK    7  A    between atoms: N4_25  and  C40_27 
ROOT
HETATM    1  C4    D T2000       5.841   2.625  15.612  1.00 48.44     0.052 C 
HETATM    2  C13   D T2000       3.337   1.418  12.996  1.00 48.75     0.002 A 
HETATM    3  C3    D T2000       2.628   0.911  11.686  1.00 43.40     0.033 C 
HETATM    4  C14   D T2000       4.733   2.149  14.657  1.00 49.83     0.064 A 
HETATM    5  C18   D T2000       2.635   1.642  14.198  1.00 45.93     0.077 A 
HETATM    6  C19   D T2000       4.747   1.751  13.296  1.00 51.55     0.069 A 
HETATM    7  N23   D T2000       3.497   2.068  15.128  1.00 47.90    -0.250 NA
ENDROOT
BRANCH   5   8
HETATM    8  C12   D T2000       1.186   1.428  14.389  1.00 43.39     0.024 C 
HETATM    9  C20   D T2000       0.059   2.177  13.951  1.00 43.86     0.061 A 
HETATM   10  C17   D T2000      -1.418   1.924  14.218  1.00 43.90     0.025 A 
HETATM   11  C21   D T2000      -0.032   3.403  13.120  1.00 40.96     0.279 A 
HETATM   12  C7    D T2000      -2.095   0.886  14.969  1.00 45.29     0.031 A 
HETATM   13  C16   D T2000      -2.141   2.940  13.582  1.00 41.24     0.085 A 
HETATM   14  C15   D T2000      -3.491   0.919  15.043  1.00 46.91     0.140 A 
HETATM   15  C5    D T2000      -4.197   1.970  14.385  1.00 46.93     0.031 A 
HETATM   16  F29   D T2000      -4.195  -0.002  15.708  1.00 48.65    -0.204 F 
HETATM   17  C6    D T2000      -3.535   2.990  13.650  1.00 43.16     0.021 A 
HETATM   18  N24   D T2000      -1.317   3.797  12.942  1.00 38.68    -0.208 NA
HETATM   19  O27   D T2000       0.910   3.987  12.657  1.00 39.38    -0.265 OA
ENDBRANCH   5   8
BRANCH   6  20
HETATM   20  C22   D T2000       5.996   1.713  12.421  1.00 57.19     0.276 C 
HETATM   21  N25   D T2000       6.041   2.390  11.253  1.00 64.68    -0.232 NA
HETATM   22  O28   D T2000       7.030   1.094  12.696  1.00 55.46    -0.266 OA
BRANCH  21  23
HETATM   23  C37   D T2000       7.235   2.380  10.395  1.00 72.35     0.164 C 
BRANCH  23  24
HETATM   24  C38   D T2000       7.237   1.648   9.019  1.00 75.73     0.276 C 
BRANCH  24  25
HETATM   25  N4    D T2000       7.524   0.188   9.281  1.00 81.36     0.139 N 
BRANCH  25  26
HETATM   26  C39   D T2000       8.465  -0.312   8.186  1.00 83.55     0.250 C 
HETATM   27  C42   D T2000       8.162  -0.206   6.636  1.00 84.17     0.037 C 
ENDBRANCH  25  26
BRANCH  25  28
HETATM   28  C40   D T2000       6.204  -0.633   9.458  1.00 83.04     0.250 C 
HETATM   29  C41   D T2000       5.973  -1.607  10.655  1.00 82.57     0.037 C 
ENDBRANCH  25  28
ENDBRANCH  24  25
ENDBRANCH  23  24
ENDBRANCH  21  23
ENDBRANCH   6  20
TORSDOF 7
ENDMDL
MODEL 9
REMARK VINA RESULT:    -6.895      6.082      9.227
REMARK INTER + INTRA:         -10.025
REMARK INTER:                  -8.981
REMARK INTRA:                  -1.044
REMARK UNBOUND:                -0.309
REMARK  7 active torsions:
REMARK  status: ('A' for Active; 'I' for Inactive)
REMARK    1  A    between atoms: C22_10  and  C19_16 
REMARK       I    between atoms: C22_10  and  N25_19 
REMARK    2  A    between atoms: C12_12  and  C18_15 
REMARK    3  A    between atoms: N25_19  and  C37_23 
REMARK    4  A    between atoms: C37_23  and  C38_24 
REMARK    5  A    between atoms: C38_24  and  N4_25 
REMARK    6  A    between atoms: N4_25  and  C39_26 
REMARK    7  A    between atoms: N4_25  and  C40_27 
ROOT
HETATM    1  C4    D T2000       5.512   2.497  15.117  1.00 48.44     0.052 C 
HETATM    2  C13   D T2000       2.819   1.467  12.616  1.00 48.75     0.002 A 
HETATM    3  C3    D T2000       2.009   1.070  11.326  1.00 43.40     0.033 C 
HETATM    4  C14   D T2000       4.338   2.078  14.217  1.00 49.83     0.064 A 
HETATM    5  C18   D T2000       2.223   1.535  13.892  1.00 45.93     0.077 A 
HETATM    6  C19   D T2000       4.240   1.826  12.825  1.00 51.55     0.069 A 
HETATM    7  N23   D T2000       3.153   1.897  14.784  1.00 47.90    -0.250 NA
ENDROOT
BRANCH   5   8
HETATM    8  C12   D T2000       0.806   1.242  14.185  1.00 43.39     0.024 C 
HETATM    9  C20   D T2000      -0.384   1.965  13.896  1.00 43.86     0.061 A 
HETATM   10  C17   D T2000      -1.821   1.628  14.264  1.00 43.90     0.025 A 
HETATM   11  C21   D T2000      -0.594   3.239  13.164  1.00 40.96     0.279 A 
HETATM   12  C7    D T2000      -2.389   0.511  14.992  1.00 45.29     0.031 A 
HETATM   13  C16   D T2000      -2.636   2.650  13.762  1.00 41.24     0.085 A 
HETATM   14  C15   D T2000      -3.775   0.475  15.181  1.00 46.91     0.140 A 
HETATM   15  C5    D T2000      -4.575   1.533  14.660  1.00 46.93     0.031 A 
HETATM   16  F29   D T2000      -4.383  -0.521  15.835  1.00 48.65    -0.204 F 
HETATM   17  C6    D T2000      -4.021   2.631  13.947  1.00 43.16     0.021 A 
HETATM   18  N24   D T2000      -1.904   3.584  13.119  1.00 38.68    -0.208 NA
HETATM   19  O27   D T2000       0.281   3.896  12.667  1.00 39.38    -0.265 OA
ENDBRANCH   5   8
BRANCH   6  20
HETATM   20  C22   D T2000       5.404   1.931  11.846  1.00 57.19     0.276 C 
HETATM   21  N25   D T2000       5.859   3.137  11.444  1.00 64.68    -0.232 NA
HETATM   22  O28   D T2000       6.008   0.967  11.363  1.00 55.46    -0.266 OA
BRANCH  21  23
HETATM   23  C37   D T2000       6.986   3.269  10.509  1.00 72.35     0.164 C 
BRANCH  23  24
HETATM   24  C38   D T2000       6.958   4.310   9.349  1.00 75.73     0.276 C 
BRANCH  24  25
HETATM   25  N4    D T2000       6.301   3.649   8.160  1.00 81.36     0.139 N 
BRANCH  25  26
HETATM   26  C39   D T2000       7.320   3.602   7.023  1.00 83.55     0.250 C 
HETATM   27  C42   D T2000       7.094   2.832   5.658  1.00 84.17     0.037 C 
ENDBRANCH  25  26
BRANCH  25  28
HETATM   28  C40   D T2000       4.935   4.327   7.810  1.00 83.04     0.250 C 
HETATM   29  C41   D T2000       3.752   4.411   8.824  1.00 82.57     0.037 C 
ENDBRANCH  25  28
ENDBRANCH  24  25
ENDBRANCH  23  24
ENDBRANCH  21  23
ENDBRANCH   6  20
TORSDOF 7
ENDMDL
