MODEL 1
REMARK VINA RESULT:    -8.714      0.000      0.000
REMARK INTER + INTRA:         -13.056
REMARK INTER:                 -12.281
REMARK INTRA:                  -0.775
REMARK UNBOUND:                -0.775
REMARK  7 active torsions:
REMARK  status: ('A' for Active; 'I' for Inactive)
REMARK    1  A    between atoms: C22_10  and  C19_16 
REMARK       I    between atoms: C22_10  and  N25_19 
REMARK    2  A    between atoms: C12_12  and  C18_15 
REMARK    3  A    between atoms: N25_19  and  C37_23 
REMARK    4  A    between atoms: C37_23  and  C38_24 
REMARK    5  A    between atoms: C38_24  and  N4_25 
REMARK    6  A    between atoms: N4_25  and  C39_26 
REMARK    7  A    between atoms: N4_25  and  C40_27 
ROOT
HETATM    1  C4    D T2000       0.922   8.513  10.232  1.00 48.44     0.052 C 
HETATM    2  C13   D T2000       1.556   4.750  10.293  1.00 48.75     0.002 A 
HETATM    3  C3    D T2000       2.138   3.300  10.106  1.00 43.40     0.033 C 
HETATM    4  C14   D T2000       1.060   6.986  10.331  1.00 49.83     0.064 A 
HETATM    5  C18   D T2000       0.358   5.000  10.994  1.00 45.93     0.077 A 
HETATM    6  C19   D T2000       2.034   6.076   9.847  1.00 51.55     0.069 A 
HETATM    7  N23   D T2000       0.118   6.316  10.983  1.00 47.90    -0.250 NA
ENDROOT
BRANCH   5   8
HETATM    8  C12   D T2000      -0.480   3.970  11.642  1.00 43.39     0.024 C 
HETATM    9  C20   D T2000      -1.852   3.634  11.479  1.00 43.86     0.061 A 
HETATM   10  C17   D T2000      -2.672   2.582  12.210  1.00 43.90     0.025 A 
HETATM   11  C21   D T2000      -2.889   4.190  10.573  1.00 40.96     0.279 A 
HETATM   12  C7    D T2000      -2.316   1.640  13.251  1.00 45.29     0.031 A 
HETATM   13  C16   D T2000      -3.977   2.638  11.705  1.00 41.24     0.085 A 
HETATM   14  C15   D T2000      -3.305   0.781  13.741  1.00 46.91     0.140 A 
HETATM   15  C5    D T2000      -4.626   0.866  13.206  1.00 46.93     0.031 A 
HETATM   16  F29   D T2000      -3.063  -0.123  14.695  1.00 48.65    -0.204 F 
HETATM   17  C6    D T2000      -4.978   1.791  12.187  1.00 43.16     0.021 A 
HETATM   18  N24   D T2000      -4.088   3.582  10.745  1.00 38.68    -0.208 NA
HETATM   19  O27   D T2000      -2.702   5.070   9.777  1.00 39.38    -0.265 OA
ENDBRANCH   5   8
BRANCH   6  20
HETATM   20  C22   D T2000       3.270   6.482   9.050  1.00 57.19     0.276 C 
HETATM   21  N25   D T2000       3.203   6.655   7.712  1.00 64.68    -0.232 NA
HETATM   22  O28   D T2000       4.387   6.685   9.539  1.00 55.46    -0.266 OA
BRANCH  21  23
HETATM   23  C37   D T2000       4.375   7.057   6.920  1.00 72.35     0.164 C 
BRANCH  23  24
HETATM   24  C38   D T2000       4.820   8.547   6.833  1.00 75.73     0.276 C 
BRANCH  24  25
HETATM   25  N4    D T2000       6.290   8.562   6.484  1.00 81.36     0.139 N 
BRANCH  25  26
HETATM   26  C39   D T2000       6.419   8.906   5.000  1.00 83.55     0.250 C 
HETATM   27  C42   D T2000       5.195   9.270   4.063  1.00 84.17     0.037 C 
ENDBRANCH  25  26
BRANCH  25  28
HETATM   28  C40   D T2000       6.999   7.241   6.931  1.00 83.04     0.250 C 
HETATM   29  C41   D T2000       8.019   7.190   8.110  1.00 82.57     0.037 C 
ENDBRANCH  25  28
ENDBRANCH  24  25
ENDBRANCH  23  24
ENDBRANCH  21  23
ENDBRANCH   6  20
TORSDOF 7
ENDMDL
MODEL 2
REMARK VINA RESULT:    -8.604      2.091      3.021
REMARK INTER + INTRA:         -12.900
REMARK INTER:                 -12.599
REMARK INTRA:                  -0.301
REMARK UNBOUND:                -0.775
REMARK  7 active torsions:
REMARK  status: ('A' for Active; 'I' for Inactive)
REMARK    1  A    between atoms: C22_10  and  C19_16 
REMARK       I    between atoms: C22_10  and  N25_19 
REMARK    2  A    between atoms: C12_12  and  C18_15 
REMARK    3  A    between atoms: N25_19  and  C37_23 
REMARK    4  A    between atoms: C37_23  and  C38_24 
REMARK    5  A    between atoms: C38_24  and  N4_25 
REMARK    6  A    between atoms: N4_25  and  C39_26 
REMARK    7  A    between atoms: N4_25  and  C40_27 
ROOT
HETATM    1  C4    D T2000       3.555   3.472   9.574  1.00 48.44     0.052 C 
HETATM    2  C13   D T2000       0.269   5.332  10.131  1.00 48.75     0.002 A 
HETATM    3  C3    D T2000      -0.874   6.409  10.232  1.00 43.40     0.033 C 
HETATM    4  C14   D T2000       2.178   4.099   9.840  1.00 49.83     0.064 A 
HETATM    5  C18   D T2000       0.071   3.982  10.489  1.00 45.93     0.077 A 
HETATM    6  C19   D T2000       1.678   5.419   9.692  1.00 51.55     0.069 A 
HETATM    7  N23   D T2000       1.214   3.314  10.302  1.00 47.90    -0.250 NA
ENDROOT
BRANCH   5   8
HETATM    8  C12   D T2000      -1.200   3.410  10.980  1.00 43.39     0.024 C 
HETATM    9  C20   D T2000      -1.467   2.299  11.825  1.00 43.86     0.061 A 
HETATM   10  C17   D T2000      -2.809   1.731  12.262  1.00 43.90     0.025 A 
HETATM   11  C21   D T2000      -0.549   1.365  12.524  1.00 40.96     0.279 A 
HETATM   12  C7    D T2000      -4.167   2.138  11.964  1.00 45.29     0.031 A 
HETATM   13  C16   D T2000      -2.553   0.628  13.086  1.00 41.24     0.085 A 
HETATM   14  C15   D T2000      -5.221   1.405  12.519  1.00 46.91     0.140 A 
HETATM   15  C5    D T2000      -4.924   0.285  13.352  1.00 46.93     0.031 A 
HETATM   16  F29   D T2000      -6.502   1.714  12.302  1.00 48.65    -0.204 F 
HETATM   17  C6    D T2000      -3.593  -0.117  13.645  1.00 43.16     0.021 A 
HETATM   18  N24   D T2000      -1.225   0.428  13.232  1.00 38.68    -0.208 NA
HETATM   19  O27   D T2000       0.650   1.423  12.479  1.00 39.38    -0.265 OA
ENDBRANCH   5   8
BRANCH   6  20
HETATM   20  C22   D T2000       2.501   6.598   9.181  1.00 57.19     0.276 C 
HETATM   21  N25   D T2000       3.317   6.459   8.113  1.00 64.68    -0.232 NA
HETATM   22  O28   D T2000       2.487   7.731   9.673  1.00 55.46    -0.266 OA
BRANCH  21  23
HETATM   23  C37   D T2000       4.112   7.580   7.592  1.00 72.35     0.164 C 
BRANCH  23  24
HETATM   24  C38   D T2000       5.669   7.532   7.579  1.00 75.73     0.276 C 
BRANCH  24  25
HETATM   25  N4    D T2000       6.120   7.797   6.162  1.00 81.36     0.139 N 
BRANCH  25  26
HETATM   26  C39   D T2000       7.647   7.737   6.133  1.00 83.55     0.250 C 
HETATM   27  C42   D T2000       8.560   8.709   5.278  1.00 84.17     0.037 C 
ENDBRANCH  25  26
BRANCH  25  28
HETATM   28  C40   D T2000       5.489   9.113   5.596  1.00 83.04     0.250 C 
HETATM   29  C41   D T2000       5.082   9.276   4.100  1.00 82.57     0.037 C 
ENDBRANCH  25  28
ENDBRANCH  24  25
ENDBRANCH  23  24
ENDBRANCH  21  23
ENDBRANCH   6  20
TORSDOF 7
ENDMDL
MODEL 3
REMARK VINA RESULT:    -8.595      2.064      2.721
REMARK INTER + INTRA:         -12.888
REMARK INTER:                 -12.511
REMARK INTRA:                  -0.377
REMARK UNBOUND:                -0.775
REMARK  7 active torsions:
REMARK  status: ('A' for Active; 'I' for Inactive)
REMARK    1  A    between atoms: C22_10  and  C19_16 
REMARK       I    between atoms: C22_10  and  N25_19 
REMARK    2  A    between atoms: C12_12  and  C18_15 
REMARK    3  A    between atoms: N25_19  and  C37_23 
REMARK    4  A    between atoms: C37_23  and  C38_24 
REMARK    5  A    between atoms: C38_24  and  N4_25 
REMARK    6  A    between atoms: N4_25  and  C39_26 
REMARK    7  A    between atoms: N4_25  and  C40_27 
ROOT
HETATM    1  C4    D T2000       3.584   3.642   9.593  1.00 48.44     0.052 C 
HETATM    2  C13   D T2000       0.268   5.428  10.207  1.00 48.75     0.002 A 
HETATM    3  C3    D T2000      -0.895   6.481  10.334  1.00 43.40     0.033 C 
HETATM    4  C14   D T2000       2.197   4.238   9.880  1.00 49.83     0.064 A 
HETATM    5  C18   D T2000       0.098   4.070  10.545  1.00 45.93     0.077 A 
HETATM    6  C19   D T2000       1.671   5.550   9.758  1.00 51.55     0.069 A 
HETATM    7  N23   D T2000       1.253   3.426  10.337  1.00 47.90    -0.250 NA
ENDROOT
BRANCH   5   8
HETATM    8  C12   D T2000      -1.157   3.465  11.036  1.00 43.39     0.024 C 
HETATM    9  C20   D T2000      -1.396   2.336  11.865  1.00 43.86     0.061 A 
HETATM   10  C17   D T2000      -2.723   1.735  12.305  1.00 43.90     0.025 A 
HETATM   11  C21   D T2000      -0.454   1.410  12.543  1.00 40.96     0.279 A 
HETATM   12  C7    D T2000      -4.091   2.120  12.023  1.00 45.29     0.031 A 
HETATM   13  C16   D T2000      -2.438   0.625  13.108  1.00 41.24     0.085 A 
HETATM   14  C15   D T2000      -5.125   1.358  12.575  1.00 46.91     0.140 A 
HETATM   15  C5    D T2000      -4.801   0.231  13.388  1.00 46.93     0.031 A 
HETATM   16  F29   D T2000      -6.415   1.645  12.373  1.00 48.65    -0.204 F 
HETATM   17  C6    D T2000      -3.460  -0.150  13.664  1.00 43.16     0.021 A 
HETATM   18  N24   D T2000      -1.106   0.448  13.242  1.00 38.68    -0.208 NA
HETATM   19  O27   D T2000       0.744   1.491  12.490  1.00 39.38    -0.265 OA
ENDBRANCH   5   8
BRANCH   6  20
HETATM   20  C22   D T2000       2.466   6.752   9.260  1.00 57.19     0.276 C 
HETATM   21  N25   D T2000       3.244   6.658   8.158  1.00 64.68    -0.232 NA
HETATM   22  O28   D T2000       2.463   7.867   9.792  1.00 55.46    -0.266 OA
BRANCH  21  23
HETATM   23  C37   D T2000       4.012   7.803   7.649  1.00 72.35     0.164 C 
BRANCH  23  24
HETATM   24  C38   D T2000       5.510   8.006   8.026  1.00 75.73     0.276 C 
BRANCH  24  25
HETATM   25  N4    D T2000       6.253   8.356   6.759  1.00 81.36     0.139 N 
BRANCH  25  26
HETATM   26  C39   D T2000       5.310   9.164   5.866  1.00 83.55     0.250 C 
HETATM   27  C42   D T2000       5.348   9.142   4.283  1.00 84.17     0.037 C 
ENDBRANCH  25  26
BRANCH  25  28
HETATM   28  C40   D T2000       6.885   7.088   6.094  1.00 83.04     0.250 C 
HETATM   29  C41   D T2000       7.363   5.855   6.920  1.00 82.57     0.037 C 
ENDBRANCH  25  28
ENDBRANCH  24  25
ENDBRANCH  23  24
ENDBRANCH  21  23
ENDBRANCH   6  20
TORSDOF 7
ENDMDL
MODEL 4
REMARK VINA RESULT:    -7.562      3.642     10.442
REMARK INTER + INTRA:         -11.432
REMARK INTER:                 -10.415
REMARK INTRA:                  -1.017
REMARK UNBOUND:                -0.775
REMARK  7 active torsions:
REMARK  status: ('A' for Active; 'I' for Inactive)
REMARK    1  A    between atoms: C22_10  and  C19_16 
REMARK       I    between atoms: C22_10  and  N25_19 
REMARK    2  A    between atoms: C12_12  and  C18_15 
REMARK    3  A    between atoms: N25_19  and  C37_23 
REMARK    4  A    between atoms: C37_23  and  C38_24 
REMARK    5  A    between atoms: C38_24  and  N4_25 
REMARK    6  A    between atoms: N4_25  and  C39_26 
REMARK    7  A    between atoms: N4_25  and  C40_27 
ROOT
HETATM    1  C4    D T2000      -0.306   7.535  10.649  1.00 48.44     0.052 C 
HETATM    2  C13   D T2000       2.761   5.625   9.421  1.00 48.75     0.002 A 
HETATM    3  C3    D T2000       3.784   4.524   8.953  1.00 43.40     0.033 C 
HETATM    4  C14   D T2000       0.995   6.889  10.149  1.00 49.83     0.064 A 
HETATM    5  C18   D T2000       3.102   6.991   9.497  1.00 45.93     0.077 A 
HETATM    6  C19   D T2000       1.350   5.547   9.855  1.00 51.55     0.069 A 
HETATM    7  N23   D T2000       2.038   7.678   9.927  1.00 47.90    -0.250 NA
ENDROOT
BRANCH   5   8
HETATM    8  C12   D T2000       4.419   7.560   9.144  1.00 43.39     0.024 C 
HETATM    9  C20   D T2000       5.000   7.877   7.885  1.00 43.86     0.061 A 
HETATM   10  C17   D T2000       6.386   8.427   7.584  1.00 43.90     0.025 A 
HETATM   11  C21   D T2000       4.456   7.773   6.508  1.00 40.96     0.279 A 
HETATM   12  C7    D T2000       7.489   8.781   8.454  1.00 45.29     0.031 A 
HETATM   13  C16   D T2000       6.493   8.563   6.194  1.00 41.24     0.085 A 
HETATM   14  C15   D T2000       8.666   9.267   7.876  1.00 46.91     0.140 A 
HETATM   15  C5    D T2000       8.743   9.391   6.456  1.00 46.93     0.031 A 
HETATM   16  F29   D T2000       9.728   9.624   8.603  1.00 48.65    -0.204 F 
HETATM   17  C6    D T2000       7.663   9.042   5.601  1.00 43.16     0.021 A 
HETATM   18  N24   D T2000       5.354   8.179   5.578  1.00 38.68    -0.208 NA
HETATM   19  O27   D T2000       3.354   7.380   6.236  1.00 39.38    -0.265 OA
ENDBRANCH   5   8
BRANCH   6  20
HETATM   20  C22   D T2000       0.404   4.358   9.989  1.00 57.19     0.276 C 
HETATM   21  N25   D T2000       0.567   3.455  10.981  1.00 64.68    -0.232 NA
HETATM   22  O28   D T2000      -0.552   4.131   9.240  1.00 55.46    -0.266 OA
BRANCH  21  23
HETATM   23  C37   D T2000      -0.336   2.305  11.141  1.00 72.35     0.164 C 
BRANCH  23  24
HETATM   24  C38   D T2000      -0.832   1.856  12.548  1.00 75.73     0.276 C 
BRANCH  24  25
HETATM   25  N4    D T2000      -2.258   2.331  12.699  1.00 81.36     0.139 N 
BRANCH  25  26
HETATM   26  C39   D T2000      -2.990   1.344  13.609  1.00 83.55     0.250 C 
HETATM   27  C42   D T2000      -2.663  -0.204  13.685  1.00 84.17     0.037 C 
ENDBRANCH  25  26
BRANCH  25  28
HETATM   28  C40   D T2000      -2.928   2.587  11.308  1.00 83.04     0.250 C 
HETATM   29  C41   D T2000      -3.636   3.929  10.949  1.00 82.57     0.037 C 
ENDBRANCH  25  28
ENDBRANCH  24  25
ENDBRANCH  23  24
ENDBRANCH  21  23
ENDBRANCH   6  20
TORSDOF 7
ENDMDL
MODEL 5
REMARK VINA RESULT:    -7.202      1.459      2.058
REMARK INTER + INTRA:         -10.925
REMARK INTER:                 -10.711
REMARK INTRA:                  -0.213
REMARK UNBOUND:                -0.775
REMARK  7 active torsions:
REMARK  status: ('A' for Active; 'I' for Inactive)
REMARK    1  A    between atoms: C22_10  and  C19_16 
REMARK       I    between atoms: C22_10  and  N25_19 
REMARK    2  A    between atoms: C12_12  and  C18_15 
REMARK    3  A    between atoms: N25_19  and  C37_23 
REMARK    4  A    between atoms: C37_23  and  C38_24 
REMARK    5  A    between atoms: C38_24  and  N4_25 
REMARK    6  A    between atoms: N4_25  and  C39_26 
REMARK    7  A    between atoms: N4_25  and  C40_27 
ROOT
HETATM    1  C4    D T2000       4.348   4.154   8.734  1.00 48.44     0.052 C 
HETATM    2  C13   D T2000       1.280   5.601  10.483  1.00 48.75     0.002 A 
HETATM    3  C3    D T2000       0.168   6.543  11.078  1.00 43.40     0.033 C 
HETATM    4  C14   D T2000       3.078   4.605   9.472  1.00 49.83     0.064 A 
HETATM    5  C18   D T2000       1.249   4.200  10.641  1.00 45.93     0.077 A 
HETATM    6  C19   D T2000       2.501   5.882   9.697  1.00 51.55     0.069 A 
HETATM    7  N23   D T2000       2.319   3.674  10.035  1.00 47.90    -0.250 NA
ENDROOT
BRANCH   5   8
HETATM    8  C12   D T2000       0.196   3.447  11.353  1.00 43.39     0.024 C 
HETATM    9  C20   D T2000      -1.207   3.366  11.142  1.00 43.86     0.061 A 
HETATM   10  C17   D T2000      -2.251   2.600  11.941  1.00 43.90     0.025 A 
HETATM   11  C21   D T2000      -2.074   3.987  10.109  1.00 40.96     0.279 A 
HETATM   12  C7    D T2000      -2.134   1.752  13.111  1.00 45.29     0.031 A 
HETATM   13  C16   D T2000      -3.497   2.840  11.348  1.00 41.24     0.085 A 
HETATM   14  C15   D T2000      -3.295   1.175  13.635  1.00 46.91     0.140 A 
HETATM   15  C5    D T2000      -4.548   1.443  13.008  1.00 46.93     0.031 A 
HETATM   16  F29   D T2000      -3.277   0.376  14.706  1.00 48.65    -0.204 F 
HETATM   17  C6    D T2000      -4.666   2.275  11.862  1.00 43.16     0.021 A 
HETATM   18  N24   D T2000      -3.377   3.651  10.275  1.00 38.68    -0.208 NA
HETATM   19  O27   D T2000      -1.682   4.701   9.226  1.00 39.38    -0.265 OA
ENDBRANCH   5   8
BRANCH   6  20
HETATM   20  C22   D T2000       3.093   7.195   9.195  1.00 57.19     0.276 C 
HETATM   21  N25   D T2000       4.360   7.247   8.728  1.00 64.68    -0.232 NA
HETATM   22  O28   D T2000       2.490   8.273   9.167  1.00 55.46    -0.266 OA
BRANCH  21  23
HETATM   23  C37   D T2000       4.953   8.495   8.226  1.00 72.35     0.164 C 
BRANCH  23  24
HETATM   24  C38   D T2000       5.533   8.594   6.784  1.00 75.73     0.276 C 
BRANCH  24  25
HETATM   25  N4    D T2000       6.953   8.080   6.831  1.00 81.36     0.139 N 
BRANCH  25  26
HETATM   26  C39   D T2000       7.817   9.006   5.974  1.00 83.55     0.250 C 
HETATM   27  C42   D T2000       8.793  10.106   6.562  1.00 84.17     0.037 C 
ENDBRANCH  25  26
BRANCH  25  28
HETATM   28  C40   D T2000       7.026   6.561   6.461  1.00 83.04     0.250 C 
HETATM   29  C41   D T2000       8.139   5.615   7.006  1.00 82.57     0.037 C 
ENDBRANCH  25  28
ENDBRANCH  24  25
ENDBRANCH  23  24
ENDBRANCH  21  23
ENDBRANCH   6  20
TORSDOF 7
ENDMDL
MODEL 6
REMARK VINA RESULT:    -7.126      3.508     10.445
REMARK INTER + INTRA:         -10.817
REMARK INTER:                 -10.194
REMARK INTRA:                  -0.623
REMARK UNBOUND:                -0.775
REMARK  7 active torsions:
REMARK  status: ('A' for Active; 'I' for Inactive)
REMARK    1  A    between atoms: C22_10  and  C19_16 
REMARK       I    between atoms: C22_10  and  N25_19 
REMARK    2  A    between atoms: C12_12  and  C18_15 
REMARK    3  A    between atoms: N25_19  and  C37_23 
REMARK    4  A    between atoms: C37_23  and  C38_24 
REMARK    5  A    between atoms: C38_24  and  N4_25 
REMARK    6  A    between atoms: N4_25  and  C39_26 
REMARK    7  A    between atoms: N4_25  and  C40_27 
ROOT
HETATM    1  C4    D T2000       1.454   3.060   9.992  1.00 48.44     0.052 C 
HETATM    2  C13   D T2000       1.774   6.862   9.898  1.00 48.75     0.002 A 
HETATM    3  C3    D T2000       1.513   8.414   9.916  1.00 43.40     0.033 C 
HETATM    4  C14   D T2000       1.720   4.572   9.935  1.00 49.83     0.064 A 
HETATM    5  C18   D T2000       3.059   6.313   9.708  1.00 45.93     0.077 A 
HETATM    6  C19   D T2000       0.870   5.702  10.053  1.00 51.55     0.069 A 
HETATM    7  N23   D T2000       2.967   4.979   9.737  1.00 47.90    -0.250 NA
ENDROOT
BRANCH   5   8
HETATM    8  C12   D T2000       4.299   7.095   9.521  1.00 43.39     0.024 C 
HETATM    9  C20   D T2000       4.933   7.585   8.347  1.00 43.86     0.061 A 
HETATM   10  C17   D T2000       6.240   8.354   8.216  1.00 43.90     0.025 A 
HETATM   11  C21   D T2000       4.536   7.502   6.919  1.00 40.96     0.279 A 
HETATM   12  C7    D T2000       7.193   8.803   9.211  1.00 45.29     0.031 A 
HETATM   13  C16   D T2000       6.448   8.605   6.855  1.00 41.24     0.085 A 
HETATM   14  C15   D T2000       8.328   9.498   8.781  1.00 46.91     0.140 A 
HETATM   15  C5    D T2000       8.510   9.735   7.385  1.00 46.93     0.031 A 
HETATM   16  F29   D T2000       9.254   9.954   9.629  1.00 48.65    -0.204 F 
HETATM   17  C6    D T2000       7.578   9.294   6.409  1.00 43.16     0.021 A 
HETATM   18  N24   D T2000       5.441   8.103   6.108  1.00 38.68    -0.208 NA
HETATM   19  O27   D T2000       3.537   6.971   6.516  1.00 39.38    -0.265 OA
ENDBRANCH   5   8
BRANCH   6  20
HETATM   20  C22   D T2000      -0.635   5.625  10.289  1.00 57.19     0.276 C 
HETATM   21  N25   D T2000      -1.194   4.518  10.826  1.00 64.68    -0.232 NA
HETATM   22  O28   D T2000      -1.435   6.530  10.028  1.00 55.46    -0.266 OA
BRANCH  21  23
HETATM   23  C37   D T2000      -2.639   4.420  11.076  1.00 72.35     0.164 C 
BRANCH  23  24
HETATM   24  C38   D T2000      -3.363   3.042  11.112  1.00 75.73     0.276 C 
BRANCH  24  25
HETATM   25  N4    D T2000      -2.961   2.352  12.394  1.00 81.36     0.139 N 
BRANCH  25  26
HETATM   26  C39   D T2000      -1.823   1.383  12.071  1.00 83.55     0.250 C 
HETATM   27  C42   D T2000      -0.378   1.464  12.713  1.00 84.17     0.037 C 
ENDBRANCH  25  26
BRANCH  25  28
HETATM   28  C40   D T2000      -4.196   1.720  13.117  1.00 83.04     0.250 C 
HETATM   29  C41   D T2000      -4.187   0.268  13.687  1.00 82.57     0.037 C 
ENDBRANCH  25  28
ENDBRANCH  24  25
ENDBRANCH  23  24
ENDBRANCH  21  23
ENDBRANCH   6  20
TORSDOF 7
ENDMDL
MODEL 7
REMARK VINA RESULT:    -6.844      2.787      4.050
REMARK INTER + INTRA:         -10.419
REMARK INTER:                 -10.053
REMARK INTRA:                  -0.366
REMARK UNBOUND:                -0.775
REMARK  7 active torsions:
REMARK  status: ('A' for Active; 'I' for Inactive)
REMARK    1  A    between atoms: C22_10  and  C19_16 
REMARK       I    between atoms: C22_10  and  N25_19 
REMARK    2  A    between atoms: C12_12  and  C18_15 
REMARK    3  A    between atoms: N25_19  and  C37_23 
REMARK    4  A    between atoms: C37_23  and  C38_24 
REMARK    5  A    between atoms: C38_24  and  N4_25 
REMARK    6  A    between atoms: N4_25  and  C39_26 
REMARK    7  A    between atoms: N4_25  and  C40_27 
ROOT
HETATM    1  C4    D T2000       5.547   3.196  10.281  1.00 48.44     0.052 C 
HETATM    2  C13   D T2000       3.352   6.218   9.499  1.00 48.75     0.002 A 
HETATM    3  C3    D T2000       2.798   7.647   9.139  1.00 43.40     0.033 C 
HETATM    4  C14   D T2000       4.553   4.329   9.984  1.00 49.83     0.064 A 
HETATM    5  C18   D T2000       2.505   5.122   9.762  1.00 45.93     0.077 A 
HETATM    6  C19   D T2000       4.728   5.695   9.644  1.00 51.55     0.069 A 
HETATM    7  N23   D T2000       3.257   4.052  10.039  1.00 47.90    -0.250 NA
ENDROOT
BRANCH   5   8
HETATM    8  C12   D T2000       1.028   5.160   9.722  1.00 43.39     0.024 C 
HETATM    9  C20   D T2000       0.050   4.274  10.252  1.00 43.86     0.061 A 
HETATM   10  C17   D T2000      -1.465   4.347  10.140  1.00 43.90     0.025 A 
HETATM   11  C21   D T2000       0.193   3.034  11.054  1.00 40.96     0.279 A 
HETATM   12  C7    D T2000      -2.336   5.305   9.488  1.00 45.29     0.031 A 
HETATM   13  C16   D T2000      -1.992   3.242  10.819  1.00 41.24     0.085 A 
HETATM   14  C15   D T2000      -3.718   5.103   9.554  1.00 46.91     0.140 A 
HETATM   15  C5    D T2000      -4.221   3.964  10.252  1.00 46.93     0.031 A 
HETATM   16  F29   D T2000      -4.593   5.939   8.988  1.00 48.65    -0.204 F 
HETATM   17  C6    D T2000      -3.370   3.023  10.891  1.00 43.16     0.021 A 
HETATM   18  N24   D T2000      -1.009   2.484  11.352  1.00 38.68    -0.208 NA
HETATM   19  O27   D T2000       1.241   2.564  11.407  1.00 39.38    -0.265 OA
ENDBRANCH   5   8
BRANCH   6  20
HETATM   20  C22   D T2000       6.083   6.376   9.486  1.00 57.19     0.276 C 
HETATM   21  N25   D T2000       6.601   6.607   8.259  1.00 64.68    -0.232 NA
HETATM   22  O28   D T2000       6.790   6.763  10.422  1.00 55.46    -0.266 OA
BRANCH  21  23
HETATM   23  C37   D T2000       7.900   7.271   8.076  1.00 72.35     0.164 C 
BRANCH  23  24
HETATM   24  C38   D T2000       8.004   8.676   7.412  1.00 75.73     0.276 C 
BRANCH  24  25
HETATM   25  N4    D T2000       8.468   8.472   5.988  1.00 81.36     0.139 N 
BRANCH  25  26
HETATM   26  C39   D T2000       9.495   9.558   5.667  1.00 83.55     0.250 C 
HETATM   27  C42   D T2000      10.680   9.382   4.631  1.00 84.17     0.037 C 
ENDBRANCH  25  26
BRANCH  25  28
HETATM   28  C40   D T2000       7.260   8.376   4.999  1.00 83.04     0.250 C 
HETATM   29  C41   D T2000       5.870   9.016   5.303  1.00 82.57     0.037 C 
ENDBRANCH  25  28
ENDBRANCH  24  25
ENDBRANCH  23  24
ENDBRANCH  21  23
ENDBRANCH   6  20
TORSDOF 7
ENDMDL
MODEL 8
REMARK VINA RESULT:    -6.773      2.991      4.468
REMARK INTER + INTRA:         -10.320
REMARK INTER:                  -9.154
REMARK INTRA:                  -1.166
REMARK UNBOUND:                -0.775
REMARK  7 active torsions:
REMARK  status: ('A' for Active; 'I' for Inactive)
REMARK    1  A    between atoms: C22_10  and  C19_16 
REMARK       I    between atoms: C22_10  and  N25_19 
REMARK    2  A    between atoms: C12_12  and  C18_15 
REMARK    3  A    between atoms: N25_19  and  C37_23 
REMARK    4  A    between atoms: C37_23  and  C38_24 
REMARK    5  A    between atoms: C38_24  and  N4_25 
REMARK    6  A    between atoms: N4_25  and  C39_26 
REMARK    7  A    between atoms: N4_25  and  C40_27 
ROOT
HETATM    1  C4    D T2000       6.927   5.951  11.565  1.00 48.44     0.052 C 
HETATM    2  C13   D T2000       4.325   6.915   8.944  1.00 48.75     0.002 A 
HETATM    3  C3    D T2000       3.572   7.444   7.667  1.00 43.40     0.033 C 
HETATM    4  C14   D T2000       5.783   6.287  10.596  1.00 49.83     0.064 A 
HETATM    5  C18   D T2000       3.648   6.325  10.032  1.00 45.93     0.077 A 
HETATM    6  C19   D T2000       5.757   6.891   9.312  1.00 51.55     0.069 A 
HETATM    7  N23   D T2000       4.545   5.981  10.962  1.00 47.90    -0.250 NA
ENDROOT
BRANCH   5   8
HETATM    8  C12   D T2000       2.188   6.116  10.113  1.00 43.39     0.024 C 
HETATM    9  C20   D T2000       1.415   4.934  10.276  1.00 43.86     0.061 A 
HETATM   10  C17   D T2000      -0.098   4.779  10.311  1.00 43.90     0.025 A 
HETATM   11  C21   D T2000       1.826   3.519  10.457  1.00 40.96     0.279 A 
HETATM   12  C7    D T2000      -1.166   5.752  10.195  1.00 45.29     0.031 A 
HETATM   13  C16   D T2000      -0.379   3.419  10.484  1.00 41.24     0.085 A 
HETATM   14  C15   D T2000      -2.489   5.301  10.261  1.00 46.91     0.140 A 
HETATM   15  C5    D T2000      -2.740   3.907  10.436  1.00 46.93     0.031 A 
HETATM   16  F29   D T2000      -3.533   6.129  10.171  1.00 48.65    -0.204 F 
HETATM   17  C6    D T2000      -1.694   2.952  10.548  1.00 43.16     0.021 A 
HETATM   18  N24   D T2000       0.757   2.694  10.571  1.00 38.68    -0.208 NA
HETATM   19  O27   D T2000       2.964   3.138  10.501  1.00 39.38    -0.265 OA
ENDBRANCH   5   8
BRANCH   6  20
HETATM   20  C22   D T2000       6.995   7.375   8.564  1.00 57.19     0.276 C 
HETATM   21  N25   D T2000       7.253   8.695   8.437  1.00 64.68    -0.232 NA
HETATM   22  O28   D T2000       7.833   6.634   8.039  1.00 55.46    -0.266 OA
BRANCH  21  23
HETATM   23  C37   D T2000       8.444   9.189   7.731  1.00 72.35     0.164 C 
BRANCH  23  24
HETATM   24  C38   D T2000       8.325   9.954   6.379  1.00 75.73     0.276 C 
BRANCH  24  25
HETATM   25  N4    D T2000       8.693   8.989   5.277  1.00 81.36     0.139 N 
BRANCH  25  26
HETATM   26  C39   D T2000       7.423   8.248   4.857  1.00 83.55     0.250 C 
HETATM   27  C42   D T2000       5.961   8.844   4.988  1.00 84.17     0.037 C 
ENDBRANCH  25  26
BRANCH  25  28
HETATM   28  C40   D T2000       9.896   8.078   5.690  1.00 83.04     0.250 C 
HETATM   29  C41   D T2000      11.382   8.529   5.546  1.00 82.57     0.037 C 
ENDBRANCH  25  28
ENDBRANCH  24  25
ENDBRANCH  23  24
ENDBRANCH  21  23
ENDBRANCH   6  20
TORSDOF 7
ENDMDL
MODEL 9
REMARK VINA RESULT:    -6.687      4.341     11.171
REMARK INTER + INTRA:         -10.198
REMARK INTER:                  -9.287
REMARK INTRA:                  -0.911
REMARK UNBOUND:                -0.775
REMARK  7 active torsions:
REMARK  status: ('A' for Active; 'I' for Inactive)
REMARK    1  A    between atoms: C22_10  and  C19_16 
REMARK       I    between atoms: C22_10  and  N25_19 
REMARK    2  A    between atoms: C12_12  and  C18_15 
REMARK    3  A    between atoms: N25_19  and  C37_23 
REMARK    4  A    between atoms: C37_23  and  C38_24 
REMARK    5  A    between atoms: C38_24  and  N4_25 
REMARK    6  A    between atoms: N4_25  and  C39_26 
REMARK    7  A    between atoms: N4_25  and  C40_27 
ROOT
HETATM    1  C4    D T2000       4.565   3.356  10.199  1.00 48.44     0.052 C 
HETATM    2  C13   D T2000       4.245   6.317   7.813  1.00 48.75     0.002 A 
HETATM    3  C3    D T2000       3.726   7.493   6.905  1.00 43.40     0.033 C 
HETATM    4  C14   D T2000       4.575   4.546   9.226  1.00 49.83     0.064 A 
HETATM    5  C18   D T2000       5.614   5.996   7.925  1.00 45.93     0.077 A 
HETATM    6  C19   D T2000       3.542   5.352   8.684  1.00 51.55     0.069 A 
HETATM    7  N23   D T2000       5.746   4.958   8.758  1.00 47.90    -0.250 NA
ENDROOT
BRANCH   5   8
HETATM    8  C12   D T2000       6.713   6.705   7.239  1.00 43.39     0.024 C 
HETATM    9  C20   D T2000       7.431   7.883   7.582  1.00 43.86     0.061 A 
HETATM   10  C17   D T2000       8.533   8.591   6.808  1.00 43.90     0.025 A 
HETATM   11  C21   D T2000       7.333   8.772   8.768  1.00 40.96     0.279 A 
HETATM   12  C7    D T2000       9.161   8.288   5.538  1.00 45.29     0.031 A 
HETATM   13  C16   D T2000       8.917   9.714   7.551  1.00 41.24     0.085 A 
HETATM   14  C15   D T2000      10.164   9.142   5.069  1.00 46.91     0.140 A 
HETATM   15  C5    D T2000      10.530  10.279   5.850  1.00 46.93     0.031 A 
HETATM   16  F29   D T2000      10.800   8.935   3.913  1.00 48.65    -0.204 F 
HETATM   17  C6    D T2000       9.914  10.579   7.095  1.00 43.16     0.021 A 
HETATM   18  N24   D T2000       8.208   9.805   8.697  1.00 38.68    -0.208 NA
HETATM   19  O27   D T2000       6.577   8.607   9.686  1.00 39.38    -0.265 OA
ENDBRANCH   5   8
BRANCH   6  20
HETATM   20  C22   D T2000       2.059   5.176   8.997  1.00 57.19     0.276 C 
HETATM   21  N25   D T2000       1.491   5.831  10.034  1.00 64.68    -0.232 NA
HETATM   22  O28   D T2000       1.285   4.458   8.357  1.00 55.46    -0.266 OA
BRANCH  21  23
HETATM   23  C37   D T2000       0.062   5.690  10.352  1.00 72.35     0.164 C 
BRANCH  23  24
HETATM   24  C38   D T2000      -0.463   4.497  11.205  1.00 75.73     0.276 C 
BRANCH  24  25
HETATM   25  N4    D T2000      -1.640   3.899  10.471  1.00 81.36     0.139 N 
BRANCH  25  26
HETATM   26  C39   D T2000      -2.210   4.971   9.541  1.00 83.55     0.250 C 
HETATM   27  C42   D T2000      -3.734   5.398   9.505  1.00 84.17     0.037 C 
ENDBRANCH  25  26
BRANCH  25  28
HETATM   28  C40   D T2000      -2.667   3.256  11.462  1.00 83.04     0.250 C 
HETATM   29  C41   D T2000      -2.255   2.197  12.530  1.00 82.57     0.037 C 
ENDBRANCH  25  28
ENDBRANCH  24  25
ENDBRANCH  23  24
ENDBRANCH  21  23
ENDBRANCH   6  20
TORSDOF 7
ENDMDL
