MODEL 1
REMARK VINA RESULT:    -7.954      0.000      0.000
REMARK INTER + INTRA:         -12.210
REMARK INTER:                 -11.210
REMARK INTRA:                  -1.000
REMARK UNBOUND:                -1.000
REMARK  7 active torsions:
REMARK  status: ('A' for Active; 'I' for Inactive)
REMARK    1  A    between atoms: C22_10  and  C19_16 
REMARK       I    between atoms: C22_10  and  N25_19 
REMARK    2  A    between atoms: C12_12  and  C18_15 
REMARK    3  A    between atoms: N25_19  and  C37_23 
REMARK    4  A    between atoms: C37_23  and  C38_24 
REMARK    5  A    between atoms: C38_24  and  N4_25 
REMARK    6  A    between atoms: N4_25  and  C39_26 
REMARK    7  A    between atoms: N4_25  and  C40_27 
ROOT
HETATM    1  C4    D T2000       9.009  -2.723   0.015  1.00 48.44     0.052 C 
HETATM    2  C13   D T2000       9.232  -3.522  -3.710  1.00 48.75     0.002 A 
HETATM    3  C3    D T2000       9.467  -4.198  -5.112  1.00 43.40     0.033 C 
HETATM    4  C14   D T2000       9.046  -2.918  -1.508  1.00 49.83     0.064 A 
HETATM    5  C18   D T2000       8.715  -2.217  -3.576  1.00 45.93     0.077 A 
HETATM    6  C19   D T2000       9.454  -4.002  -2.328  1.00 51.55     0.069 A 
HETATM    7  N23   D T2000       8.631  -1.918  -2.275  1.00 47.90    -0.250 NA
ENDROOT
BRANCH   5   8
HETATM    8  C12   D T2000       8.324  -1.338  -4.698  1.00 43.39     0.024 C 
HETATM    9  C20   D T2000       8.882  -0.120  -5.176  1.00 43.86     0.061 A 
HETATM   10  C17   D T2000       8.405   0.765  -6.317  1.00 43.90     0.025 A 
HETATM   11  C21   D T2000      10.068   0.650  -4.726  1.00 40.96     0.279 A 
HETATM   12  C7    D T2000       7.285   0.639  -7.227  1.00 45.29     0.031 A 
HETATM   13  C16   D T2000       9.278   1.857  -6.397  1.00 41.24     0.085 A 
HETATM   14  C15   D T2000       7.093   1.634  -8.191  1.00 46.91     0.140 A 
HETATM   15  C5    D T2000       7.999   2.734  -8.243  1.00 46.93     0.031 A 
HETATM   16  F29   D T2000       6.090   1.593  -9.074  1.00 48.65    -0.204 F 
HETATM   17  C6    D T2000       9.098   2.861  -7.351  1.00 43.16     0.021 A 
HETATM   18  N24   D T2000      10.248   1.775  -5.461  1.00 38.68    -0.208 NA
HETATM   19  O27   D T2000      10.792   0.327  -3.822  1.00 39.38    -0.265 OA
ENDBRANCH   5   8
BRANCH   6  20
HETATM   20  C22   D T2000       9.989  -5.327  -1.799  1.00 57.19     0.276 C 
HETATM   21  N25   D T2000       9.562  -6.500  -2.317  1.00 64.68    -0.232 NA
HETATM   22  O28   D T2000      10.825  -5.440  -0.896  1.00 55.46    -0.266 OA
BRANCH  21  23
HETATM   23  C37   D T2000      10.068  -7.793  -1.833  1.00 72.35     0.164 C 
BRANCH  23  24
HETATM   24  C38   D T2000       9.114  -8.850  -1.202  1.00 75.73     0.276 C 
BRANCH  24  25
HETATM   25  N4    D T2000       8.193  -8.119  -0.252  1.00 81.36     0.139 N 
BRANCH  25  26
HETATM   26  C39   D T2000       8.746  -8.287   1.164  1.00 83.55     0.250 C 
HETATM   27  C42   D T2000       9.410  -7.119   2.003  1.00 84.17     0.037 C 
ENDBRANCH  25  26
BRANCH  25  28
HETATM   28  C40   D T2000       6.703  -8.556  -0.447  1.00 83.04     0.250 C 
HETATM   29  C41   D T2000       6.093  -8.867  -1.848  1.00 82.57     0.037 C 
ENDBRANCH  25  28
ENDBRANCH  24  25
ENDBRANCH  23  24
ENDBRANCH  21  23
ENDBRANCH   6  20
TORSDOF 7
ENDMDL
MODEL 2
REMARK VINA RESULT:    -7.932      2.490      3.551
REMARK INTER + INTRA:         -12.178
REMARK INTER:                 -10.898
REMARK INTRA:                  -1.281
REMARK UNBOUND:                -1.000
REMARK  7 active torsions:
REMARK  status: ('A' for Active; 'I' for Inactive)
REMARK    1  A    between atoms: C22_10  and  C19_16 
REMARK       I    between atoms: C22_10  and  N25_19 
REMARK    2  A    between atoms: C12_12  and  C18_15 
REMARK    3  A    between atoms: N25_19  and  C37_23 
REMARK    4  A    between atoms: C37_23  and  C38_24 
REMARK    5  A    between atoms: C38_24  and  N4_25 
REMARK    6  A    between atoms: N4_25  and  C39_26 
REMARK    7  A    between atoms: N4_25  and  C40_27 
ROOT
HETATM    1  C4    D T2000       9.558  -5.629  -4.912  1.00 48.44     0.052 C 
HETATM    2  C13   D T2000       8.313  -2.215  -3.746  1.00 48.75     0.002 A 
HETATM    3  C3    D T2000       7.879  -0.956  -2.906  1.00 43.40     0.033 C 
HETATM    4  C14   D T2000       9.037  -4.223  -4.576  1.00 49.83     0.064 A 
HETATM    5  C18   D T2000       8.239  -2.247  -5.153  1.00 45.93     0.077 A 
HETATM    6  C19   D T2000       8.851  -3.535  -3.350  1.00 51.55     0.069 A 
HETATM    7  N23   D T2000       8.670  -3.439  -5.582  1.00 47.90    -0.250 NA
ENDROOT
BRANCH   5   8
HETATM    8  C12   D T2000       7.769  -1.135  -6.006  1.00 43.39     0.024 C 
HETATM    9  C20   D T2000       8.341   0.134  -6.296  1.00 43.86     0.061 A 
HETATM   10  C17   D T2000       7.785   1.259  -7.155  1.00 43.90     0.025 A 
HETATM   11  C21   D T2000       9.624   0.745  -5.866  1.00 40.96     0.279 A 
HETATM   12  C7    D T2000       6.552   1.372  -7.909  1.00 45.29     0.031 A 
HETATM   13  C16   D T2000       8.711   2.308  -7.129  1.00 41.24     0.085 A 
HETATM   14  C15   D T2000       6.307   2.555  -8.613  1.00 46.91     0.140 A 
HETATM   15  C5    D T2000       7.271   3.606  -8.562  1.00 46.93     0.031 A 
HETATM   16  F29   D T2000       5.201   2.742  -9.339  1.00 48.65    -0.204 F 
HETATM   17  C6    D T2000       8.480   3.498  -7.823  1.00 43.16     0.021 A 
HETATM   18  N24   D T2000       9.783   1.993  -6.372  1.00 38.68    -0.208 NA
HETATM   19  O27   D T2000      10.432   0.210  -5.155  1.00 39.38    -0.265 OA
ENDBRANCH   5   8
BRANCH   6  20
HETATM   20  C22   D T2000       9.169  -4.119  -1.978  1.00 57.19     0.276 C 
HETATM   21  N25   D T2000      10.442  -4.408  -1.629  1.00 64.68    -0.232 NA
HETATM   22  O28   D T2000       8.330  -4.363  -1.104  1.00 55.46    -0.266 OA
BRANCH  21  23
HETATM   23  C37   D T2000      10.778  -4.963  -0.309  1.00 72.35     0.164 C 
BRANCH  23  24
HETATM   24  C38   D T2000      11.948  -4.379   0.538  1.00 75.73     0.276 C 
BRANCH  24  25
HETATM   25  N4    D T2000      11.343  -3.456   1.571  1.00 81.36     0.139 N 
BRANCH  25  26
HETATM   26  C39   D T2000       9.969  -4.009   1.952  1.00 83.55     0.250 C 
HETATM   27  C42   D T2000       9.653  -4.732   3.326  1.00 84.17     0.037 C 
ENDBRANCH  25  26
BRANCH  25  28
HETATM   28  C40   D T2000      11.357  -1.968   1.088  1.00 83.04     0.250 C 
HETATM   29  C41   D T2000      10.216  -1.353   0.220  1.00 82.57     0.037 C 
ENDBRANCH  25  28
ENDBRANCH  24  25
ENDBRANCH  23  24
ENDBRANCH  21  23
ENDBRANCH   6  20
TORSDOF 7
ENDMDL
MODEL 3
REMARK VINA RESULT:    -7.782      1.139      1.883
REMARK INTER + INTRA:         -11.967
REMARK INTER:                 -10.956
REMARK INTRA:                  -1.011
REMARK UNBOUND:                -1.000
REMARK  7 active torsions:
REMARK  status: ('A' for Active; 'I' for Inactive)
REMARK    1  A    between atoms: C22_10  and  C19_16 
REMARK       I    between atoms: C22_10  and  N25_19 
REMARK    2  A    between atoms: C12_12  and  C18_15 
REMARK    3  A    between atoms: N25_19  and  C37_23 
REMARK    4  A    between atoms: C37_23  and  C38_24 
REMARK    5  A    between atoms: C38_24  and  N4_25 
REMARK    6  A    between atoms: N4_25  and  C39_26 
REMARK    7  A    between atoms: N4_25  and  C40_27 
ROOT
HETATM    1  C4    D T2000      10.019  -1.464  -0.277  1.00 48.44     0.052 C 
HETATM    2  C13   D T2000       8.935  -2.857  -3.661  1.00 48.75     0.002 A 
HETATM    3  C3    D T2000       8.591  -3.778  -4.891  1.00 43.40     0.033 C 
HETATM    4  C14   D T2000       9.552  -1.894  -1.677  1.00 49.83     0.064 A 
HETATM    5  C18   D T2000       8.755  -1.459  -3.690  1.00 45.93     0.077 A 
HETATM    6  C19   D T2000       9.465  -3.159  -2.313  1.00 51.55     0.069 A 
HETATM    7  N23   D T2000       9.132  -0.951  -2.511  1.00 47.90    -0.250 NA
ENDROOT
BRANCH   5   8
HETATM    8  C12   D T2000       8.227  -0.692  -4.837  1.00 43.39     0.024 C 
HETATM    9  C20   D T2000       8.724   0.460  -5.507  1.00 43.86     0.061 A 
HETATM   10  C17   D T2000       8.108   1.232  -6.663  1.00 43.90     0.025 A 
HETATM   11  C21   D T2000       9.962   1.250  -5.296  1.00 40.96     0.279 A 
HETATM   12  C7    D T2000       6.879   1.034  -7.404  1.00 45.29     0.031 A 
HETATM   13  C16   D T2000       8.969   2.294  -6.968  1.00 41.24     0.085 A 
HETATM   14  C15   D T2000       6.568   1.928  -8.434  1.00 46.91     0.140 A 
HETATM   15  C5    D T2000       7.466   3.001  -8.716  1.00 46.93     0.031 A 
HETATM   16  F29   D T2000       5.460   1.815  -9.172  1.00 48.65    -0.204 F 
HETATM   17  C6    D T2000       8.672   3.198  -7.990  1.00 43.16     0.021 A 
HETATM   18  N24   D T2000      10.051   2.291  -6.160  1.00 38.68    -0.208 NA
HETATM   19  O27   D T2000      10.795   1.009  -4.463  1.00 39.38    -0.265 OA
ENDBRANCH   5   8
BRANCH   6  20
HETATM   20  C22   D T2000       9.858  -4.480  -1.662  1.00 57.19     0.276 C 
HETATM   21  N25   D T2000       9.000  -5.129  -0.845  1.00 64.68    -0.232 NA
HETATM   22  O28   D T2000      10.944  -5.049  -1.820  1.00 55.46    -0.266 OA
BRANCH  21  23
HETATM   23  C37   D T2000       9.348  -6.409  -0.211  1.00 72.35     0.164 C 
BRANCH  23  24
HETATM   24  C38   D T2000       8.298  -7.550  -0.062  1.00 75.73     0.276 C 
BRANCH  24  25
HETATM   25  N4    D T2000       7.652  -7.751  -1.414  1.00 81.36     0.139 N 
BRANCH  25  26
HETATM   26  C39   D T2000       6.338  -8.503  -1.202  1.00 83.55     0.250 C 
HETATM   27  C42   D T2000       5.325  -8.867  -2.365  1.00 84.17     0.037 C 
ENDBRANCH  25  26
BRANCH  25  28
HETATM   28  C40   D T2000       8.644  -8.405  -2.432  1.00 83.04     0.250 C 
HETATM   29  C41   D T2000       8.958  -7.777  -3.825  1.00 82.57     0.037 C 
ENDBRANCH  25  28
ENDBRANCH  24  25
ENDBRANCH  23  24
ENDBRANCH  21  23
ENDBRANCH   6  20
TORSDOF 7
ENDMDL
MODEL 4
REMARK VINA RESULT:    -7.609      2.152      3.113
REMARK INTER + INTRA:         -11.723
REMARK INTER:                 -10.826
REMARK INTRA:                  -0.897
REMARK UNBOUND:                -1.000
REMARK  7 active torsions:
REMARK  status: ('A' for Active; 'I' for Inactive)
REMARK    1  A    between atoms: C22_10  and  C19_16 
REMARK       I    between atoms: C22_10  and  N25_19 
REMARK    2  A    between atoms: C12_12  and  C18_15 
REMARK    3  A    between atoms: N25_19  and  C37_23 
REMARK    4  A    between atoms: C37_23  and  C38_24 
REMARK    5  A    between atoms: C38_24  and  N4_25 
REMARK    6  A    between atoms: N4_25  and  C39_26 
REMARK    7  A    between atoms: N4_25  and  C40_27 
ROOT
HETATM    1  C4    D T2000       8.970  -3.279   0.023  1.00 48.44     0.052 C 
HETATM    2  C13   D T2000       9.253  -3.785  -3.749  1.00 48.75     0.002 A 
HETATM    3  C3    D T2000       9.489  -4.357  -5.197  1.00 43.40     0.033 C 
HETATM    4  C14   D T2000       9.039  -3.352  -1.510  1.00 49.83     0.064 A 
HETATM    5  C18   D T2000       8.803  -2.469  -3.521  1.00 45.93     0.077 A 
HETATM    6  C19   D T2000       9.411  -4.386  -2.407  1.00 51.55     0.069 A 
HETATM    7  N23   D T2000       8.698  -2.271  -2.201  1.00 47.90    -0.250 NA
ENDROOT
BRANCH   5   8
HETATM    8  C12   D T2000       8.490  -1.481  -4.574  1.00 43.39     0.024 C 
HETATM    9  C20   D T2000       9.179  -0.313  -5.003  1.00 43.86     0.061 A 
HETATM   10  C17   D T2000       8.781   0.691  -6.073  1.00 43.90     0.025 A 
HETATM   11  C21   D T2000      10.464   0.279  -4.554  1.00 40.96     0.279 A 
HETATM   12  C7    D T2000       7.627   0.759  -6.946  1.00 45.29     0.031 A 
HETATM   13  C16   D T2000       9.779   1.673  -6.122  1.00 41.24     0.085 A 
HETATM   14  C15   D T2000       7.530   1.827  -7.844  1.00 46.91     0.140 A 
HETATM   15  C5    D T2000       8.564   2.810  -7.866  1.00 46.93     0.031 A 
HETATM   16  F29   D T2000       6.505   1.962  -8.690  1.00 48.65    -0.204 F 
HETATM   17  C6    D T2000       9.696   2.748  -7.010  1.00 43.16     0.021 A 
HETATM   18  N24   D T2000      10.759   1.417  -5.229  1.00 38.68    -0.208 NA
HETATM   19  O27   D T2000      11.169  -0.184  -3.697  1.00 39.38    -0.265 OA
ENDBRANCH   5   8
BRANCH   6  20
HETATM   20  C22   D T2000       9.860  -5.778  -1.976  1.00 57.19     0.276 C 
HETATM   21  N25   D T2000      10.877  -5.935  -1.101  1.00 64.68    -0.232 NA
HETATM   22  O28   D T2000       9.354  -6.835  -2.368  1.00 55.46    -0.266 OA
BRANCH  21  23
HETATM   23  C37   D T2000      11.325  -7.265  -0.660  1.00 72.35     0.164 C 
BRANCH  23  24
HETATM   24  C38   D T2000      12.834  -7.574  -0.431  1.00 75.73     0.276 C 
BRANCH  24  25
HETATM   25  N4    D T2000      13.486  -6.308   0.076  1.00 81.36     0.139 N 
BRANCH  25  26
HETATM   26  C39   D T2000      14.938  -6.300  -0.403  1.00 83.55     0.250 C 
HETATM   27  C42   D T2000      15.520  -7.294  -1.490  1.00 84.17     0.037 C 
ENDBRANCH  25  26
BRANCH  25  28
HETATM   28  C40   D T2000      13.286  -6.138   1.618  1.00 83.04     0.250 C 
HETATM   29  C41   D T2000      12.209  -5.190   2.229  1.00 82.57     0.037 C 
ENDBRANCH  25  28
ENDBRANCH  24  25
ENDBRANCH  23  24
ENDBRANCH  21  23
ENDBRANCH   6  20
TORSDOF 7
ENDMDL
MODEL 5
REMARK VINA RESULT:    -7.608      1.616      2.157
REMARK INTER + INTRA:         -11.721
REMARK INTER:                 -10.887
REMARK INTRA:                  -0.835
REMARK UNBOUND:                -1.000
REMARK  7 active torsions:
REMARK  status: ('A' for Active; 'I' for Inactive)
REMARK    1  A    between atoms: C22_10  and  C19_16 
REMARK       I    between atoms: C22_10  and  N25_19 
REMARK    2  A    between atoms: C12_12  and  C18_15 
REMARK    3  A    between atoms: N25_19  and  C37_23 
REMARK    4  A    between atoms: C37_23  and  C38_24 
REMARK    5  A    between atoms: C38_24  and  N4_25 
REMARK    6  A    between atoms: N4_25  and  C39_26 
REMARK    7  A    between atoms: N4_25  and  C40_27 
ROOT
HETATM    1  C4    D T2000       8.950  -2.932  -0.083  1.00 48.44     0.052 C 
HETATM    2  C13   D T2000       9.143  -3.627  -3.830  1.00 48.75     0.002 A 
HETATM    3  C3    D T2000       9.350  -4.268  -5.253  1.00 43.40     0.033 C 
HETATM    4  C14   D T2000       8.981  -3.082  -1.611  1.00 49.83     0.064 A 
HETATM    5  C18   D T2000       8.677  -2.307  -3.657  1.00 45.93     0.077 A 
HETATM    6  C19   D T2000       9.346  -4.156  -2.464  1.00 51.55     0.069 A 
HETATM    7  N23   D T2000       8.604  -2.044  -2.347  1.00 47.90    -0.250 NA
ENDROOT
BRANCH   5   8
HETATM    8  C12   D T2000       8.320  -1.380  -4.751  1.00 43.39     0.024 C 
HETATM    9  C20   D T2000       8.922  -0.169  -5.190  1.00 43.86     0.061 A 
HETATM   10  C17   D T2000       8.481   0.768  -6.303  1.00 43.90     0.025 A 
HETATM   11  C21   D T2000      10.134   0.544  -4.714  1.00 40.96     0.279 A 
HETATM   12  C7    D T2000       7.359   0.711  -7.218  1.00 45.29     0.031 A 
HETATM   13  C16   D T2000       9.392   1.830  -6.348  1.00 41.24     0.085 A 
HETATM   14  C15   D T2000       7.205   1.742  -8.151  1.00 46.91     0.140 A 
HETATM   15  C5    D T2000       8.150   2.810  -8.167  1.00 46.93     0.031 A 
HETATM   16  F29   D T2000       6.204   1.765  -9.036  1.00 48.65    -0.204 F 
HETATM   17  C6    D T2000       9.251   2.870  -7.270  1.00 43.16     0.021 A 
HETATM   18  N24   D T2000      10.356   1.685  -5.413  1.00 38.68    -0.208 NA
HETATM   19  O27   D T2000      10.844   0.168  -3.820  1.00 39.38    -0.265 OA
ENDBRANCH   5   8
BRANCH   6  20
HETATM   20  C22   D T2000       9.829  -5.517  -1.976  1.00 57.19     0.276 C 
HETATM   21  N25   D T2000      10.851  -5.612  -1.097  1.00 64.68    -0.232 NA
HETATM   22  O28   D T2000       9.346  -6.602  -2.320  1.00 55.46    -0.266 OA
BRANCH  21  23
HETATM   23  C37   D T2000      11.331  -6.911  -0.601  1.00 72.35     0.164 C 
BRANCH  23  24
HETATM   24  C38   D T2000      12.074  -7.030   0.763  1.00 75.73     0.276 C 
BRANCH  24  25
HETATM   25  N4    D T2000      11.036  -6.917   1.856  1.00 81.36     0.139 N 
BRANCH  25  26
HETATM   26  C39   D T2000       9.764  -7.616   1.374  1.00 83.55     0.250 C 
HETATM   27  C42   D T2000       8.953  -8.674   2.229  1.00 84.17     0.037 C 
ENDBRANCH  25  26
BRANCH  25  28
HETATM   28  C40   D T2000      10.853  -5.435   2.322  1.00 83.04     0.250 C 
HETATM   29  C41   D T2000       9.598  -4.949   3.110  1.00 82.57     0.037 C 
ENDBRANCH  25  28
ENDBRANCH  24  25
ENDBRANCH  23  24
ENDBRANCH  21  23
ENDBRANCH   6  20
TORSDOF 7
ENDMDL
MODEL 6
REMARK VINA RESULT:    -7.199      2.712      4.836
REMARK INTER + INTRA:         -11.145
REMARK INTER:                 -10.244
REMARK INTRA:                  -0.901
REMARK UNBOUND:                -1.000
REMARK  7 active torsions:
REMARK  status: ('A' for Active; 'I' for Inactive)
REMARK    1  A    between atoms: C22_10  and  C19_16 
REMARK       I    between atoms: C22_10  and  N25_19 
REMARK    2  A    between atoms: C12_12  and  C18_15 
REMARK    3  A    between atoms: N25_19  and  C37_23 
REMARK    4  A    between atoms: C37_23  and  C38_24 
REMARK    5  A    between atoms: C38_24  and  N4_25 
REMARK    6  A    between atoms: N4_25  and  C39_26 
REMARK    7  A    between atoms: N4_25  and  C40_27 
ROOT
HETATM    1  C4    D T2000       9.736  -5.228  -3.179  1.00 48.44     0.052 C 
HETATM    2  C13   D T2000       8.768  -1.564  -2.727  1.00 48.75     0.002 A 
HETATM    3  C3    D T2000       8.461  -0.127  -2.161  1.00 43.40     0.033 C 
HETATM    4  C14   D T2000       9.320  -3.749  -3.134  1.00 49.83     0.064 A 
HETATM    5  C18   D T2000       8.603  -1.892  -4.088  1.00 45.93     0.077 A 
HETATM    6  C19   D T2000       9.252  -2.803  -2.079  1.00 51.55     0.069 A 
HETATM    7  N23   D T2000       8.937  -3.175  -4.267  1.00 47.90    -0.250 NA
ENDROOT
BRANCH   5   8
HETATM    8  C12   D T2000       8.146  -0.959  -5.139  1.00 43.39     0.024 C 
HETATM    9  C20   D T2000       8.732   0.227  -5.664  1.00 43.86     0.061 A 
HETATM   10  C17   D T2000       8.188   1.172  -6.723  1.00 43.90     0.025 A 
HETATM   11  C21   D T2000      10.019   0.897  -5.352  1.00 40.96     0.279 A 
HETATM   12  C7    D T2000       6.958   1.151  -7.490  1.00 45.29     0.031 A 
HETATM   13  C16   D T2000       9.125   2.199  -6.894  1.00 41.24     0.085 A 
HETATM   14  C15   D T2000       6.726   2.181  -8.407  1.00 46.91     0.140 A 
HETATM   15  C5    D T2000       7.700   3.213  -8.554  1.00 46.93     0.031 A 
HETATM   16  F29   D T2000       5.623   2.235  -9.160  1.00 48.65    -0.204 F 
HETATM   17  C6    D T2000       8.906   3.237  -7.802  1.00 43.16     0.021 A 
HETATM   18  N24   D T2000      10.192   2.023  -6.086  1.00 38.68    -0.208 NA
HETATM   19  O27   D T2000      10.821   0.500  -4.549  1.00 39.38    -0.265 OA
ENDBRANCH   5   8
BRANCH   6  20
HETATM   20  C22   D T2000       9.620  -3.100  -0.630  1.00 57.19     0.276 C 
HETATM   21  N25   D T2000      10.815  -2.716  -0.129  1.00 64.68    -0.232 NA
HETATM   22  O28   D T2000       8.891  -3.687   0.177  1.00 55.46    -0.266 OA
BRANCH  21  23
HETATM   23  C37   D T2000      11.193  -2.980   1.268  1.00 72.35     0.164 C 
BRANCH  23  24
HETATM   24  C38   D T2000      12.538  -2.458   1.853  1.00 75.73     0.276 C 
BRANCH  24  25
HETATM   25  N4    D T2000      12.530  -0.951   1.737  1.00 81.36     0.139 N 
BRANCH  25  26
HETATM   26  C39   D T2000      13.761  -0.533   0.933  1.00 83.55     0.250 C 
HETATM   27  C42   D T2000      13.893  -0.693  -0.638  1.00 84.17     0.037 C 
ENDBRANCH  25  26
BRANCH  25  28
HETATM   28  C40   D T2000      12.378  -0.268   3.136  1.00 83.04     0.250 C 
HETATM   29  C41   D T2000      12.437  -1.068   4.474  1.00 82.57     0.037 C 
ENDBRANCH  25  28
ENDBRANCH  24  25
ENDBRANCH  23  24
ENDBRANCH  21  23
ENDBRANCH   6  20
TORSDOF 7
ENDMDL
MODEL 7
REMARK VINA RESULT:    -6.933      1.995      2.800
REMARK INTER + INTRA:         -10.771
REMARK INTER:                 -10.216
REMARK INTRA:                  -0.555
REMARK UNBOUND:                -1.000
REMARK  7 active torsions:
REMARK  status: ('A' for Active; 'I' for Inactive)
REMARK    1  A    between atoms: C22_10  and  C19_16 
REMARK       I    between atoms: C22_10  and  N25_19 
REMARK    2  A    between atoms: C12_12  and  C18_15 
REMARK    3  A    between atoms: N25_19  and  C37_23 
REMARK    4  A    between atoms: C37_23  and  C38_24 
REMARK    5  A    between atoms: C38_24  and  N4_25 
REMARK    6  A    between atoms: N4_25  and  C39_26 
REMARK    7  A    between atoms: N4_25  and  C40_27 
ROOT
HETATM    1  C4    D T2000      13.133  -1.371  -1.762  1.00 48.44     0.052 C 
HETATM    2  C13   D T2000       9.545  -2.226  -2.742  1.00 48.75     0.002 A 
HETATM    3  C3    D T2000       8.096  -2.834  -2.843  1.00 43.40     0.033 C 
HETATM    4  C14   D T2000      11.700  -1.620  -2.257  1.00 49.83     0.064 A 
HETATM    5  C18   D T2000      10.008  -1.225  -3.620  1.00 45.93     0.077 A 
HETATM    6  C19   D T2000      10.672  -2.495  -1.822  1.00 51.55     0.069 A 
HETATM    7  N23   D T2000      11.267  -0.912  -3.293  1.00 47.90    -0.250 NA
ENDROOT
BRANCH   5   8
HETATM    8  C12   D T2000       9.218  -0.619  -4.712  1.00 43.39     0.024 C 
HETATM    9  C20   D T2000       9.400   0.584  -5.449  1.00 43.86     0.061 A 
HETATM   10  C17   D T2000       8.523   1.176  -6.541  1.00 43.90     0.025 A 
HETATM   11  C21   D T2000      10.469   1.611  -5.387  1.00 40.96     0.279 A 
HETATM   12  C7    D T2000       7.287   0.712  -7.139  1.00 45.29     0.031 A 
HETATM   13  C16   D T2000       9.115   2.376  -6.953  1.00 41.24     0.085 A 
HETATM   14  C15   D T2000       6.697   1.490  -8.140  1.00 46.91     0.140 A 
HETATM   15  C5    D T2000       7.326   2.708  -8.534  1.00 46.93     0.031 A 
HETATM   16  F29   D T2000       5.562   1.133  -8.750  1.00 48.65    -0.204 F 
HETATM   17  C6    D T2000       8.537   3.167  -7.949  1.00 43.16     0.021 A 
HETATM   18  N24   D T2000      10.255   2.617  -6.270  1.00 38.68    -0.208 NA
HETATM   19  O27   D T2000      11.416   1.570  -4.648  1.00 39.38    -0.265 OA
ENDBRANCH   5   8
BRANCH   6  20
HETATM   20  C22   D T2000      10.803  -3.462  -0.651  1.00 57.19     0.276 C 
HETATM   21  N25   D T2000      10.399  -3.105   0.588  1.00 64.68    -0.232 NA
HETATM   22  O28   D T2000      11.264  -4.606  -0.729  1.00 55.46    -0.266 OA
BRANCH  21  23
HETATM   23  C37   D T2000      10.504  -4.020   1.734  1.00 72.35     0.164 C 
BRANCH  23  24
HETATM   24  C38   D T2000       9.347  -4.998   2.095  1.00 75.73     0.276 C 
BRANCH  24  25
HETATM   25  N4    D T2000       9.818  -6.398   1.774  1.00 81.36     0.139 N 
BRANCH  25  26
HETATM   26  C39   D T2000       8.961  -6.934   0.627  1.00 83.55     0.250 C 
HETATM   27  C42   D T2000       8.143  -6.018  -0.374  1.00 84.17     0.037 C 
ENDBRANCH  25  26
BRANCH  25  28
HETATM   28  C40   D T2000       9.864  -7.296   3.054  1.00 83.04     0.250 C 
HETATM   29  C41   D T2000       8.917  -8.518   3.260  1.00 82.57     0.037 C 
ENDBRANCH  25  28
ENDBRANCH  24  25
ENDBRANCH  23  24
ENDBRANCH  21  23
ENDBRANCH   6  20
TORSDOF 7
ENDMDL
MODEL 8
REMARK VINA RESULT:    -6.917      3.446      4.660
REMARK INTER + INTRA:         -10.747
REMARK INTER:                  -9.758
REMARK INTRA:                  -0.990
REMARK UNBOUND:                -1.000
REMARK  7 active torsions:
REMARK  status: ('A' for Active; 'I' for Inactive)
REMARK    1  A    between atoms: C22_10  and  C19_16 
REMARK       I    between atoms: C22_10  and  N25_19 
REMARK    2  A    between atoms: C12_12  and  C18_15 
REMARK    3  A    between atoms: N25_19  and  C37_23 
REMARK    4  A    between atoms: C37_23  and  C38_24 
REMARK    5  A    between atoms: C38_24  and  N4_25 
REMARK    6  A    between atoms: N4_25  and  C39_26 
REMARK    7  A    between atoms: N4_25  and  C40_27 
ROOT
HETATM    1  C4    D T2000       8.742  -3.930   0.578  1.00 48.44     0.052 C 
HETATM    2  C13   D T2000      11.226  -1.936  -1.524  1.00 48.75     0.002 A 
HETATM    3  C3    D T2000      12.516  -1.296  -2.160  1.00 43.40     0.033 C 
HETATM    4  C14   D T2000       9.632  -3.076  -0.337  1.00 49.83     0.064 A 
HETATM    5  C18   D T2000       9.927  -1.625  -1.976  1.00 45.93     0.077 A 
HETATM    6  C19   D T2000      11.039  -2.911  -0.427  1.00 51.55     0.069 A 
HETATM    7  N23   D T2000       9.040  -2.315  -1.249  1.00 47.90    -0.250 NA
ENDROOT
BRANCH   5   8
HETATM    8  C12   D T2000       9.609  -0.696  -3.080  1.00 43.39     0.024 C 
HETATM    9  C20   D T2000       8.868  -0.879  -4.279  1.00 43.86     0.061 A 
HETATM   10  C17   D T2000       8.610   0.112  -5.403  1.00 43.90     0.025 A 
HETATM   11  C21   D T2000       8.134  -2.060  -4.799  1.00 40.96     0.279 A 
HETATM   12  C7    D T2000       9.024   1.489  -5.584  1.00 45.29     0.031 A 
HETATM   13  C16   D T2000       7.833  -0.539  -6.370  1.00 41.24     0.085 A 
HETATM   14  C15   D T2000       8.629   2.157  -6.748  1.00 46.91     0.140 A 
HETATM   15  C5    D T2000       7.841   1.463  -7.714  1.00 46.93     0.031 A 
HETATM   16  F29   D T2000       8.960   3.428  -6.992  1.00 48.65    -0.204 F 
HETATM   17  C6    D T2000       7.435   0.112  -7.540  1.00 43.16     0.021 A 
HETATM   18  N24   D T2000       7.561  -1.809  -6.002  1.00 38.68    -0.208 NA
HETATM   19  O27   D T2000       8.049  -3.117  -4.233  1.00 39.38    -0.265 OA
ENDBRANCH   5   8
BRANCH   6  20
HETATM   20  C22   D T2000      12.048  -3.630   0.460  1.00 57.19     0.276 C 
HETATM   21  N25   D T2000      12.832  -2.936   1.315  1.00 64.68    -0.232 NA
HETATM   22  O28   D T2000      12.226  -4.852   0.479  1.00 55.46    -0.266 OA
BRANCH  21  23
HETATM   23  C37   D T2000      13.807  -3.604   2.190  1.00 72.35     0.164 C 
BRANCH  23  24
HETATM   24  C38   D T2000      13.501  -3.857   3.696  1.00 75.73     0.276 C 
BRANCH  24  25
HETATM   25  N4    D T2000      12.083  -3.402   3.954  1.00 81.36     0.139 N 
BRANCH  25  26
HETATM   26  C39   D T2000      12.140  -2.158   4.841  1.00 83.55     0.250 C 
HETATM   27  C42   D T2000      12.522  -0.711   4.320  1.00 84.17     0.037 C 
ENDBRANCH  25  26
BRANCH  25  28
HETATM   28  C40   D T2000      11.194  -4.571   4.493  1.00 83.04     0.250 C 
HETATM   29  C41   D T2000       9.671  -4.685   4.180  1.00 82.57     0.037 C 
ENDBRANCH  25  28
ENDBRANCH  24  25
ENDBRANCH  23  24
ENDBRANCH  21  23
ENDBRANCH   6  20
TORSDOF 7
ENDMDL
MODEL 9
REMARK VINA RESULT:    -6.655      3.814      5.404
REMARK INTER + INTRA:         -10.379
REMARK INTER:                  -9.459
REMARK INTRA:                  -0.920
REMARK UNBOUND:                -1.000
REMARK  7 active torsions:
REMARK  status: ('A' for Active; 'I' for Inactive)
REMARK    1  A    between atoms: C22_10  and  C19_16 
REMARK       I    between atoms: C22_10  and  N25_19 
REMARK    2  A    between atoms: C12_12  and  C18_15 
REMARK    3  A    between atoms: N25_19  and  C37_23 
REMARK    4  A    between atoms: C37_23  and  C38_24 
REMARK    5  A    between atoms: C38_24  and  N4_25 
REMARK    6  A    between atoms: N4_25  and  C39_26 
REMARK    7  A    between atoms: N4_25  and  C40_27 
ROOT
HETATM    1  C4    D T2000       8.580  -3.882   0.360  1.00 48.44     0.052 C 
HETATM    2  C13   D T2000      11.139  -1.862  -1.625  1.00 48.75     0.002 A 
HETATM    3  C3    D T2000      12.451  -1.214  -2.204  1.00 43.40     0.033 C 
HETATM    4  C14   D T2000       9.503  -3.016  -0.512  1.00 49.83     0.064 A 
HETATM    5  C18   D T2000       9.857  -1.550  -2.125  1.00 45.93     0.077 A 
HETATM    6  C19   D T2000      10.911  -2.848  -0.545  1.00 51.55     0.069 A 
HETATM    7  N23   D T2000       8.945  -2.249  -1.439  1.00 47.90    -0.250 NA
ENDROOT
BRANCH   5   8
HETATM    8  C12   D T2000       9.581  -0.612  -3.232  1.00 43.39     0.024 C 
HETATM    9  C20   D T2000       8.807  -0.757  -4.416  1.00 43.86     0.061 A 
HETATM   10  C17   D T2000       8.593   0.239  -5.545  1.00 43.90     0.025 A 
HETATM   11  C21   D T2000       7.987  -1.891  -4.911  1.00 40.96     0.279 A 
HETATM   12  C7    D T2000       9.093   1.584  -5.747  1.00 45.29     0.031 A 
HETATM   13  C16   D T2000       7.758  -0.368  -6.491  1.00 41.24     0.085 A 
HETATM   14  C15   D T2000       8.722   2.267  -6.910  1.00 46.91     0.140 A 
HETATM   15  C5    D T2000       7.871   1.618  -7.854  1.00 46.93     0.031 A 
HETATM   16  F29   D T2000       9.131   3.511  -7.173  1.00 48.65    -0.204 F 
HETATM   17  C6    D T2000       7.381   0.298  -7.660  1.00 43.16     0.021 A 
HETATM   18  N24   D T2000       7.410  -1.614  -6.106  1.00 38.68    -0.208 NA
HETATM   19  O27   D T2000       7.844  -2.936  -4.333  1.00 39.38    -0.265 OA
ENDBRANCH   5   8
BRANCH   6  20
HETATM   20  C22   D T2000      11.887  -3.572   0.375  1.00 57.19     0.276 C 
HETATM   21  N25   D T2000      12.004  -3.218   1.673  1.00 64.68    -0.232 NA
HETATM   22  O28   D T2000      12.619  -4.506   0.031  1.00 55.46    -0.266 OA
BRANCH  21  23
HETATM   23  C37   D T2000      12.929  -3.906   2.586  1.00 72.35     0.164 C 
BRANCH  23  24
HETATM   24  C38   D T2000      14.316  -3.293   2.944  1.00 75.73     0.276 C 
BRANCH  24  25
HETATM   25  N4    D T2000      14.362  -1.901   2.357  1.00 81.36     0.139 N 
BRANCH  25  26
HETATM   26  C39   D T2000      15.672  -1.760   1.580  1.00 83.55     0.250 C 
HETATM   27  C42   D T2000      16.101  -2.705   0.383  1.00 84.17     0.037 C 
ENDBRANCH  25  26
BRANCH  25  28
HETATM   28  C40   D T2000      14.108  -0.810   3.448  1.00 83.04     0.250 C 
HETATM   29  C41   D T2000      12.882   0.154   3.406  1.00 82.57     0.037 C 
ENDBRANCH  25  28
ENDBRANCH  24  25
ENDBRANCH  23  24
ENDBRANCH  21  23
ENDBRANCH   6  20
TORSDOF 7
ENDMDL
