MODEL 1
REMARK VINA RESULT:    -7.878      0.000      0.000
REMARK INTER + INTRA:         -11.866
REMARK INTER:                 -11.102
REMARK INTRA:                  -0.764
REMARK UNBOUND:                -0.764
REMARK  7 active torsions:
REMARK  status: ('A' for Active; 'I' for Inactive)
REMARK    1  A    between atoms: C22_10  and  C19_16 
REMARK       I    between atoms: C22_10  and  N25_19 
REMARK    2  A    between atoms: C12_12  and  C18_15 
REMARK    3  A    between atoms: N25_19  and  C37_23 
REMARK    4  A    between atoms: C37_23  and  C38_24 
REMARK    5  A    between atoms: C38_24  and  N4_25 
REMARK    6  A    between atoms: N4_25  and  C39_26 
REMARK    7  A    between atoms: N4_25  and  C40_27 
ROOT
HETATM    1  C4    D T2000       0.993   7.207  11.227  1.00 48.44     0.052 C 
HETATM    2  C13   D T2000       1.091   3.395  11.410  1.00 48.75     0.002 A 
HETATM    3  C3    D T2000       1.483   1.875  11.308  1.00 43.40     0.033 C 
HETATM    4  C14   D T2000       0.906   5.678  11.363  1.00 49.83     0.064 A 
HETATM    5  C18   D T2000      -0.126   3.827  11.978  1.00 45.93     0.077 A 
HETATM    6  C19   D T2000       1.791   4.632  10.997  1.00 51.55     0.069 A 
HETATM    7  N23   D T2000      -0.180   5.162  11.921  1.00 47.90    -0.250 NA
ENDROOT
BRANCH   5   8
HETATM    8  C12   D T2000      -1.160   2.939  12.547  1.00 43.39     0.024 C 
HETATM    9  C20   D T2000      -1.136   2.068  13.672  1.00 43.86     0.061 A 
HETATM   10  C17   D T2000      -2.228   1.142  14.187  1.00 43.90     0.025 A 
HETATM   11  C21   D T2000      -0.071   1.796  14.670  1.00 40.96     0.279 A 
HETATM   12  C7    D T2000      -3.568   0.877  13.706  1.00 45.29     0.031 A 
HETATM   13  C16   D T2000      -1.726   0.485  15.318  1.00 41.24     0.085 A 
HETATM   14  C15   D T2000      -4.354  -0.051  14.398  1.00 46.91     0.140 A 
HETATM   15  C5    D T2000      -3.811  -0.703  15.544  1.00 46.93     0.031 A 
HETATM   16  F29   D T2000      -5.604  -0.349  14.028  1.00 48.65    -0.204 F 
HETATM   17  C6    D T2000      -2.496  -0.447  16.016  1.00 43.16     0.021 A 
HETATM   18  N24   D T2000      -0.463   0.880  15.589  1.00 38.68    -0.208 NA
HETATM   19  O27   D T2000       1.012   2.317  14.675  1.00 39.38    -0.265 OA
ENDBRANCH   5   8
BRANCH   6  20
HETATM   20  C22   D T2000       3.147   4.842  10.331  1.00 57.19     0.276 C 
HETATM   21  N25   D T2000       3.372   4.401   9.073  1.00 64.68    -0.232 NA
HETATM   22  O28   D T2000       4.110   5.410  10.855  1.00 55.46    -0.266 OA
BRANCH  21  23
HETATM   23  C37   D T2000       4.665   4.598   8.401  1.00 72.35     0.164 C 
BRANCH  23  24
HETATM   24  C38   D T2000       4.752   5.256   6.991  1.00 75.73     0.276 C 
BRANCH  24  25
HETATM   25  N4    D T2000       6.212   5.523   6.704  1.00 81.36     0.139 N 
BRANCH  25  26
HETATM   26  C39   D T2000       7.039   4.489   7.468  1.00 83.55     0.250 C 
HETATM   27  C42   D T2000       7.784   3.269   6.787  1.00 84.17     0.037 C 
ENDBRANCH  25  26
BRANCH  25  28
HETATM   28  C40   D T2000       6.587   7.016   6.977  1.00 83.04     0.250 C 
HETATM   29  C41   D T2000       6.638   8.091   5.847  1.00 82.57     0.037 C 
ENDBRANCH  25  28
ENDBRANCH  24  25
ENDBRANCH  23  24
ENDBRANCH  21  23
ENDBRANCH   6  20
TORSDOF 7
ENDMDL
MODEL 2
REMARK VINA RESULT:    -7.624      1.521      2.316
REMARK INTER + INTRA:         -11.507
REMARK INTER:                 -10.221
REMARK INTRA:                  -1.286
REMARK UNBOUND:                -0.764
REMARK  7 active torsions:
REMARK  status: ('A' for Active; 'I' for Inactive)
REMARK    1  A    between atoms: C22_10  and  C19_16 
REMARK       I    between atoms: C22_10  and  N25_19 
REMARK    2  A    between atoms: C12_12  and  C18_15 
REMARK    3  A    between atoms: N25_19  and  C37_23 
REMARK    4  A    between atoms: C37_23  and  C38_24 
REMARK    5  A    between atoms: C38_24  and  N4_25 
REMARK    6  A    between atoms: N4_25  and  C39_26 
REMARK    7  A    between atoms: N4_25  and  C40_27 
ROOT
HETATM    1  C4    D T2000       0.998   7.157  11.233  1.00 48.44     0.052 C 
HETATM    2  C13   D T2000       1.075   3.343  11.383  1.00 48.75     0.002 A 
HETATM    3  C3    D T2000       1.465   1.822  11.280  1.00 43.40     0.033 C 
HETATM    4  C14   D T2000       0.901   5.627  11.351  1.00 49.83     0.064 A 
HETATM    5  C18   D T2000      -0.158   3.775  11.914  1.00 45.93     0.077 A 
HETATM    6  C19   D T2000       1.794   4.580  11.006  1.00 51.55     0.069 A 
HETATM    7  N23   D T2000      -0.205   5.111  11.868  1.00 47.90    -0.250 NA
ENDROOT
BRANCH   5   8
HETATM    8  C12   D T2000      -1.214   2.886  12.440  1.00 43.39     0.024 C 
HETATM    9  C20   D T2000      -1.235   2.012  13.563  1.00 43.86     0.061 A 
HETATM   10  C17   D T2000      -2.346   1.085  14.032  1.00 43.90     0.025 A 
HETATM   11  C21   D T2000      -0.208   1.735  14.600  1.00 40.96     0.279 A 
HETATM   12  C7    D T2000      -3.667   0.823  13.499  1.00 45.29     0.031 A 
HETATM   13  C16   D T2000      -1.888   0.424  15.179  1.00 41.24     0.085 A 
HETATM   14  C15   D T2000      -4.480  -0.106  14.157  1.00 46.91     0.140 A 
HETATM   15  C5    D T2000      -3.982  -0.763  15.322  1.00 46.93     0.031 A 
HETATM   16  F29   D T2000      -5.714  -0.402  13.738  1.00 48.65    -0.204 F 
HETATM   17  C6    D T2000      -2.686  -0.509  15.845  1.00 43.16     0.021 A 
HETATM   18  N24   D T2000      -0.637   0.817  15.500  1.00 38.68    -0.208 NA
HETATM   19  O27   D T2000       0.873   2.256  14.649  1.00 39.38    -0.265 OA
ENDBRANCH   5   8
BRANCH   6  20
HETATM   20  C22   D T2000       3.172   4.791  10.387  1.00 57.19     0.276 C 
HETATM   21  N25   D T2000       4.245   5.054  11.166  1.00 64.68    -0.232 NA
HETATM   22  O28   D T2000       3.417   4.737   9.177  1.00 55.46    -0.266 OA
BRANCH  21  23
HETATM   23  C37   D T2000       5.587   5.251  10.598  1.00 72.35     0.164 C 
BRANCH  23  24
HETATM   24  C38   D T2000       6.734   4.230  10.862  1.00 75.73     0.276 C 
BRANCH  24  25
HETATM   25  N4    D T2000       6.844   3.344   9.642  1.00 81.36     0.139 N 
BRANCH  25  26
HETATM   26  C39   D T2000       6.768   4.237   8.403  1.00 83.55     0.250 C 
HETATM   27  C42   D T2000       6.648   3.692   6.921  1.00 84.17     0.037 C 
ENDBRANCH  25  26
BRANCH  25  28
HETATM   28  C40   D T2000       5.809   2.173   9.689  1.00 83.04     0.250 C 
HETATM   29  C41   D T2000       5.355   1.503  11.023  1.00 82.57     0.037 C 
ENDBRANCH  25  28
ENDBRANCH  24  25
ENDBRANCH  23  24
ENDBRANCH  21  23
ENDBRANCH   6  20
TORSDOF 7
ENDMDL
MODEL 3
REMARK VINA RESULT:    -7.511      2.010      2.581
REMARK INTER + INTRA:         -11.348
REMARK INTER:                 -10.802
REMARK INTRA:                  -0.546
REMARK UNBOUND:                -0.764
REMARK  7 active torsions:
REMARK  status: ('A' for Active; 'I' for Inactive)
REMARK    1  A    between atoms: C22_10  and  C19_16 
REMARK       I    between atoms: C22_10  and  N25_19 
REMARK    2  A    between atoms: C12_12  and  C18_15 
REMARK    3  A    between atoms: N25_19  and  C37_23 
REMARK    4  A    between atoms: C37_23  and  C38_24 
REMARK    5  A    between atoms: C38_24  and  N4_25 
REMARK    6  A    between atoms: N4_25  and  C39_26 
REMARK    7  A    between atoms: N4_25  and  C40_27 
ROOT
HETATM    1  C4    D T2000       0.401   6.020  11.289  1.00 48.44     0.052 C 
HETATM    2  C13   D T2000       1.920   2.626  12.152  1.00 48.75     0.002 A 
HETATM    3  C3    D T2000       2.859   1.374  12.310  1.00 43.40     0.033 C 
HETATM    4  C14   D T2000       0.892   4.622  11.701  1.00 49.83     0.064 A 
HETATM    5  C18   D T2000       0.612   2.663  12.677  1.00 45.93     0.077 A 
HETATM    6  C19   D T2000       2.117   3.938  11.497  1.00 51.55     0.069 A 
HETATM    7  N23   D T2000       0.061   3.846  12.383  1.00 47.90    -0.250 NA
ENDROOT
BRANCH   5   8
HETATM    8  C12   D T2000      -0.030   1.570  13.436  1.00 43.39     0.024 C 
HETATM    9  C20   D T2000      -1.390   1.337  13.780  1.00 43.86     0.061 A 
HETATM   10  C17   D T2000      -1.988   0.207  14.605  1.00 43.90     0.025 A 
HETATM   11  C21   D T2000      -2.621   2.102  13.456  1.00 40.96     0.279 A 
HETATM   12  C7    D T2000      -1.375  -0.930  15.261  1.00 45.29     0.031 A 
HETATM   13  C16   D T2000      -3.371   0.418  14.672  1.00 41.24     0.085 A 
HETATM   14  C15   D T2000      -2.198  -1.817  15.964  1.00 46.91     0.140 A 
HETATM   15  C5    D T2000      -3.602  -1.571  16.015  1.00 46.93     0.031 A 
HETATM   16  F29   D T2000      -1.717  -2.895  16.592  1.00 48.65    -0.204 F 
HETATM   17  C6    D T2000      -4.204  -0.455  15.374  1.00 43.16     0.021 A 
HETATM   18  N24   D T2000      -3.726   1.530  13.993  1.00 38.68    -0.208 NA
HETATM   19  O27   D T2000      -2.649   3.106  12.797  1.00 39.38    -0.265 OA
ENDBRANCH   5   8
BRANCH   6  20
HETATM   20  C22   D T2000       3.316   4.519  10.754  1.00 57.19     0.276 C 
HETATM   21  N25   D T2000       3.331   4.570   9.403  1.00 64.68    -0.232 NA
HETATM   22  O28   D T2000       4.328   4.975  11.295  1.00 55.46    -0.266 OA
BRANCH  21  23
HETATM   23  C37   D T2000       4.467   5.133   8.660  1.00 72.35     0.164 C 
BRANCH  23  24
HETATM   24  C38   D T2000       5.210   4.305   7.569  1.00 75.73     0.276 C 
BRANCH  24  25
HETATM   25  N4    D T2000       6.665   4.227   7.971  1.00 81.36     0.139 N 
BRANCH  25  26
HETATM   26  C39   D T2000       7.447   3.636   6.798  1.00 83.55     0.250 C 
HETATM   27  C42   D T2000       6.775   2.968   5.529  1.00 84.17     0.037 C 
ENDBRANCH  25  26
BRANCH  25  28
HETATM   28  C40   D T2000       6.844   3.487   9.337  1.00 83.04     0.250 C 
HETATM   29  C41   D T2000       6.180   2.109   9.642  1.00 82.57     0.037 C 
ENDBRANCH  25  28
ENDBRANCH  24  25
ENDBRANCH  23  24
ENDBRANCH  21  23
ENDBRANCH   6  20
TORSDOF 7
ENDMDL
MODEL 4
REMARK VINA RESULT:    -7.488      5.599     11.631
REMARK INTER + INTRA:         -11.316
REMARK INTER:                 -11.206
REMARK INTRA:                  -0.110
REMARK UNBOUND:                -0.764
REMARK  7 active torsions:
REMARK  status: ('A' for Active; 'I' for Inactive)
REMARK    1  A    between atoms: C22_10  and  C19_16 
REMARK       I    between atoms: C22_10  and  N25_19 
REMARK    2  A    between atoms: C12_12  and  C18_15 
REMARK    3  A    between atoms: N25_19  and  C37_23 
REMARK    4  A    between atoms: C37_23  and  C38_24 
REMARK    5  A    between atoms: C38_24  and  N4_25 
REMARK    6  A    between atoms: N4_25  and  C39_26 
REMARK    7  A    between atoms: N4_25  and  C40_27 
ROOT
HETATM    1  C4    D T2000      -4.676  -1.490  16.208  1.00 48.44     0.052 C 
HETATM    2  C13   D T2000      -1.204  -0.583  14.905  1.00 48.75     0.002 A 
HETATM    3  C3    D T2000       0.322  -0.561  14.525  1.00 43.40     0.033 C 
HETATM    4  C14   D T2000      -3.334  -1.005  15.635  1.00 49.83     0.064 A 
HETATM    5  C18   D T2000      -2.080   0.474  14.581  1.00 45.93     0.077 A 
HETATM    6  C19   D T2000      -2.038  -1.582  15.609  1.00 51.55     0.069 A 
HETATM    7  N23   D T2000      -3.304   0.175  15.033  1.00 47.90    -0.250 NA
ENDROOT
BRANCH   5   8
HETATM    8  C12   D T2000      -1.698   1.701  13.855  1.00 43.39     0.024 C 
HETATM    9  C20   D T2000      -2.371   2.446  12.847  1.00 43.86     0.061 A 
HETATM   10  C17   D T2000      -1.904   3.688  12.102  1.00 43.90     0.025 A 
HETATM   11  C21   D T2000      -3.704   2.253  12.220  1.00 40.96     0.279 A 
HETATM   12  C7    D T2000      -0.680   4.457  12.192  1.00 45.29     0.031 A 
HETATM   13  C16   D T2000      -2.915   4.046  11.202  1.00 41.24     0.085 A 
HETATM   14  C15   D T2000      -0.528   5.570  11.358  1.00 46.91     0.140 A 
HETATM   15  C5    D T2000      -1.576   5.906  10.451  1.00 46.93     0.031 A 
HETATM   16  F29   D T2000       0.564   6.340  11.382  1.00 48.65    -0.204 F 
HETATM   17  C6    D T2000      -2.777   5.151  10.359  1.00 43.16     0.021 A 
HETATM   18  N24   D T2000      -3.962   3.198  11.284  1.00 38.68    -0.208 NA
HETATM   19  O27   D T2000      -4.470   1.371  12.500  1.00 39.38    -0.265 OA
ENDBRANCH   5   8
BRANCH   6  20
HETATM   20  C22   D T2000      -1.687  -2.941  16.205  1.00 57.19     0.276 C 
HETATM   21  N25   D T2000      -2.658  -3.772  16.647  1.00 64.68    -0.232 NA
HETATM   22  O28   D T2000      -0.539  -3.383  16.327  1.00 55.46    -0.266 OA
BRANCH  21  23
HETATM   23  C37   D T2000      -2.349  -5.092  17.216  1.00 72.35     0.164 C 
BRANCH  23  24
HETATM   24  C38   D T2000      -3.462  -5.978  17.853  1.00 75.73     0.276 C 
BRANCH  24  25
HETATM   25  N4    D T2000      -2.801  -7.237  18.366  1.00 81.36     0.139 N 
BRANCH  25  26
HETATM   26  C39   D T2000      -3.320  -8.412  17.537  1.00 83.55     0.250 C 
HETATM   27  C42   D T2000      -2.401  -9.556  16.943  1.00 84.17     0.037 C 
ENDBRANCH  25  26
BRANCH  25  28
HETATM   28  C40   D T2000      -2.966  -7.383  19.914  1.00 83.04     0.250 C 
HETATM   29  C41   D T2000      -3.760  -6.353  20.776  1.00 82.57     0.037 C 
ENDBRANCH  25  28
ENDBRANCH  24  25
ENDBRANCH  23  24
ENDBRANCH  21  23
ENDBRANCH   6  20
TORSDOF 7
ENDMDL
MODEL 5
REMARK VINA RESULT:    -7.335      4.917      7.881
REMARK INTER + INTRA:         -11.100
REMARK INTER:                 -10.933
REMARK INTRA:                  -0.167
REMARK UNBOUND:                -0.764
REMARK  7 active torsions:
REMARK  status: ('A' for Active; 'I' for Inactive)
REMARK    1  A    between atoms: C22_10  and  C19_16 
REMARK       I    between atoms: C22_10  and  N25_19 
REMARK    2  A    between atoms: C12_12  and  C18_15 
REMARK    3  A    between atoms: N25_19  and  C37_23 
REMARK    4  A    between atoms: C37_23  and  C38_24 
REMARK    5  A    between atoms: C38_24  and  N4_25 
REMARK    6  A    between atoms: N4_25  and  C39_26 
REMARK    7  A    between atoms: N4_25  and  C40_27 
ROOT
HETATM    1  C4    D T2000       2.008  -0.760  14.376  1.00 48.44     0.052 C 
HETATM    2  C13   D T2000      -1.658  -0.508  15.411  1.00 48.75     0.002 A 
HETATM    3  C3    D T2000      -3.126  -0.030  15.711  1.00 43.40     0.033 C 
HETATM    4  C14   D T2000       0.540  -0.794  14.831  1.00 49.83     0.064 A 
HETATM    5  C18   D T2000      -1.217  -1.819  15.686  1.00 45.93     0.077 A 
HETATM    6  C19   D T2000      -0.485   0.186  14.834  1.00 51.55     0.069 A 
HETATM    7  N23   D T2000       0.069  -1.927  15.332  1.00 47.90    -0.250 NA
ENDROOT
BRANCH   5   8
HETATM    8  C12   D T2000      -2.052  -2.892  16.264  1.00 43.39     0.024 C 
HETATM    9  C20   D T2000      -1.707  -4.152  16.828  1.00 43.86     0.061 A 
HETATM   10  C17   D T2000      -2.623  -5.238  17.372  1.00 43.90     0.025 A 
HETATM   11  C21   D T2000      -0.384  -4.787  17.055  1.00 40.96     0.279 A 
HETATM   12  C7    D T2000      -4.065  -5.314  17.477  1.00 45.29     0.031 A 
HETATM   13  C16   D T2000      -1.812  -6.293  17.810  1.00 41.24     0.085 A 
HETATM   14  C15   D T2000      -4.634  -6.467  18.029  1.00 46.91     0.140 A 
HETATM   15  C5    D T2000      -3.780  -7.524  18.462  1.00 46.93     0.031 A 
HETATM   16  F29   D T2000      -5.955  -6.617  18.171  1.00 48.65    -0.204 F 
HETATM   17  C6    D T2000      -2.365  -7.453  18.358  1.00 43.16     0.021 A 
HETATM   18  N24   D T2000      -0.505  -6.014  17.619  1.00 38.68    -0.208 NA
HETATM   19  O27   D T2000       0.672  -4.286  16.779  1.00 39.38    -0.265 OA
ENDBRANCH   5   8
BRANCH   6  20
HETATM   20  C22   D T2000      -0.314   1.615  14.328  1.00 57.19     0.276 C 
HETATM   21  N25   D T2000      -1.288   2.212  13.605  1.00 64.68    -0.232 NA
HETATM   22  O28   D T2000       0.680   2.321  14.530  1.00 55.46    -0.266 OA
BRANCH  21  23
HETATM   23  C37   D T2000      -1.155   3.591  13.113  1.00 72.35     0.164 C 
BRANCH  23  24
HETATM   24  C38   D T2000      -2.374   4.562  13.091  1.00 75.73     0.276 C 
BRANCH  24  25
HETATM   25  N4    D T2000      -2.436   5.181  11.713  1.00 81.36     0.139 N 
BRANCH  25  26
HETATM   26  C39   D T2000      -3.619   4.560  10.972  1.00 83.55     0.250 C 
HETATM   27  C42   D T2000      -4.141   3.084  11.209  1.00 84.17     0.037 C 
ENDBRANCH  25  26
BRANCH  25  28
HETATM   28  C40   D T2000      -1.059   5.086  10.979  1.00 83.04     0.250 C 
HETATM   29  C41   D T2000      -0.825   4.164   9.743  1.00 82.57     0.037 C 
ENDBRANCH  25  28
ENDBRANCH  24  25
ENDBRANCH  23  24
ENDBRANCH  21  23
ENDBRANCH   6  20
TORSDOF 7
ENDMDL
MODEL 6
REMARK VINA RESULT:    -7.228      3.074      4.280
REMARK INTER + INTRA:         -10.949
REMARK INTER:                  -9.752
REMARK INTRA:                  -1.197
REMARK UNBOUND:                -0.764
REMARK  7 active torsions:
REMARK  status: ('A' for Active; 'I' for Inactive)
REMARK    1  A    between atoms: C22_10  and  C19_16 
REMARK       I    between atoms: C22_10  and  N25_19 
REMARK    2  A    between atoms: C12_12  and  C18_15 
REMARK    3  A    between atoms: N25_19  and  C37_23 
REMARK    4  A    between atoms: C37_23  and  C38_24 
REMARK    5  A    between atoms: C38_24  and  N4_25 
REMARK    6  A    between atoms: N4_25  and  C39_26 
REMARK    7  A    between atoms: N4_25  and  C40_27 
ROOT
HETATM    1  C4    D T2000       5.822   1.103  15.401  1.00 48.44     0.052 C 
HETATM    2  C13   D T2000       3.143   0.296  12.805  1.00 48.75     0.002 A 
HETATM    3  C3    D T2000       2.347  -0.018  11.484  1.00 43.40     0.033 C 
HETATM    4  C14   D T2000       4.650   0.777  14.461  1.00 49.83     0.064 A 
HETATM    5  C18   D T2000       2.518   0.369  14.067  1.00 45.93     0.077 A 
HETATM    6  C19   D T2000       4.575   0.565  13.060  1.00 51.55     0.069 A 
HETATM    7  N23   D T2000       3.442   0.654  14.991  1.00 47.90    -0.250 NA
ENDROOT
BRANCH   5   8
HETATM    8  C12   D T2000       1.078   0.155  14.315  1.00 43.39     0.024 C 
HETATM    9  C20   D T2000      -0.056   0.969  14.039  1.00 43.86     0.061 A 
HETATM   10  C17   D T2000      -1.520   0.710  14.359  1.00 43.90     0.025 A 
HETATM   11  C21   D T2000      -0.165   2.292  13.373  1.00 40.96     0.279 A 
HETATM   12  C7    D T2000      -2.177  -0.403  15.014  1.00 45.29     0.031 A 
HETATM   13  C16   D T2000      -2.255   1.808  13.896  1.00 41.24     0.085 A 
HETATM   14  C15   D T2000      -3.566  -0.357  15.174  1.00 46.91     0.140 A 
HETATM   15  C5    D T2000      -4.284   0.778  14.693  1.00 46.93     0.031 A 
HETATM   16  F29   D T2000      -4.253  -1.343  15.759  1.00 48.65    -0.204 F 
HETATM   17  C6    D T2000      -3.641   1.872  14.052  1.00 43.16     0.021 A 
HETATM   18  N24   D T2000      -1.448   2.725  13.320  1.00 38.68    -0.208 NA
HETATM   19  O27   D T2000       0.763   2.914  12.930  1.00 39.38    -0.265 OA
ENDBRANCH   5   8
BRANCH   6  20
HETATM   20  C22   D T2000       5.769   0.624  12.114  1.00 57.19     0.276 C 
HETATM   21  N25   D T2000       6.483   1.763  11.973  1.00 64.68    -0.232 NA
HETATM   22  O28   D T2000       6.173  -0.322  11.428  1.00 55.46    -0.266 OA
BRANCH  21  23
HETATM   23  C37   D T2000       7.645   1.846  11.076  1.00 72.35     0.164 C 
BRANCH  23  24
HETATM   24  C38   D T2000       7.644   2.791   9.837  1.00 75.73     0.276 C 
BRANCH  24  25
HETATM   25  N4    D T2000       6.521   2.348   8.928  1.00 81.36     0.139 N 
BRANCH  25  26
HETATM   26  C39   D T2000       7.077   2.246   7.508  1.00 83.55     0.250 C 
HETATM   27  C42   D T2000       7.728   3.456   6.720  1.00 84.17     0.037 C 
ENDBRANCH  25  26
BRANCH  25  28
HETATM   28  C40   D T2000       5.258   3.255   9.091  1.00 83.04     0.250 C 
HETATM   29  C41   D T2000       3.836   2.677   9.368  1.00 82.57     0.037 C 
ENDBRANCH  25  28
ENDBRANCH  24  25
ENDBRANCH  23  24
ENDBRANCH  21  23
ENDBRANCH   6  20
TORSDOF 7
ENDMDL
MODEL 7
REMARK VINA RESULT:    -7.139      1.953      2.462
REMARK INTER + INTRA:         -10.825
REMARK INTER:                 -10.290
REMARK INTRA:                  -0.534
REMARK UNBOUND:                -0.764
REMARK  7 active torsions:
REMARK  status: ('A' for Active; 'I' for Inactive)
REMARK    1  A    between atoms: C22_10  and  C19_16 
REMARK       I    between atoms: C22_10  and  N25_19 
REMARK    2  A    between atoms: C12_12  and  C18_15 
REMARK    3  A    between atoms: N25_19  and  C37_23 
REMARK    4  A    between atoms: C37_23  and  C38_24 
REMARK    5  A    between atoms: C38_24  and  N4_25 
REMARK    6  A    between atoms: N4_25  and  C39_26 
REMARK    7  A    between atoms: N4_25  and  C40_27 
ROOT
HETATM    1  C4    D T2000       5.431   1.887  13.086  1.00 48.44     0.052 C 
HETATM    2  C13   D T2000       2.115   2.770  11.413  1.00 48.75     0.002 A 
HETATM    3  C3    D T2000       0.988   3.286  10.444  1.00 43.40     0.033 C 
HETATM    4  C14   D T2000       4.032   2.183  12.522  1.00 49.83     0.064 A 
HETATM    5  C18   D T2000       1.828   2.120  12.631  1.00 45.93     0.077 A 
HETATM    6  C19   D T2000       3.592   2.814  11.330  1.00 51.55     0.069 A 
HETATM    7  N23   D T2000       2.980   1.804  13.235  1.00 47.90    -0.250 NA
ENDROOT
BRANCH   5   8
HETATM    8  C12   D T2000       0.472   1.833  13.141  1.00 43.39     0.024 C 
HETATM    9  C20   D T2000      -0.046   0.722  13.862  1.00 43.86     0.061 A 
HETATM   10  C17   D T2000      -1.471   0.464  14.327  1.00 43.90     0.025 A 
HETATM   11  C21   D T2000       0.621  -0.504  14.372  1.00 40.96     0.279 A 
HETATM   12  C7    D T2000      -2.684   1.243  14.182  1.00 45.29     0.031 A 
HETATM   13  C16   D T2000      -1.483  -0.771  14.988  1.00 41.24     0.085 A 
HETATM   14  C15   D T2000      -3.871   0.735  14.721  1.00 46.91     0.140 A 
HETATM   15  C5    D T2000      -3.848  -0.526  15.386  1.00 46.93     0.031 A 
HETATM   16  F29   D T2000      -5.033   1.391  14.640  1.00 48.65    -0.204 F 
HETATM   17  C6    D T2000      -2.661  -1.293  15.527  1.00 43.16     0.021 A 
HETATM   18  N24   D T2000      -0.251  -1.324  15.009  1.00 38.68    -0.208 NA
HETATM   19  O27   D T2000       1.789  -0.751  14.245  1.00 39.38    -0.265 OA
ENDBRANCH   5   8
BRANCH   6  20
HETATM   20  C22   D T2000       4.521   3.378  10.260  1.00 57.19     0.276 C 
HETATM   21  N25   D T2000       4.452   4.681   9.904  1.00 64.68    -0.232 NA
HETATM   22  O28   D T2000       5.380   2.727   9.657  1.00 55.46    -0.266 OA
BRANCH  21  23
HETATM   23  C37   D T2000       5.341   5.255   8.884  1.00 72.35     0.164 C 
BRANCH  23  24
HETATM   24  C38   D T2000       4.790   5.728   7.505  1.00 75.73     0.276 C 
BRANCH  24  25
HETATM   25  N4    D T2000       5.976   5.943   6.592  1.00 81.36     0.139 N 
BRANCH  25  26
HETATM   26  C39   D T2000       6.885   4.719   6.704  1.00 83.55     0.250 C 
HETATM   27  C42   D T2000       6.589   3.327   6.011  1.00 84.17     0.037 C 
ENDBRANCH  25  26
BRANCH  25  28
HETATM   28  C40   D T2000       6.666   7.319   6.865  1.00 83.04     0.250 C 
HETATM   29  C41   D T2000       7.499   8.073   5.781  1.00 82.57     0.037 C 
ENDBRANCH  25  28
ENDBRANCH  24  25
ENDBRANCH  23  24
ENDBRANCH  21  23
ENDBRANCH   6  20
TORSDOF 7
ENDMDL
MODEL 8
REMARK VINA RESULT:    -6.998      2.562      3.262
REMARK INTER + INTRA:         -10.626
REMARK INTER:                  -9.810
REMARK INTRA:                  -0.816
REMARK UNBOUND:                -0.764
REMARK  7 active torsions:
REMARK  status: ('A' for Active; 'I' for Inactive)
REMARK    1  A    between atoms: C22_10  and  C19_16 
REMARK       I    between atoms: C22_10  and  N25_19 
REMARK    2  A    between atoms: C12_12  and  C18_15 
REMARK    3  A    between atoms: N25_19  and  C37_23 
REMARK    4  A    between atoms: C37_23  and  C38_24 
REMARK    5  A    between atoms: C38_24  and  N4_25 
REMARK    6  A    between atoms: N4_25  and  C39_26 
REMARK    7  A    between atoms: N4_25  and  C40_27 
ROOT
HETATM    1  C4    D T2000       0.983   7.161  11.220  1.00 48.44     0.052 C 
HETATM    2  C13   D T2000       1.148   3.355  11.461  1.00 48.75     0.002 A 
HETATM    3  C3    D T2000       1.575   1.842  11.398  1.00 43.40     0.033 C 
HETATM    4  C14   D T2000       0.920   5.633  11.373  1.00 49.83     0.064 A 
HETATM    5  C18   D T2000      -0.102   3.769  11.967  1.00 45.93     0.077 A 
HETATM    6  C19   D T2000       1.842   4.600  11.063  1.00 51.55     0.069 A 
HETATM    7  N23   D T2000      -0.180   5.103  11.888  1.00 47.90    -0.250 NA
ENDROOT
BRANCH   5   8
HETATM    8  C12   D T2000      -1.143   2.868  12.501  1.00 43.39     0.024 C 
HETATM    9  C20   D T2000      -1.145   1.995  13.625  1.00 43.86     0.061 A 
HETATM   10  C17   D T2000      -2.241   1.055  14.102  1.00 43.90     0.025 A 
HETATM   11  C21   D T2000      -0.109   1.733  14.656  1.00 40.96     0.279 A 
HETATM   12  C7    D T2000      -3.562   0.776  13.578  1.00 45.29     0.031 A 
HETATM   13  C16   D T2000      -1.768   0.402  15.247  1.00 41.24     0.085 A 
HETATM   14  C15   D T2000      -4.359  -0.163  14.243  1.00 46.91     0.140 A 
HETATM   15  C5    D T2000      -3.846  -0.811  15.405  1.00 46.93     0.031 A 
HETATM   16  F29   D T2000      -5.593  -0.474  13.832  1.00 48.65    -0.204 F 
HETATM   17  C6    D T2000      -2.549  -0.541  15.919  1.00 43.16     0.021 A 
HETATM   18  N24   D T2000      -0.520   0.810  15.559  1.00 38.68    -0.208 NA
HETATM   19  O27   D T2000       0.967   2.267  14.696  1.00 39.38    -0.265 OA
ENDBRANCH   5   8
BRANCH   6  20
HETATM   20  C22   D T2000       3.222   4.829  10.456  1.00 57.19     0.276 C 
HETATM   21  N25   D T2000       4.340   4.622  11.187  1.00 64.68    -0.232 NA
HETATM   22  O28   D T2000       3.430   5.202   9.296  1.00 55.46    -0.266 OA
BRANCH  21  23
HETATM   23  C37   D T2000       5.684   4.824  10.626  1.00 72.35     0.164 C 
BRANCH  23  24
HETATM   24  C38   D T2000       6.874   3.899  11.022  1.00 75.73     0.276 C 
BRANCH  24  25
HETATM   25  N4    D T2000       7.350   4.333  12.389  1.00 81.36     0.139 N 
BRANCH  25  26
HETATM   26  C39   D T2000       7.408   5.860  12.405  1.00 83.55     0.250 C 
HETATM   27  C42   D T2000       7.000   6.752  13.648  1.00 84.17     0.037 C 
ENDBRANCH  25  26
BRANCH  25  28
HETATM   28  C40   D T2000       8.675   3.607  12.792  1.00 83.04     0.250 C 
HETATM   29  C41   D T2000       9.013   3.229  14.267  1.00 82.57     0.037 C 
ENDBRANCH  25  28
ENDBRANCH  24  25
ENDBRANCH  23  24
ENDBRANCH  21  23
ENDBRANCH   6  20
TORSDOF 7
ENDMDL
MODEL 9
REMARK VINA RESULT:    -6.890      2.502      3.290
REMARK INTER + INTRA:         -10.474
REMARK INTER:                  -9.798
REMARK INTRA:                  -0.676
REMARK UNBOUND:                -0.764
REMARK  7 active torsions:
REMARK  status: ('A' for Active; 'I' for Inactive)
REMARK    1  A    between atoms: C22_10  and  C19_16 
REMARK       I    between atoms: C22_10  and  N25_19 
REMARK    2  A    between atoms: C12_12  and  C18_15 
REMARK    3  A    between atoms: N25_19  and  C37_23 
REMARK    4  A    between atoms: C37_23  and  C38_24 
REMARK    5  A    between atoms: C38_24  and  N4_25 
REMARK    6  A    between atoms: N4_25  and  C39_26 
REMARK    7  A    between atoms: N4_25  and  C40_27 
ROOT
HETATM    1  C4    D T2000       0.941   7.095  11.241  1.00 48.44     0.052 C 
HETATM    2  C13   D T2000       1.497   3.356  11.776  1.00 48.75     0.002 A 
HETATM    3  C3    D T2000       2.072   1.892  11.815  1.00 43.40     0.033 C 
HETATM    4  C14   D T2000       1.039   5.586  11.518  1.00 49.83     0.064 A 
HETATM    5  C18   D T2000       0.232   3.688  12.303  1.00 45.93     0.077 A 
HETATM    6  C19   D T2000       2.048   4.626  11.250  1.00 51.55     0.069 A 
HETATM    7  N23   D T2000       0.017   4.996  12.122  1.00 47.90    -0.250 NA
ENDROOT
BRANCH   5   8
HETATM    8  C12   D T2000      -0.693   2.737  12.953  1.00 43.39     0.024 C 
HETATM    9  C20   D T2000      -2.079   2.486  12.752  1.00 43.86     0.061 A 
HETATM   10  C17   D T2000      -2.991   1.516  13.488  1.00 43.90     0.025 A 
HETATM   11  C21   D T2000      -3.045   3.075  11.790  1.00 40.96     0.279 A 
HETATM   12  C7    D T2000      -2.734   0.591  14.572  1.00 45.29     0.031 A 
HETATM   13  C16   D T2000      -4.271   1.637  12.933  1.00 41.24     0.085 A 
HETATM   14  C15   D T2000      -3.795  -0.183  15.054  1.00 46.91     0.140 A 
HETATM   15  C5    D T2000      -5.087  -0.033  14.469  1.00 46.93     0.031 A 
HETATM   16  F29   D T2000      -3.644  -1.067  16.046  1.00 48.65    -0.204 F 
HETATM   17  C6    D T2000      -5.342   0.876  13.407  1.00 43.16     0.021 A 
HETATM   18  N24   D T2000      -4.287   2.552  11.940  1.00 38.68    -0.208 NA
HETATM   19  O27   D T2000      -2.773   3.912  10.973  1.00 39.38    -0.265 OA
ENDBRANCH   5   8
BRANCH   6  20
HETATM   20  C22   D T2000       3.375   4.936  10.566  1.00 57.19     0.276 C 
HETATM   21  N25   D T2000       4.534   4.899  11.260  1.00 64.68    -0.232 NA
HETATM   22  O28   D T2000       3.501   5.230   9.372  1.00 55.46    -0.266 OA
BRANCH  21  23
HETATM   23  C37   D T2000       5.829   5.183  10.625  1.00 72.35     0.164 C 
BRANCH  23  24
HETATM   24  C38   D T2000       6.433   4.224   9.556  1.00 75.73     0.276 C 
BRANCH  24  25
HETATM   25  N4    D T2000       6.777   2.927  10.253  1.00 81.36     0.139 N 
BRANCH  25  26
HETATM   26  C39   D T2000       8.160   2.487   9.775  1.00 83.55     0.250 C 
HETATM   27  C42   D T2000       8.407   1.395   8.656  1.00 84.17     0.037 C 
ENDBRANCH  25  26
BRANCH  25  28
HETATM   28  C40   D T2000       5.640   1.867  10.085  1.00 83.04     0.250 C 
HETATM   29  C41   D T2000       5.495   0.631  11.026  1.00 82.57     0.037 C 
ENDBRANCH  25  28
ENDBRANCH  24  25
ENDBRANCH  23  24
ENDBRANCH  21  23
ENDBRANCH   6  20
TORSDOF 7
ENDMDL
