MODEL 1
REMARK VINA RESULT:    -7.850      0.000      0.000
REMARK INTER + INTRA:         -11.938
REMARK INTER:                 -11.062
REMARK INTRA:                  -0.876
REMARK UNBOUND:                -0.876
REMARK  7 active torsions:
REMARK  status: ('A' for Active; 'I' for Inactive)
REMARK    1  A    between atoms: C22_10  and  C19_16 
REMARK       I    between atoms: C22_10  and  N25_19 
REMARK    2  A    between atoms: C12_12  and  C18_15 
REMARK    3  A    between atoms: N25_19  and  C37_23 
REMARK    4  A    between atoms: C37_23  and  C38_24 
REMARK    5  A    between atoms: C38_24  and  N4_25 
REMARK    6  A    between atoms: N4_25  and  C39_26 
REMARK    7  A    between atoms: N4_25  and  C40_27 
ROOT
HETATM    1  C4    D T2000       0.074   4.601 -12.317  1.00 48.44     0.052 C 
HETATM    2  C13   D T2000      -0.097   1.684  -9.863  1.00 48.75     0.002 A 
HETATM    3  C3    D T2000      -0.043   0.757  -8.592  1.00 43.40     0.033 C 
HETATM    4  C14   D T2000      -0.037   3.347 -11.435  1.00 49.83     0.064 A 
HETATM    5  C18   D T2000      -0.484   1.206 -11.131  1.00 45.93     0.077 A 
HETATM    6  C19   D T2000       0.202   3.119 -10.056  1.00 51.55     0.069 A 
HETATM    7  N23   D T2000      -0.429   2.216 -12.007  1.00 47.90    -0.250 NA
ENDROOT
BRANCH   5   8
HETATM    8  C12   D T2000      -0.892  -0.182 -11.430  1.00 43.39     0.024 C 
HETATM    9  C20   D T2000      -2.132  -0.725 -11.866  1.00 43.86     0.061 A 
HETATM   10  C17   D T2000      -2.503  -2.179 -12.118  1.00 43.90     0.025 A 
HETATM   11  C21   D T2000      -3.418  -0.066 -12.202  1.00 40.96     0.279 A 
HETATM   12  C7    D T2000      -1.733  -3.401 -11.996  1.00 45.29     0.031 A 
HETATM   13  C16   D T2000      -3.842  -2.208 -12.527  1.00 41.24     0.085 A 
HETATM   14  C15   D T2000      -2.359  -4.615 -12.298  1.00 46.91     0.140 A 
HETATM   15  C5    D T2000      -3.725  -4.609 -12.709  1.00 46.93     0.031 A 
HETATM   16  F29   D T2000      -1.723  -5.788 -12.220  1.00 48.65    -0.204 F 
HETATM   17  C6    D T2000      -4.482  -3.412 -12.828  1.00 43.16     0.021 A 
HETATM   18  N24   D T2000      -4.364  -0.964 -12.573  1.00 38.68    -0.208 NA
HETATM   19  O27   D T2000      -3.613   1.120 -12.155  1.00 39.38    -0.265 OA
ENDBRANCH   5   8
BRANCH   6  20
HETATM   20  C22   D T2000       0.663   4.190  -9.074  1.00 57.19     0.276 C 
HETATM   21  N25   D T2000       1.948   4.607  -9.060  1.00 64.68    -0.232 NA
HETATM   22  O28   D T2000      -0.067   4.750  -8.248  1.00 55.46    -0.266 OA
BRANCH  21  23
HETATM   23  C37   D T2000       2.418   5.647  -8.133  1.00 72.35     0.164 C 
BRANCH  23  24
HETATM   24  C38   D T2000       3.893   6.151  -8.162  1.00 75.73     0.276 C 
BRANCH  24  25
HETATM   25  N4    D T2000       4.772   4.966  -8.487  1.00 81.36     0.139 N 
BRANCH  25  26
HETATM   26  C39   D T2000       5.780   4.801  -7.350  1.00 83.55     0.250 C 
HETATM   27  C42   D T2000       5.635   5.483  -5.928  1.00 84.17     0.037 C 
ENDBRANCH  25  26
BRANCH  25  28
HETATM   28  C40   D T2000       5.388   5.085  -9.919  1.00 83.04     0.250 C 
HETATM   29  C41   D T2000       4.850   4.272 -11.138  1.00 82.57     0.037 C 
ENDBRANCH  25  28
ENDBRANCH  24  25
ENDBRANCH  23  24
ENDBRANCH  21  23
ENDBRANCH   6  20
TORSDOF 7
ENDMDL
MODEL 2
REMARK VINA RESULT:    -7.797      1.703      2.036
REMARK INTER + INTRA:         -11.864
REMARK INTER:                 -10.978
REMARK INTRA:                  -0.886
REMARK UNBOUND:                -0.876
REMARK  7 active torsions:
REMARK  status: ('A' for Active; 'I' for Inactive)
REMARK    1  A    between atoms: C22_10  and  C19_16 
REMARK       I    between atoms: C22_10  and  N25_19 
REMARK    2  A    between atoms: C12_12  and  C18_15 
REMARK    3  A    between atoms: N25_19  and  C37_23 
REMARK    4  A    between atoms: C37_23  and  C38_24 
REMARK    5  A    between atoms: C38_24  and  N4_25 
REMARK    6  A    between atoms: N4_25  and  C39_26 
REMARK    7  A    between atoms: N4_25  and  C40_27 
ROOT
HETATM    1  C4    D T2000       0.595   4.133 -12.637  1.00 48.44     0.052 C 
HETATM    2  C13   D T2000      -0.731   1.541 -10.170  1.00 48.75     0.002 A 
HETATM    3  C3    D T2000      -1.105   0.711  -8.886  1.00 43.40     0.033 C 
HETATM    4  C14   D T2000       0.009   3.020 -11.753  1.00 49.83     0.064 A 
HETATM    5  C18   D T2000      -1.103   1.135 -11.468  1.00 45.93     0.077 A 
HETATM    6  C19   D T2000       0.012   2.806 -10.351  1.00 51.55     0.069 A 
HETATM    7  N23   D T2000      -0.644   2.031 -12.348  1.00 47.90    -0.250 NA
ENDROOT
BRANCH   5   8
HETATM    8  C12   D T2000      -1.880  -0.080 -11.789  1.00 43.39     0.024 C 
HETATM    9  C20   D T2000      -1.527  -1.458 -11.762  1.00 43.86     0.061 A 
HETATM   10  C17   D T2000      -2.366  -2.667 -12.147  1.00 43.90     0.025 A 
HETATM   11  C21   D T2000      -0.266  -2.131 -11.362  1.00 40.96     0.279 A 
HETATM   12  C7    D T2000      -3.726  -2.776 -12.637  1.00 45.29     0.031 A 
HETATM   13  C16   D T2000      -1.575  -3.807 -11.956  1.00 41.24     0.085 A 
HETATM   14  C15   D T2000      -4.234  -4.049 -12.915  1.00 46.91     0.140 A 
HETATM   15  C5    D T2000      -3.400  -5.189 -12.712  1.00 46.93     0.031 A 
HETATM   16  F29   D T2000      -5.478  -4.242 -13.363  1.00 48.65    -0.204 F 
HETATM   17  C6    D T2000      -2.066  -5.085 -12.234  1.00 43.16     0.021 A 
HETATM   18  N24   D T2000      -0.350  -3.478 -11.495  1.00 38.68    -0.208 NA
HETATM   19  O27   D T2000       0.717  -1.565 -10.967  1.00 39.38    -0.265 OA
ENDBRANCH   5   8
BRANCH   6  20
HETATM   20  C22   D T2000       0.668   3.740  -9.340  1.00 57.19     0.276 C 
HETATM   21  N25   D T2000       1.958   4.115  -9.481  1.00 64.68    -0.232 NA
HETATM   22  O28   D T2000       0.100   4.219  -8.352  1.00 55.46    -0.266 OA
BRANCH  21  23
HETATM   23  C37   D T2000       2.613   5.023  -8.528  1.00 72.35     0.164 C 
BRANCH  23  24
HETATM   24  C38   D T2000       4.035   5.597  -8.802  1.00 75.73     0.276 C 
BRANCH  24  25
HETATM   25  N4    D T2000       4.997   4.433  -8.833  1.00 81.36     0.139 N 
BRANCH  25  26
HETATM   26  C39   D T2000       6.030   4.646  -7.726  1.00 83.55     0.250 C 
HETATM   27  C42   D T2000       5.725   5.379  -6.355  1.00 84.17     0.037 C 
ENDBRANCH  25  26
BRANCH  25  28
HETATM   28  C40   D T2000       5.584   4.211 -10.265  1.00 83.04     0.250 C 
HETATM   29  C41   D T2000       4.701   4.242 -11.552  1.00 82.57     0.037 C 
ENDBRANCH  25  28
ENDBRANCH  24  25
ENDBRANCH  23  24
ENDBRANCH  21  23
ENDBRANCH   6  20
TORSDOF 7
ENDMDL
MODEL 3
REMARK VINA RESULT:    -7.758      3.510      9.784
REMARK INTER + INTRA:         -11.809
REMARK INTER:                 -11.076
REMARK INTRA:                  -0.733
REMARK UNBOUND:                -0.876
REMARK  7 active torsions:
REMARK  status: ('A' for Active; 'I' for Inactive)
REMARK    1  A    between atoms: C22_10  and  C19_16 
REMARK       I    between atoms: C22_10  and  N25_19 
REMARK    2  A    between atoms: C12_12  and  C18_15 
REMARK    3  A    between atoms: N25_19  and  C37_23 
REMARK    4  A    between atoms: C37_23  and  C38_24 
REMARK    5  A    between atoms: C38_24  and  N4_25 
REMARK    6  A    between atoms: N4_25  and  C39_26 
REMARK    7  A    between atoms: N4_25  and  C40_27 
ROOT
HETATM    1  C4    D T2000      -0.904   3.331 -13.776  1.00 48.44     0.052 C 
HETATM    2  C13   D T2000       0.150   2.423 -10.222  1.00 48.75     0.002 A 
HETATM    3  C3    D T2000       0.323   1.753  -8.809  1.00 43.40     0.033 C 
HETATM    4  C14   D T2000      -0.394   3.075 -12.348  1.00 49.83     0.064 A 
HETATM    5  C18   D T2000       0.864   3.576 -10.605  1.00 45.93     0.077 A 
HETATM    6  C19   D T2000      -0.695   2.077 -11.386  1.00 51.55     0.069 A 
HETATM    7  N23   D T2000       0.506   3.912 -11.850  1.00 47.90    -0.250 NA
ENDROOT
BRANCH   5   8
HETATM    8  C12   D T2000       1.851   4.284  -9.765  1.00 43.39     0.024 C 
HETATM    9  C20   D T2000       3.207   4.642 -10.005  1.00 43.86     0.061 A 
HETATM   10  C17   D T2000       4.190   5.339  -9.076  1.00 43.90     0.025 A 
HETATM   11  C21   D T2000       4.066   4.454 -11.200  1.00 40.96     0.279 A 
HETATM   12  C7    D T2000       4.047   5.830  -7.720  1.00 45.29     0.031 A 
HETATM   13  C16   D T2000       5.404   5.462  -9.763  1.00 41.24     0.085 A 
HETATM   14  C15   D T2000       5.152   6.435  -7.111  1.00 46.91     0.140 A 
HETATM   15  C5    D T2000       6.374   6.541  -7.839  1.00 46.93     0.031 A 
HETATM   16  F29   D T2000       5.106   6.922  -5.867  1.00 48.65    -0.204 F 
HETATM   17  C6    D T2000       6.518   6.058  -9.167  1.00 43.16     0.021 A 
HETATM   18  N24   D T2000       5.316   4.941 -11.005  1.00 38.68    -0.208 NA
HETATM   19  O27   D T2000       3.710   3.934 -12.224  1.00 39.38    -0.265 OA
ENDBRANCH   5   8
BRANCH   6  20
HETATM   20  C22   D T2000      -1.687   0.941 -11.606  1.00 57.19     0.276 C 
HETATM   21  N25   D T2000      -1.272  -0.344 -11.630  1.00 64.68    -0.232 NA
HETATM   22  O28   D T2000      -2.903   1.090 -11.768  1.00 55.46    -0.266 OA
BRANCH  21  23
HETATM   23  C37   D T2000      -2.208  -1.460 -11.829  1.00 72.35     0.164 C 
BRANCH  23  24
HETATM   24  C38   D T2000      -1.933  -2.866 -11.216  1.00 75.73     0.276 C 
BRANCH  24  25
HETATM   25  N4    D T2000      -1.419  -3.753 -12.326  1.00 81.36     0.139 N 
BRANCH  25  26
HETATM   26  C39   D T2000      -2.489  -4.804 -12.623  1.00 83.55     0.250 C 
HETATM   27  C42   D T2000      -3.934  -4.809 -11.974  1.00 84.17     0.037 C 
ENDBRANCH  25  26
BRANCH  25  28
HETATM   28  C40   D T2000       0.002  -4.317 -11.998  1.00 83.04     0.250 C 
HETATM   29  C41   D T2000       0.802  -3.896 -10.725  1.00 82.57     0.037 C 
ENDBRANCH  25  28
ENDBRANCH  24  25
ENDBRANCH  23  24
ENDBRANCH  21  23
ENDBRANCH   6  20
TORSDOF 7
ENDMDL
MODEL 4
REMARK VINA RESULT:    -7.580      1.937      2.697
REMARK INTER + INTRA:         -11.559
REMARK INTER:                 -10.830
REMARK INTRA:                  -0.728
REMARK UNBOUND:                -0.876
REMARK  7 active torsions:
REMARK  status: ('A' for Active; 'I' for Inactive)
REMARK    1  A    between atoms: C22_10  and  C19_16 
REMARK       I    between atoms: C22_10  and  N25_19 
REMARK    2  A    between atoms: C12_12  and  C18_15 
REMARK    3  A    between atoms: N25_19  and  C37_23 
REMARK    4  A    between atoms: C37_23  and  C38_24 
REMARK    5  A    between atoms: C38_24  and  N4_25 
REMARK    6  A    between atoms: N4_25  and  C39_26 
REMARK    7  A    between atoms: N4_25  and  C40_27 
ROOT
HETATM    1  C4    D T2000       0.723   3.936 -13.044  1.00 48.44     0.052 C 
HETATM    2  C13   D T2000      -0.744   2.033 -10.079  1.00 48.75     0.002 A 
HETATM    3  C3    D T2000      -1.089   1.469  -8.652  1.00 43.40     0.033 C 
HETATM    4  C14   D T2000       0.050   3.104 -11.941  1.00 49.83     0.064 A 
HETATM    5  C18   D T2000      -1.391   1.582 -11.248  1.00 45.93     0.077 A 
HETATM    6  C19   D T2000       0.222   3.057 -10.534  1.00 51.55     0.069 A 
HETATM    7  N23   D T2000      -0.888   2.237 -12.300  1.00 47.90    -0.250 NA
ENDROOT
BRANCH   5   8
HETATM    8  C12   D T2000      -2.455   0.559 -11.289  1.00 43.39     0.024 C 
HETATM    9  C20   D T2000      -2.406  -0.841 -11.540  1.00 43.86     0.061 A 
HETATM   10  C17   D T2000      -3.552  -1.840 -11.609  1.00 43.90     0.025 A 
HETATM   11  C21   D T2000      -1.257  -1.742 -11.804  1.00 40.96     0.279 A 
HETATM   12  C7    D T2000      -4.982  -1.674 -11.447  1.00 45.29     0.031 A 
HETATM   13  C16   D T2000      -2.999  -3.096 -11.890  1.00 41.24     0.085 A 
HETATM   14  C15   D T2000      -5.803  -2.800 -11.576  1.00 46.91     0.140 A 
HETATM   15  C5    D T2000      -5.207  -4.063 -11.865  1.00 46.93     0.031 A 
HETATM   16  F29   D T2000      -7.130  -2.738 -11.435  1.00 48.65    -0.204 F 
HETATM   17  C6    D T2000      -3.805  -4.228 -12.026  1.00 43.16     0.021 A 
HETATM   18  N24   D T2000      -1.656  -3.023 -11.999  1.00 38.68    -0.208 NA
HETATM   19  O27   D T2000      -0.108  -1.393 -11.844  1.00 39.38    -0.265 OA
ENDBRANCH   5   8
BRANCH   6  20
HETATM   20  C22   D T2000       1.214   3.917  -9.759  1.00 57.19     0.276 C 
HETATM   21  N25   D T2000       2.525   3.922 -10.084  1.00 64.68    -0.232 NA
HETATM   22  O28   D T2000       0.917   4.656  -8.814  1.00 55.46    -0.266 OA
BRANCH  21  23
HETATM   23  C37   D T2000       3.502   4.749  -9.362  1.00 72.35     0.164 C 
BRANCH  23  24
HETATM   24  C38   D T2000       4.854   4.157  -8.864  1.00 75.73     0.276 C 
BRANCH  24  25
HETATM   25  N4    D T2000       5.704   5.309  -8.380  1.00 81.36     0.139 N 
BRANCH  25  26
HETATM   26  C39   D T2000       6.720   5.636  -9.474  1.00 83.55     0.250 C 
HETATM   27  C42   D T2000       7.064   4.674 -10.685  1.00 84.17     0.037 C 
ENDBRANCH  25  26
BRANCH  25  28
HETATM   28  C40   D T2000       6.309   5.022  -6.967  1.00 83.04     0.250 C 
HETATM   29  C41   D T2000       5.614   5.477  -5.645  1.00 82.57     0.037 C 
ENDBRANCH  25  28
ENDBRANCH  24  25
ENDBRANCH  23  24
ENDBRANCH  21  23
ENDBRANCH   6  20
TORSDOF 7
ENDMDL
MODEL 5
REMARK VINA RESULT:    -7.384      3.279      9.789
REMARK INTER + INTRA:         -11.281
REMARK INTER:                 -10.300
REMARK INTRA:                  -0.981
REMARK UNBOUND:                -0.876
REMARK  7 active torsions:
REMARK  status: ('A' for Active; 'I' for Inactive)
REMARK    1  A    between atoms: C22_10  and  C19_16 
REMARK       I    between atoms: C22_10  and  N25_19 
REMARK    2  A    between atoms: C12_12  and  C18_15 
REMARK    3  A    between atoms: N25_19  and  C37_23 
REMARK    4  A    between atoms: C37_23  and  C38_24 
REMARK    5  A    between atoms: C38_24  and  N4_25 
REMARK    6  A    between atoms: N4_25  and  C39_26 
REMARK    7  A    between atoms: N4_25  and  C40_27 
ROOT
HETATM    1  C4    D T2000      -2.027   2.298  -8.764  1.00 48.44     0.052 C 
HETATM    2  C13   D T2000      -0.029   3.804 -11.645  1.00 48.75     0.002 A 
HETATM    3  C3    D T2000       0.450   4.385 -13.027  1.00 43.40     0.033 C 
HETATM    4  C14   D T2000      -1.112   2.909  -9.838  1.00 49.83     0.064 A 
HETATM    5  C18   D T2000       0.830   3.694 -10.533  1.00 45.93     0.077 A 
HETATM    6  C19   D T2000      -1.335   3.282 -11.188  1.00 51.55     0.069 A 
HETATM    7  N23   D T2000       0.147   3.165  -9.511  1.00 47.90    -0.250 NA
ENDROOT
BRANCH   5   8
HETATM    8  C12   D T2000       2.248   4.108 -10.509  1.00 43.39     0.024 C 
HETATM    9  C20   D T2000       2.962   4.969  -9.629  1.00 43.86     0.061 A 
HETATM   10  C17   D T2000       4.422   5.391  -9.682  1.00 43.90     0.025 A 
HETATM   11  C21   D T2000       2.521   5.707  -8.419  1.00 40.96     0.279 A 
HETATM   12  C7    D T2000       5.486   5.055 -10.607  1.00 45.29     0.031 A 
HETATM   13  C16   D T2000       4.651   6.254  -8.603  1.00 41.24     0.085 A 
HETATM   14  C15   D T2000       6.752   5.612 -10.398  1.00 46.91     0.140 A 
HETATM   15  C5    D T2000       6.950   6.490  -9.291  1.00 46.93     0.031 A 
HETATM   16  F29   D T2000       7.791   5.351 -11.197  1.00 48.65    -0.204 F 
HETATM   17  C6    D T2000       5.908   6.823  -8.384  1.00 43.16     0.021 A 
HETATM   18  N24   D T2000       3.530   6.428  -7.873  1.00 38.68    -0.208 NA
HETATM   19  O27   D T2000       1.407   5.677  -7.968  1.00 39.38    -0.265 OA
ENDBRANCH   5   8
BRANCH   6  20
HETATM   20  C22   D T2000      -2.668   3.136 -11.913  1.00 57.19     0.276 C 
HETATM   21  N25   D T2000      -2.807   2.265 -12.936  1.00 64.68    -0.232 NA
HETATM   22  O28   D T2000      -3.693   3.769 -11.635  1.00 55.46    -0.266 OA
BRANCH  21  23
HETATM   23  C37   D T2000      -4.083   2.095 -13.645  1.00 72.35     0.164 C 
BRANCH  23  24
HETATM   24  C38   D T2000      -4.911   0.781 -13.519  1.00 75.73     0.276 C 
BRANCH  24  25
HETATM   25  N4    D T2000      -4.317  -0.023 -12.386  1.00 81.36     0.139 N 
BRANCH  25  26
HETATM   26  C39   D T2000      -4.146  -1.463 -12.869  1.00 83.55     0.250 C 
HETATM   27  C42   D T2000      -2.934  -2.398 -12.462  1.00 84.17     0.037 C 
ENDBRANCH  25  26
BRANCH  25  28
HETATM   28  C40   D T2000      -5.142   0.149 -11.068  1.00 83.04     0.250 C 
HETATM   29  C41   D T2000      -4.695  -0.474  -9.708  1.00 82.57     0.037 C 
ENDBRANCH  25  28
ENDBRANCH  24  25
ENDBRANCH  23  24
ENDBRANCH  21  23
ENDBRANCH   6  20
TORSDOF 7
ENDMDL
MODEL 6
REMARK VINA RESULT:    -7.350      2.194      2.999
REMARK INTER + INTRA:         -11.233
REMARK INTER:                 -10.343
REMARK INTRA:                  -0.891
REMARK UNBOUND:                -0.876
REMARK  7 active torsions:
REMARK  status: ('A' for Active; 'I' for Inactive)
REMARK    1  A    between atoms: C22_10  and  C19_16 
REMARK       I    between atoms: C22_10  and  N25_19 
REMARK    2  A    between atoms: C12_12  and  C18_15 
REMARK    3  A    between atoms: N25_19  and  C37_23 
REMARK    4  A    between atoms: C37_23  and  C38_24 
REMARK    5  A    between atoms: C38_24  and  N4_25 
REMARK    6  A    between atoms: N4_25  and  C39_26 
REMARK    7  A    between atoms: N4_25  and  C40_27 
ROOT
HETATM    1  C4    D T2000      -2.994   3.255  -7.659  1.00 48.44     0.052 C 
HETATM    2  C13   D T2000      -1.489   1.873 -10.883  1.00 48.75     0.002 A 
HETATM    3  C3    D T2000      -0.647   1.634 -12.191  1.00 43.40     0.033 C 
HETATM    4  C14   D T2000      -2.476   2.590  -8.945  1.00 49.83     0.064 A 
HETATM    5  C18   D T2000      -2.484   0.974 -10.449  1.00 45.93     0.077 A 
HETATM    6  C19   D T2000      -1.474   2.959  -9.879  1.00 51.55     0.069 A 
HETATM    7  N23   D T2000      -3.026   1.443  -9.319  1.00 47.90    -0.250 NA
ENDROOT
BRANCH   5   8
HETATM    8  C12   D T2000      -2.852  -0.282 -11.133  1.00 43.39     0.024 C 
HETATM    9  C20   D T2000      -2.196  -1.543 -11.203  1.00 43.86     0.061 A 
HETATM   10  C17   D T2000      -2.610  -2.794 -11.963  1.00 43.90     0.025 A 
HETATM   11  C21   D T2000      -0.938  -2.021 -10.578  1.00 40.96     0.279 A 
HETATM   12  C7    D T2000      -3.753  -3.069 -12.811  1.00 45.29     0.031 A 
HETATM   13  C16   D T2000      -1.635  -3.771 -11.728  1.00 41.24     0.085 A 
HETATM   14  C15   D T2000      -3.863  -4.338 -13.390  1.00 46.91     0.140 A 
HETATM   15  C5    D T2000      -2.851  -5.309 -13.131  1.00 46.93     0.031 A 
HETATM   16  F29   D T2000      -4.887  -4.679 -14.177  1.00 48.65    -0.204 F 
HETATM   17  C6    D T2000      -1.728  -5.041 -12.302  1.00 43.16     0.021 A 
HETATM   18  N24   D T2000      -0.664  -3.305 -10.914  1.00 38.68    -0.208 NA
HETATM   19  O27   D T2000      -0.237  -1.361  -9.858  1.00 39.38    -0.265 OA
ENDBRANCH   5   8
BRANCH   6  20
HETATM   20  C22   D T2000      -0.624   4.221  -9.776  1.00 57.19     0.276 C 
HETATM   21  N25   D T2000       0.445   4.268  -8.953  1.00 64.68    -0.232 NA
HETATM   22  O28   D T2000      -0.828   5.261 -10.413  1.00 55.46    -0.266 OA
BRANCH  21  23
HETATM   23  C37   D T2000       1.289   5.467  -8.842  1.00 72.35     0.164 C 
BRANCH  23  24
HETATM   24  C38   D T2000       2.669   5.423  -8.119  1.00 75.73     0.276 C 
BRANCH  24  25
HETATM   25  N4    D T2000       3.737   5.633  -9.166  1.00 81.36     0.139 N 
BRANCH  25  26
HETATM   26  C39   D T2000       4.145   4.261  -9.704  1.00 83.55     0.250 C 
HETATM   27  C42   D T2000       4.732   4.014 -11.154  1.00 84.17     0.037 C 
ENDBRANCH  25  26
BRANCH  25  28
HETATM   28  C40   D T2000       4.907   6.516  -8.623  1.00 83.04     0.250 C 
HETATM   29  C41   D T2000       6.134   6.922  -9.499  1.00 82.57     0.037 C 
ENDBRANCH  25  28
ENDBRANCH  24  25
ENDBRANCH  23  24
ENDBRANCH  21  23
ENDBRANCH   6  20
TORSDOF 7
ENDMDL
MODEL 7
REMARK VINA RESULT:    -7.101      6.562     10.561
REMARK INTER + INTRA:         -10.883
REMARK INTER:                  -9.944
REMARK INTRA:                  -0.939
REMARK UNBOUND:                -0.876
REMARK  7 active torsions:
REMARK  status: ('A' for Active; 'I' for Inactive)
REMARK    1  A    between atoms: C22_10  and  C19_16 
REMARK       I    between atoms: C22_10  and  N25_19 
REMARK    2  A    between atoms: C12_12  and  C18_15 
REMARK    3  A    between atoms: N25_19  and  C37_23 
REMARK    4  A    between atoms: C37_23  and  C38_24 
REMARK    5  A    between atoms: C38_24  and  N4_25 
REMARK    6  A    between atoms: N4_25  and  C39_26 
REMARK    7  A    between atoms: N4_25  and  C40_27 
ROOT
HETATM    1  C4    D T2000      -8.827  -2.042 -11.965  1.00 48.44     0.052 C 
HETATM    2  C13   D T2000      -5.712   0.163 -11.994  1.00 48.75     0.002 A 
HETATM    3  C3    D T2000      -4.688   1.351 -12.118  1.00 43.40     0.033 C 
HETATM    4  C14   D T2000      -7.500  -1.266 -11.937  1.00 49.83     0.064 A 
HETATM    5  C18   D T2000      -5.320  -1.136 -11.613  1.00 45.93     0.077 A 
HETATM    6  C19   D T2000      -7.173   0.086 -12.210  1.00 51.55     0.069 A 
HETATM    7  N23   D T2000      -6.400  -1.926 -11.599  1.00 47.90    -0.250 NA
ENDROOT
BRANCH   5   8
HETATM    8  C12   D T2000      -3.941  -1.545 -11.277  1.00 43.39     0.024 C 
HETATM    9  C20   D T2000      -3.136  -2.620 -11.748  1.00 43.86     0.061 A 
HETATM   10  C17   D T2000      -1.728  -3.014 -11.329  1.00 43.90     0.025 A 
HETATM   11  C21   D T2000      -3.408  -3.664 -12.766  1.00 40.96     0.279 A 
HETATM   12  C7    D T2000      -0.816  -2.435 -10.363  1.00 45.29     0.031 A 
HETATM   13  C16   D T2000      -1.369  -4.145 -12.072  1.00 41.24     0.085 A 
HETATM   14  C15   D T2000       0.437  -3.033 -10.188  1.00 46.91     0.140 A 
HETATM   15  C5    D T2000       0.769  -4.186 -10.959  1.00 46.93     0.031 A 
HETATM   16  F29   D T2000       1.341  -2.562  -9.324  1.00 48.65    -0.204 F 
HETATM   17  C6    D T2000      -0.123  -4.756 -11.906  1.00 43.16     0.021 A 
HETATM   18  N24   D T2000      -2.361  -4.513 -12.910  1.00 38.68    -0.208 NA
HETATM   19  O27   D T2000      -4.429  -3.760 -13.394  1.00 39.38    -0.265 OA
ENDBRANCH   5   8
BRANCH   6  20
HETATM   20  C22   D T2000      -8.184   1.148 -12.628  1.00 57.19     0.276 C 
HETATM   21  N25   D T2000      -9.277   1.396 -11.874  1.00 64.68    -0.232 NA
HETATM   22  O28   D T2000      -8.092   1.846 -13.644  1.00 55.46    -0.266 OA
BRANCH  21  23
HETATM   23  C37   D T2000     -10.263   2.422 -12.247  1.00 72.35     0.164 C 
BRANCH  23  24
HETATM   24  C38   D T2000     -11.650   2.034 -12.842  1.00 75.73     0.276 C 
BRANCH  24  25
HETATM   25  N4    D T2000     -11.592   0.570 -13.212  1.00 81.36     0.139 N 
BRANCH  25  26
HETATM   26  C39   D T2000     -11.246   0.472 -14.697  1.00 83.55     0.250 C 
HETATM   27  C42   D T2000     -11.526  -0.804 -15.593  1.00 84.17     0.037 C 
ENDBRANCH  25  26
BRANCH  25  28
HETATM   28  C40   D T2000     -12.891  -0.183 -12.774  1.00 83.04     0.250 C 
HETATM   29  C41   D T2000     -12.870  -1.634 -12.199  1.00 82.57     0.037 C 
ENDBRANCH  25  28
ENDBRANCH  24  25
ENDBRANCH  23  24
ENDBRANCH  21  23
ENDBRANCH   6  20
TORSDOF 7
ENDMDL
MODEL 8
REMARK VINA RESULT:    -7.098      6.936     10.009
REMARK INTER + INTRA:         -10.878
REMARK INTER:                  -9.991
REMARK INTRA:                  -0.887
REMARK UNBOUND:                -0.876
REMARK  7 active torsions:
REMARK  status: ('A' for Active; 'I' for Inactive)
REMARK    1  A    between atoms: C22_10  and  C19_16 
REMARK       I    between atoms: C22_10  and  N25_19 
REMARK    2  A    between atoms: C12_12  and  C18_15 
REMARK    3  A    between atoms: N25_19  and  C37_23 
REMARK    4  A    between atoms: C37_23  and  C38_24 
REMARK    5  A    between atoms: C38_24  and  N4_25 
REMARK    6  A    between atoms: N4_25  and  C39_26 
REMARK    7  A    between atoms: N4_25  and  C40_27 
ROOT
HETATM    1  C4    D T2000      -9.034  -1.659 -11.940  1.00 48.44     0.052 C 
HETATM    2  C13   D T2000      -5.762  -0.016 -13.014  1.00 48.75     0.002 A 
HETATM    3  C3    D T2000      -4.658   0.925 -13.625  1.00 43.40     0.033 C 
HETATM    4  C14   D T2000      -7.650  -1.101 -12.307  1.00 49.83     0.064 A 
HETATM    5  C18   D T2000      -5.444  -1.175 -12.278  1.00 45.93     0.077 A 
HETATM    6  C19   D T2000      -7.239   0.045 -13.036  1.00 51.55     0.069 A 
HETATM    7  N23   D T2000      -6.580  -1.767 -11.894  1.00 47.90    -0.250 NA
ENDROOT
BRANCH   5   8
HETATM    8  C12   D T2000      -4.075  -1.644 -11.978  1.00 43.39     0.024 C 
HETATM    9  C20   D T2000      -3.438  -2.895 -12.207  1.00 43.86     0.061 A 
HETATM   10  C17   D T2000      -2.029  -3.332 -11.835  1.00 43.90     0.025 A 
HETATM   11  C21   D T2000      -3.931  -4.132 -12.861  1.00 40.96     0.279 A 
HETATM   12  C7    D T2000      -0.953  -2.632 -11.162  1.00 45.29     0.031 A 
HETATM   13  C16   D T2000      -1.871  -4.655 -12.264  1.00 41.24     0.085 A 
HETATM   14  C15   D T2000       0.253  -3.310 -10.951  1.00 46.91     0.140 A 
HETATM   15  C5    D T2000       0.379  -4.658 -11.399  1.00 46.93     0.031 A 
HETATM   16  F29   D T2000       1.299  -2.739 -10.346  1.00 48.65    -0.204 F 
HETATM   17  C6    D T2000      -0.675  -5.347 -12.057  1.00 43.16     0.021 A 
HETATM   18  N24   D T2000      -2.991  -5.110 -12.865  1.00 38.68    -0.208 NA
HETATM   19  O27   D T2000      -5.027  -4.267 -13.335  1.00 39.38    -0.265 OA
ENDBRANCH   5   8
BRANCH   6  20
HETATM   20  C22   D T2000      -8.194   1.053 -13.663  1.00 57.19     0.276 C 
HETATM   21  N25   D T2000      -7.990   2.381 -13.520  1.00 64.68    -0.232 NA
HETATM   22  O28   D T2000      -9.191   0.757 -14.332  1.00 55.46    -0.266 OA
BRANCH  21  23
HETATM   23  C37   D T2000      -8.888   3.376 -14.123  1.00 72.35     0.164 C 
BRANCH  23  24
HETATM   24  C38   D T2000      -8.420   4.281 -15.302  1.00 75.73     0.276 C 
BRANCH  24  25
HETATM   25  N4    D T2000      -8.993   3.703 -16.574  1.00 81.36     0.139 N 
BRANCH  25  26
HETATM   26  C39   D T2000      -8.692   4.678 -17.712  1.00 83.55     0.250 C 
HETATM   27  C42   D T2000      -8.220   4.237 -19.159  1.00 84.17     0.037 C 
ENDBRANCH  25  26
BRANCH  25  28
HETATM   28  C40   D T2000     -10.499   3.318 -16.401  1.00 83.04     0.250 C 
HETATM   29  C41   D T2000     -11.197   2.231 -17.277  1.00 82.57     0.037 C 
ENDBRANCH  25  28
ENDBRANCH  24  25
ENDBRANCH  23  24
ENDBRANCH  21  23
ENDBRANCH   6  20
TORSDOF 7
ENDMDL
MODEL 9
REMARK VINA RESULT:    -6.883      5.458      9.649
REMARK INTER + INTRA:         -10.576
REMARK INTER:                  -9.626
REMARK INTRA:                  -0.950
REMARK UNBOUND:                -0.876
REMARK  7 active torsions:
REMARK  status: ('A' for Active; 'I' for Inactive)
REMARK    1  A    between atoms: C22_10  and  C19_16 
REMARK       I    between atoms: C22_10  and  N25_19 
REMARK    2  A    between atoms: C12_12  and  C18_15 
REMARK    3  A    between atoms: N25_19  and  C37_23 
REMARK    4  A    between atoms: C37_23  and  C38_24 
REMARK    5  A    between atoms: C38_24  and  N4_25 
REMARK    6  A    between atoms: N4_25  and  C39_26 
REMARK    7  A    between atoms: N4_25  and  C40_27 
ROOT
HETATM    1  C4    D T2000      -4.647   3.119 -13.608  1.00 48.44     0.052 C 
HETATM    2  C13   D T2000      -4.520   0.418 -10.915  1.00 48.75     0.002 A 
HETATM    3  C3    D T2000      -4.853  -0.604  -9.766  1.00 43.40     0.033 C 
HETATM    4  C14   D T2000      -4.461   2.016 -12.554  1.00 49.83     0.064 A 
HETATM    5  C18   D T2000      -3.230   0.539 -11.469  1.00 45.93     0.077 A 
HETATM    6  C19   D T2000      -5.354   1.402 -11.639  1.00 51.55     0.069 A 
HETATM    7  N23   D T2000      -3.253   1.484 -12.415  1.00 47.90    -0.250 NA
ENDROOT
BRANCH   5   8
HETATM    8  C12   D T2000      -2.054  -0.260 -11.068  1.00 43.39     0.024 C 
HETATM    9  C20   D T2000      -1.703  -1.614 -11.329  1.00 43.86     0.061 A 
HETATM   10  C17   D T2000      -0.488  -2.395 -10.850  1.00 43.90     0.025 A 
HETATM   11  C21   D T2000      -2.389  -2.661 -12.124  1.00 40.96     0.279 A 
HETATM   12  C7    D T2000       0.634  -2.010 -10.017  1.00 45.29     0.031 A 
HETATM   13  C16   D T2000      -0.593  -3.694 -11.363  1.00 41.24     0.085 A 
HETATM   14  C15   D T2000       1.616  -2.968  -9.738  1.00 46.91     0.140 A 
HETATM   15  C5    D T2000       1.476  -4.282 -10.275  1.00 46.93     0.031 A 
HETATM   16  F29   D T2000       2.687  -2.697  -8.986  1.00 48.65    -0.204 F 
HETATM   17  C6    D T2000       0.376  -4.662 -11.089  1.00 43.16     0.021 A 
HETATM   18  N24   D T2000      -1.709  -3.834 -12.108  1.00 38.68    -0.208 NA
HETATM   19  O27   D T2000      -3.423  -2.503 -12.717  1.00 39.38    -0.265 OA
ENDBRANCH   5   8
BRANCH   6  20
HETATM   20  C22   D T2000      -6.831   1.754 -11.511  1.00 57.19     0.276 C 
HETATM   21  N25   D T2000      -7.730   1.307 -12.415  1.00 64.68    -0.232 NA
HETATM   22  O28   D T2000      -7.315   2.445 -10.607  1.00 55.46    -0.266 OA
BRANCH  21  23
HETATM   23  C37   D T2000      -9.162   1.621 -12.311  1.00 72.35     0.164 C 
BRANCH  23  24
HETATM   24  C38   D T2000     -10.237   0.495 -12.252  1.00 75.73     0.276 C 
BRANCH  24  25
HETATM   25  N4    D T2000     -10.722   0.256 -13.663  1.00 81.36     0.139 N 
BRANCH  25  26
HETATM   26  C39   D T2000     -12.132   0.833 -13.780  1.00 83.55     0.250 C 
HETATM   27  C42   D T2000     -13.228   0.305 -14.795  1.00 84.17     0.037 C 
ENDBRANCH  25  26
BRANCH  25  28
HETATM   28  C40   D T2000     -10.576  -1.246 -14.072  1.00 83.04     0.250 C 
HETATM   29  C41   D T2000      -9.366  -2.127 -13.627  1.00 82.57     0.037 C 
ENDBRANCH  25  28
ENDBRANCH  24  25
ENDBRANCH  23  24
ENDBRANCH  21  23
ENDBRANCH   6  20
TORSDOF 7
ENDMDL
