MODEL 1
REMARK VINA RESULT:    -8.460      0.000      0.000
REMARK INTER + INTRA:         -12.832
REMARK INTER:                 -11.922
REMARK INTRA:                  -0.910
REMARK UNBOUND:                -0.910
REMARK  7 active torsions:
REMARK  status: ('A' for Active; 'I' for Inactive)
REMARK    1  A    between atoms: C22_10  and  C19_16 
REMARK       I    between atoms: C22_10  and  N25_19 
REMARK    2  A    between atoms: C12_12  and  C18_15 
REMARK    3  A    between atoms: N25_19  and  C37_23 
REMARK    4  A    between atoms: C37_23  and  C38_24 
REMARK    5  A    between atoms: C38_24  and  N4_25 
REMARK    6  A    between atoms: N4_25  and  C39_26 
REMARK    7  A    between atoms: N4_25  and  C40_27 
ROOT
HETATM    1  C4    D T2000      -0.853  -4.037 -11.635  1.00 48.44     0.052 C 
HETATM    2  C13   D T2000       0.137  -1.151 -13.929  1.00 48.75     0.002 A 
HETATM    3  C3    D T2000       0.906  -0.123 -14.839  1.00 43.40     0.033 C 
HETATM    4  C14   D T2000      -0.588  -2.835 -12.557  1.00 49.83     0.064 A 
HETATM    5  C18   D T2000      -1.248  -1.054 -13.681  1.00 45.93     0.077 A 
HETATM    6  C19   D T2000       0.587  -2.345 -13.181  1.00 51.55     0.069 A 
HETATM    7  N23   D T2000      -1.615  -2.057 -12.876  1.00 47.90    -0.250 NA
ENDROOT
BRANCH   5   8
HETATM    8  C12   D T2000      -2.140  -0.014 -14.236  1.00 43.39     0.024 C 
HETATM    9  C20   D T2000      -2.205   1.388 -14.004  1.00 43.86     0.061 A 
HETATM   10  C17   D T2000      -3.180   2.406 -14.578  1.00 43.90     0.025 A 
HETATM   11  C21   D T2000      -1.372   2.275 -13.155  1.00 40.96     0.279 A 
HETATM   12  C7    D T2000      -4.290   2.260 -15.499  1.00 45.29     0.031 A 
HETATM   13  C16   D T2000      -2.846   3.657 -14.045  1.00 41.24     0.085 A 
HETATM   14  C15   D T2000      -5.022   3.401 -15.846  1.00 46.91     0.140 A 
HETATM   15  C5    D T2000      -4.656   4.659 -15.283  1.00 46.93     0.031 A 
HETATM   16  F29   D T2000      -6.055   3.358 -16.692  1.00 48.65    -0.204 F 
HETATM   17  C6    D T2000      -3.570   4.804 -14.379  1.00 43.16     0.021 A 
HETATM   18  N24   D T2000      -1.785   3.565 -13.216  1.00 38.68    -0.208 NA
HETATM   19  O27   D T2000      -0.442   1.908 -12.489  1.00 39.38    -0.265 OA
ENDBRANCH   5   8
BRANCH   6  20
HETATM   20  C22   D T2000       1.964  -2.984 -13.046  1.00 57.19     0.276 C 
HETATM   21  N25   D T2000       2.998  -2.292 -12.518  1.00 64.68    -0.232 NA
HETATM   22  O28   D T2000       2.243  -4.140 -13.388  1.00 55.46    -0.266 OA
BRANCH  21  23
HETATM   23  C37   D T2000       4.334  -2.885 -12.365  1.00 72.35     0.164 C 
BRANCH  23  24
HETATM   24  C38   D T2000       5.541  -2.390 -13.217  1.00 75.73     0.276 C 
BRANCH  24  25
HETATM   25  N4    D T2000       6.156  -1.215 -12.492  1.00 81.36     0.139 N 
BRANCH  25  26
HETATM   26  C39   D T2000       5.384   0.043 -12.891  1.00 83.55     0.250 C 
HETATM   27  C42   D T2000       4.685   0.248 -14.297  1.00 84.17     0.037 C 
ENDBRANCH  25  26
BRANCH  25  28
HETATM   28  C40   D T2000       7.704  -1.151 -12.713  1.00 83.04     0.250 C 
HETATM   29  C41   D T2000       8.354  -1.182 -14.131  1.00 82.57     0.037 C 
ENDBRANCH  25  28
ENDBRANCH  24  25
ENDBRANCH  23  24
ENDBRANCH  21  23
ENDBRANCH   6  20
TORSDOF 7
ENDMDL
MODEL 2
REMARK VINA RESULT:    -8.245      3.593     10.020
REMARK INTER + INTRA:         -12.528
REMARK INTER:                 -11.751
REMARK INTRA:                  -0.778
REMARK UNBOUND:                -0.910
REMARK  7 active torsions:
REMARK  status: ('A' for Active; 'I' for Inactive)
REMARK    1  A    between atoms: C22_10  and  C19_16 
REMARK       I    between atoms: C22_10  and  N25_19 
REMARK    2  A    between atoms: C12_12  and  C18_15 
REMARK    3  A    between atoms: N25_19  and  C37_23 
REMARK    4  A    between atoms: C37_23  and  C38_24 
REMARK    5  A    between atoms: C38_24  and  N4_25 
REMARK    6  A    between atoms: N4_25  and  C39_26 
REMARK    7  A    between atoms: N4_25  and  C40_27 
ROOT
HETATM    1  C4    D T2000      -4.346   2.478 -16.578  1.00 48.44     0.052 C 
HETATM    2  C13   D T2000      -1.774   2.462 -13.757  1.00 48.75     0.002 A 
HETATM    3  C3    D T2000      -0.738   2.849 -12.638  1.00 43.40     0.033 C 
HETATM    4  C14   D T2000      -3.317   2.332 -15.444  1.00 49.83     0.064 A 
HETATM    5  C18   D T2000      -2.094   1.122 -14.060  1.00 45.93     0.077 A 
HETATM    6  C19   D T2000      -2.593   3.280 -14.679  1.00 51.55     0.069 A 
HETATM    7  N23   D T2000      -2.995   1.107 -15.050  1.00 47.90    -0.250 NA
ENDROOT
BRANCH   5   8
HETATM    8  C12   D T2000      -1.529  -0.061 -13.381  1.00 43.39     0.024 C 
HETATM    9  C20   D T2000      -0.221  -0.620 -13.402  1.00 43.86     0.061 A 
HETATM   10  C17   D T2000       0.293  -1.874 -12.708  1.00 43.90     0.025 A 
HETATM   11  C21   D T2000       1.019  -0.174 -14.085  1.00 40.96     0.279 A 
HETATM   12  C7    D T2000      -0.369  -2.837 -11.851  1.00 45.29     0.031 A 
HETATM   13  C16   D T2000       1.646  -2.014 -13.039  1.00 41.24     0.085 A 
HETATM   14  C15   D T2000       0.378  -3.912 -11.357  1.00 46.91     0.140 A 
HETATM   15  C5    D T2000       1.753  -4.026 -11.715  1.00 46.93     0.031 A 
HETATM   16  F29   D T2000      -0.151  -4.841 -10.555  1.00 48.65    -0.204 F 
HETATM   17  C6    D T2000       2.403  -3.085 -12.557  1.00 43.16     0.021 A 
HETATM   18  N24   D T2000       2.058  -1.011 -13.843  1.00 38.68    -0.208 NA
HETATM   19  O27   D T2000       1.105   0.807 -14.773  1.00 39.38    -0.265 OA
ENDBRANCH   5   8
BRANCH   6  20
HETATM   20  C22   D T2000      -2.705   4.791 -14.848  1.00 57.19     0.276 C 
HETATM   21  N25   D T2000      -3.880   5.424 -14.632  1.00 64.68    -0.232 NA
HETATM   22  O28   D T2000      -1.775   5.536 -15.177  1.00 55.46    -0.266 OA
BRANCH  21  23
HETATM   23  C37   D T2000      -4.017   6.880 -14.776  1.00 72.35     0.164 C 
BRANCH  23  24
HETATM   24  C38   D T2000      -4.888   7.503 -15.908  1.00 75.73     0.276 C 
BRANCH  24  25
HETATM   25  N4    D T2000      -5.784   8.541 -15.272  1.00 81.36     0.139 N 
BRANCH  25  26
HETATM   26  C39   D T2000      -7.234   8.159 -15.570  1.00 83.55     0.250 C 
HETATM   27  C42   D T2000      -7.662   6.971 -16.526  1.00 84.17     0.037 C 
ENDBRANCH  25  26
BRANCH  25  28
HETATM   28  C40   D T2000      -5.371   9.990 -15.693  1.00 83.04     0.250 C 
HETATM   29  C41   D T2000      -5.012  11.099 -14.656  1.00 82.57     0.037 C 
ENDBRANCH  25  28
ENDBRANCH  24  25
ENDBRANCH  23  24
ENDBRANCH  21  23
ENDBRANCH   6  20
TORSDOF 7
ENDMDL
MODEL 3
REMARK VINA RESULT:    -7.779      1.864      2.250
REMARK INTER + INTRA:         -11.872
REMARK INTER:                 -11.317
REMARK INTRA:                  -0.555
REMARK UNBOUND:                -0.910
REMARK  7 active torsions:
REMARK  status: ('A' for Active; 'I' for Inactive)
REMARK    1  A    between atoms: C22_10  and  C19_16 
REMARK       I    between atoms: C22_10  and  N25_19 
REMARK    2  A    between atoms: C12_12  and  C18_15 
REMARK    3  A    between atoms: N25_19  and  C37_23 
REMARK    4  A    between atoms: C37_23  and  C38_24 
REMARK    5  A    between atoms: C38_24  and  N4_25 
REMARK    6  A    between atoms: N4_25  and  C39_26 
REMARK    7  A    between atoms: N4_25  and  C40_27 
ROOT
HETATM    1  C4    D T2000       0.513  -3.756 -11.445  1.00 48.44     0.052 C 
HETATM    2  C13   D T2000       1.628  -0.554 -13.198  1.00 48.75     0.002 A 
HETATM    3  C3    D T2000       2.442   0.589 -13.909  1.00 43.40     0.033 C 
HETATM    4  C14   D T2000       0.829  -2.424 -12.143  1.00 49.83     0.064 A 
HETATM    5  C18   D T2000       0.242  -0.455 -12.952  1.00 45.93     0.077 A 
HETATM    6  C19   D T2000       2.028  -1.873 -12.661  1.00 51.55     0.069 A 
HETATM    7  N23   D T2000      -0.168  -1.569 -12.335  1.00 47.90    -0.250 NA
ENDROOT
BRANCH   5   8
HETATM    8  C12   D T2000      -0.608   0.693 -13.328  1.00 43.39     0.024 C 
HETATM    9  C20   D T2000      -1.919   0.751 -13.876  1.00 43.86     0.061 A 
HETATM   10  C17   D T2000      -2.731   1.973 -14.284  1.00 43.90     0.025 A 
HETATM   11  C21   D T2000      -2.882  -0.326 -14.215  1.00 40.96     0.279 A 
HETATM   12  C7    D T2000      -2.425   3.389 -14.237  1.00 45.29     0.031 A 
HETATM   13  C16   D T2000      -3.959   1.518 -14.778  1.00 41.24     0.085 A 
HETATM   14  C15   D T2000      -3.388   4.294 -14.696  1.00 46.91     0.140 A 
HETATM   15  C5    D T2000      -4.627   3.796 -15.195  1.00 46.93     0.031 A 
HETATM   16  F29   D T2000      -3.191   5.616 -14.682  1.00 48.65    -0.204 F 
HETATM   17  C6    D T2000      -4.929   2.408 -15.244  1.00 43.16     0.021 A 
HETATM   18  N24   D T2000      -4.034   0.170 -14.729  1.00 38.68    -0.208 NA
HETATM   19  O27   D T2000      -2.678  -1.500 -14.059  1.00 39.38    -0.265 OA
ENDBRANCH   5   8
BRANCH   6  20
HETATM   20  C22   D T2000       3.383  -2.571 -12.624  1.00 57.19     0.276 C 
HETATM   21  N25   D T2000       4.526  -1.855 -12.525  1.00 64.68    -0.232 NA
HETATM   22  O28   D T2000       3.548  -3.795 -12.673  1.00 55.46    -0.266 OA
BRANCH  21  23
HETATM   23  C37   D T2000       5.846  -2.501 -12.477  1.00 72.35     0.164 C 
BRANCH  23  24
HETATM   24  C38   D T2000       7.077  -1.881 -13.203  1.00 75.73     0.276 C 
BRANCH  24  25
HETATM   25  N4    D T2000       6.855  -0.388 -13.279  1.00 81.36     0.139 N 
BRANCH  25  26
HETATM   26  C39   D T2000       6.854   0.015 -14.753  1.00 83.55     0.250 C 
HETATM   27  C42   D T2000       5.542   0.252 -15.609  1.00 84.17     0.037 C 
ENDBRANCH  25  26
BRANCH  25  28
HETATM   28  C40   D T2000       7.866   0.388 -12.371  1.00 83.04     0.250 C 
HETATM   29  C41   D T2000       9.378   0.532 -12.726  1.00 82.57     0.037 C 
ENDBRANCH  25  28
ENDBRANCH  24  25
ENDBRANCH  23  24
ENDBRANCH  21  23
ENDBRANCH   6  20
TORSDOF 7
ENDMDL
MODEL 4
REMARK VINA RESULT:    -7.763      2.214      3.861
REMARK INTER + INTRA:         -11.849
REMARK INTER:                 -11.116
REMARK INTRA:                  -0.733
REMARK UNBOUND:                -0.910
REMARK  7 active torsions:
REMARK  status: ('A' for Active; 'I' for Inactive)
REMARK    1  A    between atoms: C22_10  and  C19_16 
REMARK       I    between atoms: C22_10  and  N25_19 
REMARK    2  A    between atoms: C12_12  and  C18_15 
REMARK    3  A    between atoms: N25_19  and  C37_23 
REMARK    4  A    between atoms: C37_23  and  C38_24 
REMARK    5  A    between atoms: C38_24  and  N4_25 
REMARK    6  A    between atoms: N4_25  and  C39_26 
REMARK    7  A    between atoms: N4_25  and  C40_27 
ROOT
HETATM    1  C4    D T2000       3.528  -3.877 -11.665  1.00 48.44     0.052 C 
HETATM    2  C13   D T2000       3.210  -0.454 -13.324  1.00 48.75     0.002 A 
HETATM    3  C3    D T2000       3.469   0.913 -14.058  1.00 43.40     0.033 C 
HETATM    4  C14   D T2000       3.263  -2.504 -12.304  1.00 49.83     0.064 A 
HETATM    5  C18   D T2000       1.927  -0.845 -12.885  1.00 45.93     0.077 A 
HETATM    6  C19   D T2000       4.111  -1.563 -12.942  1.00 51.55     0.069 A 
HETATM    7  N23   D T2000       2.019  -2.044 -12.298  1.00 47.90    -0.250 NA
ENDROOT
BRANCH   5   8
HETATM    8  C12   D T2000       0.691  -0.055 -13.060  1.00 43.39     0.024 C 
HETATM    9  C20   D T2000      -0.636  -0.448 -13.389  1.00 43.86     0.061 A 
HETATM   10  C17   D T2000      -1.866   0.424 -13.597  1.00 43.90     0.025 A 
HETATM   11  C21   D T2000      -1.224  -1.789 -13.628  1.00 40.96     0.279 A 
HETATM   12  C7    D T2000      -2.049   1.860 -13.524  1.00 45.29     0.031 A 
HETATM   13  C16   D T2000      -2.935  -0.423 -13.914  1.00 41.24     0.085 A 
HETATM   14  C15   D T2000      -3.322   2.383 -13.775  1.00 46.91     0.140 A 
HETATM   15  C5    D T2000      -4.388   1.493 -14.097  1.00 46.93     0.031 A 
HETATM   16  F29   D T2000      -3.581   3.693 -13.722  1.00 48.65    -0.204 F 
HETATM   17  C6    D T2000      -4.210   0.084 -14.171  1.00 43.16     0.021 A 
HETATM   18  N24   D T2000      -2.545  -1.715 -13.926  1.00 38.68    -0.208 NA
HETATM   19  O27   D T2000      -0.615  -2.823 -13.569  1.00 39.38    -0.265 OA
ENDBRANCH   5   8
BRANCH   6  20
HETATM   20  C22   D T2000       5.610  -1.750 -13.139  1.00 57.19     0.276 C 
HETATM   21  N25   D T2000       6.497  -1.014 -12.431  1.00 64.68    -0.232 NA
HETATM   22  O28   D T2000       6.125  -2.556 -13.923  1.00 55.46    -0.266 OA
BRANCH  21  23
HETATM   23  C37   D T2000       7.949  -1.180 -12.593  1.00 72.35     0.164 C 
BRANCH  23  24
HETATM   24  C38   D T2000       8.765  -0.267 -13.556  1.00 75.73     0.276 C 
BRANCH  24  25
HETATM   25  N4    D T2000       9.138   0.982 -12.792  1.00 81.36     0.139 N 
BRANCH  25  26
HETATM   26  C39   D T2000       9.188   0.628 -11.306  1.00 83.55     0.250 C 
HETATM   27  C42   D T2000       8.674   1.579 -10.148  1.00 84.17     0.037 C 
ENDBRANCH  25  26
BRANCH  25  28
HETATM   28  C40   D T2000       8.206   2.182 -13.166  1.00 83.04     0.250 C 
HETATM   29  C41   D T2000       7.010   2.043 -14.157  1.00 82.57     0.037 C 
ENDBRANCH  25  28
ENDBRANCH  24  25
ENDBRANCH  23  24
ENDBRANCH  21  23
ENDBRANCH   6  20
TORSDOF 7
ENDMDL
MODEL 5
REMARK VINA RESULT:    -7.589      1.974      2.979
REMARK INTER + INTRA:         -11.604
REMARK INTER:                 -10.649
REMARK INTRA:                  -0.955
REMARK UNBOUND:                -0.910
REMARK  7 active torsions:
REMARK  status: ('A' for Active; 'I' for Inactive)
REMARK    1  A    between atoms: C22_10  and  C19_16 
REMARK       I    between atoms: C22_10  and  N25_19 
REMARK    2  A    between atoms: C12_12  and  C18_15 
REMARK    3  A    between atoms: N25_19  and  C37_23 
REMARK    4  A    between atoms: C37_23  and  C38_24 
REMARK    5  A    between atoms: C38_24  and  N4_25 
REMARK    6  A    between atoms: N4_25  and  C39_26 
REMARK    7  A    between atoms: N4_25  and  C40_27 
ROOT
HETATM    1  C4    D T2000       2.726  -3.903 -11.744  1.00 48.44     0.052 C 
HETATM    2  C13   D T2000       2.869  -0.603 -13.657  1.00 48.75     0.002 A 
HETATM    3  C3    D T2000       3.318   0.715 -14.389  1.00 43.40     0.033 C 
HETATM    4  C14   D T2000       2.644  -2.580 -12.522  1.00 49.83     0.064 A 
HETATM    5  C18   D T2000       1.515  -0.982 -13.544  1.00 45.93     0.077 A 
HETATM    6  C19   D T2000       3.634  -1.672 -12.977  1.00 51.55     0.069 A 
HETATM    7  N23   D T2000       1.444  -2.138 -12.874  1.00 47.90    -0.250 NA
ENDROOT
BRANCH   5   8
HETATM    8  C12   D T2000       0.372  -0.223 -14.091  1.00 43.39     0.024 C 
HETATM    9  C20   D T2000      -0.274   0.960 -13.635  1.00 43.86     0.061 A 
HETATM   10  C17   D T2000      -1.482   1.676 -14.224  1.00 43.90     0.025 A 
HETATM   11  C21   D T2000       0.014   1.844 -12.479  1.00 40.96     0.279 A 
HETATM   12  C7    D T2000      -2.304   1.381 -15.381  1.00 45.29     0.031 A 
HETATM   13  C16   D T2000      -1.747   2.789 -13.417  1.00 41.24     0.085 A 
HETATM   14  C15   D T2000      -3.371   2.236 -15.675  1.00 46.91     0.140 A 
HETATM   15  C5    D T2000      -3.615   3.359 -14.831  1.00 46.93     0.031 A 
HETATM   16  F29   D T2000      -4.174   2.042 -16.725  1.00 48.65    -0.204 F 
HETATM   17  C6    D T2000      -2.811   3.649 -13.696  1.00 43.16     0.021 A 
HETATM   18  N24   D T2000      -0.862   2.875 -12.401  1.00 38.68    -0.208 NA
HETATM   19  O27   D T2000       0.911   1.676 -11.697  1.00 39.38    -0.265 OA
ENDBRANCH   5   8
BRANCH   6  20
HETATM   20  C22   D T2000       5.132  -1.851 -12.761  1.00 57.19     0.276 C 
HETATM   21  N25   D T2000       5.943  -0.778 -12.628  1.00 64.68    -0.232 NA
HETATM   22  O28   D T2000       5.709  -2.941 -12.686  1.00 55.46    -0.266 OA
BRANCH  21  23
HETATM   23  C37   D T2000       7.390  -0.919 -12.408  1.00 72.35     0.164 C 
BRANCH  23  24
HETATM   24  C38   D T2000       8.422  -0.244 -13.359  1.00 75.73     0.276 C 
BRANCH  24  25
HETATM   25  N4    D T2000       8.977   0.965 -12.642  1.00 81.36     0.139 N 
BRANCH  25  26
HETATM   26  C39   D T2000       8.822   0.735 -11.139  1.00 83.55     0.250 C 
HETATM   27  C42   D T2000       8.251   1.813 -10.129  1.00 84.17     0.037 C 
ENDBRANCH  25  26
BRANCH  25  28
HETATM   28  C40   D T2000       8.351   2.292 -13.186  1.00 83.04     0.250 C 
HETATM   29  C41   D T2000       7.007   2.326 -13.978  1.00 82.57     0.037 C 
ENDBRANCH  25  28
ENDBRANCH  24  25
ENDBRANCH  23  24
ENDBRANCH  21  23
ENDBRANCH   6  20
TORSDOF 7
ENDMDL
MODEL 6
REMARK VINA RESULT:    -7.459      2.986      4.942
REMARK INTER + INTRA:         -11.421
REMARK INTER:                 -10.632
REMARK INTRA:                  -0.788
REMARK UNBOUND:                -0.910
REMARK  7 active torsions:
REMARK  status: ('A' for Active; 'I' for Inactive)
REMARK    1  A    between atoms: C22_10  and  C19_16 
REMARK       I    between atoms: C22_10  and  N25_19 
REMARK    2  A    between atoms: C12_12  and  C18_15 
REMARK    3  A    between atoms: N25_19  and  C37_23 
REMARK    4  A    between atoms: C37_23  and  C38_24 
REMARK    5  A    between atoms: C38_24  and  N4_25 
REMARK    6  A    between atoms: N4_25  and  C39_26 
REMARK    7  A    between atoms: N4_25  and  C40_27 
ROOT
HETATM    1  C4    D T2000       5.672   1.568 -15.034  1.00 48.44     0.052 C 
HETATM    2  C13   D T2000       3.593  -0.895 -12.988  1.00 48.75     0.002 A 
HETATM    3  C3    D T2000       3.087  -1.993 -11.981  1.00 43.40     0.033 C 
HETATM    4  C14   D T2000       4.723   0.621 -14.281  1.00 49.83     0.064 A 
HETATM    5  C18   D T2000       2.724  -0.224 -13.875  1.00 45.93     0.077 A 
HETATM    6  C19   D T2000       4.935  -0.331 -13.252  1.00 51.55     0.069 A 
HETATM    7  N23   D T2000       3.436   0.643 -14.603  1.00 47.90    -0.250 NA
ENDROOT
BRANCH   5   8
HETATM    8  C12   D T2000       1.267  -0.446 -13.967  1.00 43.39     0.024 C 
HETATM    9  C20   D T2000       0.168   0.440 -13.788  1.00 43.86     0.061 A 
HETATM   10  C17   D T2000      -1.322   0.139 -13.856  1.00 43.90     0.025 A 
HETATM   11  C21   D T2000       0.127   1.892 -13.486  1.00 40.96     0.279 A 
HETATM   12  C7    D T2000      -2.043  -1.091 -14.115  1.00 45.29     0.031 A 
HETATM   13  C16   D T2000      -2.006   1.334 -13.601  1.00 41.24     0.085 A 
HETATM   14  C15   D T2000      -3.442  -1.058 -14.108  1.00 46.91     0.140 A 
HETATM   15  C5    D T2000      -4.106   0.175 -13.842  1.00 46.93     0.031 A 
HETATM   16  F29   D T2000      -4.185  -2.143 -14.343  1.00 48.65    -0.204 F 
HETATM   17  C6    D T2000      -3.401   1.383 -13.586  1.00 43.16     0.021 A 
HETATM   18  N24   D T2000      -1.144   2.352 -13.389  1.00 38.68    -0.208 NA
HETATM   19  O27   D T2000       1.096   2.588 -13.341  1.00 39.38    -0.265 OA
ENDBRANCH   5   8
BRANCH   6  20
HETATM   20  C22   D T2000       6.290  -0.631 -12.623  1.00 57.19     0.276 C 
HETATM   21  N25   D T2000       7.048   0.362 -12.107  1.00 64.68    -0.232 NA
HETATM   22  O28   D T2000       6.791  -1.758 -12.528  1.00 55.46    -0.266 OA
BRANCH  21  23
HETATM   23  C37   D T2000       8.354   0.102 -11.484  1.00 72.35     0.164 C 
BRANCH  23  24
HETATM   24  C38   D T2000       9.508   1.145 -11.559  1.00 75.73     0.276 C 
BRANCH  24  25
HETATM   25  N4    D T2000       9.695   1.716 -10.173  1.00 81.36     0.139 N 
BRANCH  25  26
HETATM   26  C39   D T2000       9.167   0.694  -9.166  1.00 83.55     0.250 C 
HETATM   27  C42   D T2000      10.065  -0.031  -8.082  1.00 84.17     0.037 C 
ENDBRANCH  25  26
BRANCH  25  28
HETATM   28  C40   D T2000       9.082   3.151 -10.057  1.00 83.04     0.250 C 
HETATM   29  C41   D T2000       8.164   3.766 -11.158  1.00 82.57     0.037 C 
ENDBRANCH  25  28
ENDBRANCH  24  25
ENDBRANCH  23  24
ENDBRANCH  21  23
ENDBRANCH   6  20
TORSDOF 7
ENDMDL
MODEL 7
REMARK VINA RESULT:    -7.247      2.566      4.530
REMARK INTER + INTRA:         -11.123
REMARK INTER:                  -9.933
REMARK INTRA:                  -1.190
REMARK UNBOUND:                -0.910
REMARK  7 active torsions:
REMARK  status: ('A' for Active; 'I' for Inactive)
REMARK    1  A    between atoms: C22_10  and  C19_16 
REMARK       I    between atoms: C22_10  and  N25_19 
REMARK    2  A    between atoms: C12_12  and  C18_15 
REMARK    3  A    between atoms: N25_19  and  C37_23 
REMARK    4  A    between atoms: C37_23  and  C38_24 
REMARK    5  A    between atoms: C38_24  and  N4_25 
REMARK    6  A    between atoms: N4_25  and  C39_26 
REMARK    7  A    between atoms: N4_25  and  C40_27 
ROOT
HETATM    1  C4    D T2000       4.525   4.014 -10.734  1.00 48.44     0.052 C 
HETATM    2  C13   D T2000       3.351   1.565 -13.416  1.00 48.75     0.002 A 
HETATM    3  C3    D T2000       3.241   0.426 -14.496  1.00 43.40     0.033 C 
HETATM    4  C14   D T2000       3.927   3.089 -11.807  1.00 49.83     0.064 A 
HETATM    5  C18   D T2000       2.263   2.398 -13.082  1.00 45.93     0.077 A 
HETATM    6  C19   D T2000       4.470   2.020 -12.562  1.00 51.55     0.069 A 
HETATM    7  N23   D T2000       2.656   3.266 -12.143  1.00 47.90    -0.250 NA
ENDROOT
BRANCH   5   8
HETATM    8  C12   D T2000       0.912   2.309 -13.673  1.00 43.39     0.024 C 
HETATM    9  C20   D T2000      -0.115   1.335 -13.528  1.00 43.86     0.061 A 
HETATM   10  C17   D T2000      -1.479   1.277 -14.201  1.00 43.90     0.025 A 
HETATM   11  C21   D T2000      -0.179   0.103 -12.703  1.00 40.96     0.279 A 
HETATM   12  C7    D T2000      -2.119   2.164 -15.152  1.00 45.29     0.031 A 
HETATM   13  C16   D T2000      -2.126   0.123 -13.744  1.00 41.24     0.085 A 
HETATM   14  C15   D T2000      -3.402   1.841 -15.605  1.00 46.91     0.140 A 
HETATM   15  C5    D T2000      -4.032   0.656 -15.122  1.00 46.93     0.031 A 
HETATM   16  F29   D T2000      -4.067   2.605 -16.476  1.00 48.65    -0.204 F 
HETATM   17  C6    D T2000      -3.405  -0.216 -14.190  1.00 43.16     0.021 A 
HETATM   18  N24   D T2000      -1.354  -0.553 -12.866  1.00 38.68    -0.208 NA
HETATM   19  O27   D T2000       0.697  -0.278 -11.974  1.00 39.38    -0.265 OA
ENDBRANCH   5   8
BRANCH   6  20
HETATM   20  C22   D T2000       5.907   1.525 -12.444  1.00 57.19     0.276 C 
HETATM   21  N25   D T2000       6.602   1.154 -13.543  1.00 64.68    -0.232 NA
HETATM   22  O28   D T2000       6.536   1.427 -11.384  1.00 55.46    -0.266 OA
BRANCH  21  23
HETATM   23  C37   D T2000       7.992   0.683 -13.462  1.00 72.35     0.164 C 
BRANCH  23  24
HETATM   24  C38   D T2000       8.329  -0.837 -13.417  1.00 75.73     0.276 C 
BRANCH  24  25
HETATM   25  N4    D T2000       7.116  -1.586 -13.916  1.00 81.36     0.139 N 
BRANCH  25  26
HETATM   26  C39   D T2000       6.396  -2.181 -12.706  1.00 83.55     0.250 C 
HETATM   27  C42   D T2000       4.826  -2.358 -12.604  1.00 84.17     0.037 C 
ENDBRANCH  25  26
BRANCH  25  28
HETATM   28  C40   D T2000       7.495  -2.607 -15.040  1.00 83.04     0.250 C 
HETATM   29  C41   D T2000       6.427  -3.430 -15.825  1.00 82.57     0.037 C 
ENDBRANCH  25  28
ENDBRANCH  24  25
ENDBRANCH  23  24
ENDBRANCH  21  23
ENDBRANCH   6  20
TORSDOF 7
ENDMDL
MODEL 8
REMARK VINA RESULT:    -7.176      3.160      5.370
REMARK INTER + INTRA:         -11.022
REMARK INTER:                 -10.014
REMARK INTRA:                  -1.008
REMARK UNBOUND:                -0.910
REMARK  7 active torsions:
REMARK  status: ('A' for Active; 'I' for Inactive)
REMARK    1  A    between atoms: C22_10  and  C19_16 
REMARK       I    between atoms: C22_10  and  N25_19 
REMARK    2  A    between atoms: C12_12  and  C18_15 
REMARK    3  A    between atoms: N25_19  and  C37_23 
REMARK    4  A    between atoms: C37_23  and  C38_24 
REMARK    5  A    between atoms: C38_24  and  N4_25 
REMARK    6  A    between atoms: N4_25  and  C39_26 
REMARK    7  A    between atoms: N4_25  and  C40_27 
ROOT
HETATM    1  C4    D T2000       6.054   0.071 -15.273  1.00 48.44     0.052 C 
HETATM    2  C13   D T2000       3.448   0.787 -12.576  1.00 48.75     0.002 A 
HETATM    3  C3    D T2000       2.695   1.111 -11.234  1.00 43.40     0.033 C 
HETATM    4  C14   D T2000       4.907   0.344 -14.286  1.00 49.83     0.064 A 
HETATM    5  C18   D T2000       2.767   0.569 -13.792  1.00 45.93     0.077 A 
HETATM    6  C19   D T2000       4.885   0.642 -12.900  1.00 51.55     0.069 A 
HETATM    7  N23   D T2000       3.665   0.314 -14.751  1.00 47.90    -0.250 NA
ENDROOT
BRANCH   5   8
HETATM    8  C12   D T2000       1.301   0.625 -13.967  1.00 43.39     0.024 C 
HETATM    9  C20   D T2000       0.300  -0.376 -13.834  1.00 43.86     0.061 A 
HETATM   10  C17   D T2000      -1.200  -0.265 -14.069  1.00 43.90     0.025 A 
HETATM   11  C21   D T2000       0.395  -1.803 -13.436  1.00 40.96     0.279 A 
HETATM   12  C7    D T2000      -2.027   0.852 -14.481  1.00 45.29     0.031 A 
HETATM   13  C16   D T2000      -1.761  -1.522 -13.816  1.00 41.24     0.085 A 
HETATM   14  C15   D T2000      -3.404   0.645 -14.620  1.00 46.91     0.140 A 
HETATM   15  C5    D T2000      -3.942  -0.648 -14.357  1.00 46.93     0.031 A 
HETATM   16  F29   D T2000      -4.240   1.620 -14.990  1.00 48.65    -0.204 F 
HETATM   17  C6    D T2000      -3.133  -1.745 -13.954  1.00 43.16     0.021 A 
HETATM   18  N24   D T2000      -0.816  -2.412 -13.444  1.00 38.68    -0.208 NA
HETATM   19  O27   D T2000       1.417  -2.364 -13.142  1.00 39.38    -0.265 OA
ENDBRANCH   5   8
BRANCH   6  20
HETATM   20  C22   D T2000       6.127   0.763 -12.025  1.00 57.19     0.276 C 
HETATM   21  N25   D T2000       6.223   1.739 -11.093  1.00 64.68    -0.232 NA
HETATM   22  O28   D T2000       7.107   0.012 -12.083  1.00 55.46    -0.266 OA
BRANCH  21  23
HETATM   23  C37   D T2000       7.403   1.874 -10.228  1.00 72.35     0.164 C 
BRANCH  23  24
HETATM   24  C38   D T2000       8.343   3.112 -10.330  1.00 75.73     0.276 C 
BRANCH  24  25
HETATM   25  N4    D T2000       8.893   3.150 -11.737  1.00 81.36     0.139 N 
BRANCH  25  26
HETATM   26  C39   D T2000      10.248   2.443 -11.734  1.00 83.55     0.250 C 
HETATM   27  C42   D T2000      10.523   1.047 -12.430  1.00 84.17     0.037 C 
ENDBRANCH  25  26
BRANCH  25  28
HETATM   28  C40   D T2000       8.897   4.606 -12.312  1.00 83.04     0.250 C 
HETATM   29  C41   D T2000       9.317   4.931 -13.779  1.00 82.57     0.037 C 
ENDBRANCH  25  28
ENDBRANCH  24  25
ENDBRANCH  23  24
ENDBRANCH  21  23
ENDBRANCH   6  20
TORSDOF 7
ENDMDL
MODEL 9
REMARK VINA RESULT:    -7.173      2.606      3.730
REMARK INTER + INTRA:         -11.019
REMARK INTER:                 -10.029
REMARK INTRA:                  -0.990
REMARK UNBOUND:                -0.910
REMARK  7 active torsions:
REMARK  status: ('A' for Active; 'I' for Inactive)
REMARK    1  A    between atoms: C22_10  and  C19_16 
REMARK       I    between atoms: C22_10  and  N25_19 
REMARK    2  A    between atoms: C12_12  and  C18_15 
REMARK    3  A    between atoms: N25_19  and  C37_23 
REMARK    4  A    between atoms: C37_23  and  C38_24 
REMARK    5  A    between atoms: C38_24  and  N4_25 
REMARK    6  A    between atoms: N4_25  and  C39_26 
REMARK    7  A    between atoms: N4_25  and  C40_27 
ROOT
HETATM    1  C4    D T2000       2.619  -0.090 -10.296  1.00 48.44     0.052 C 
HETATM    2  C13   D T2000       2.314   2.730 -12.850  1.00 48.75     0.002 A 
HETATM    3  C3    D T2000       2.585   3.885 -13.884  1.00 43.40     0.033 C 
HETATM    4  C14   D T2000       2.358   1.031 -11.314  1.00 49.83     0.064 A 
HETATM    5  C18   D T2000       1.011   2.314 -12.504  1.00 45.93     0.077 A 
HETATM    6  C19   D T2000       3.223   1.872 -12.059  1.00 51.55     0.069 A 
HETATM    7  N23   D T2000       1.097   1.326 -11.607  1.00 47.90    -0.250 NA
ENDROOT
BRANCH   5   8
HETATM    8  C12   D T2000      -0.236   2.880 -13.058  1.00 43.39     0.024 C 
HETATM    9  C20   D T2000      -1.343   2.261 -13.703  1.00 43.86     0.061 A 
HETATM   10  C17   D T2000      -2.588   2.907 -14.292  1.00 43.90     0.025 A 
HETATM   11  C21   D T2000      -1.626   0.834 -13.997  1.00 40.96     0.279 A 
HETATM   12  C7    D T2000      -3.006   4.293 -14.369  1.00 45.29     0.031 A 
HETATM   13  C16   D T2000      -3.383   1.884 -14.824  1.00 41.24     0.085 A 
HETATM   14  C15   D T2000      -4.226   4.587 -14.988  1.00 46.91     0.140 A 
HETATM   15  C5    D T2000      -5.009   3.522 -15.521  1.00 46.93     0.031 A 
HETATM   16  F29   D T2000      -4.691   5.835 -15.097  1.00 48.65    -0.204 F 
HETATM   17  C6    D T2000      -4.601   2.162 -15.449  1.00 43.16     0.021 A 
HETATM   18  N24   D T2000      -2.807   0.676 -14.642  1.00 38.68    -0.208 NA
HETATM   19  O27   D T2000      -0.903  -0.081 -13.706  1.00 39.38    -0.265 OA
ENDBRANCH   5   8
BRANCH   6  20
HETATM   20  C22   D T2000       4.745   1.821 -11.987  1.00 57.19     0.276 C 
HETATM   21  N25   D T2000       5.485   1.665 -13.108  1.00 64.68    -0.232 NA
HETATM   22  O28   D T2000       5.406   1.919 -10.947  1.00 55.46    -0.266 OA
BRANCH  21  23
HETATM   23  C37   D T2000       6.953   1.623 -13.071  1.00 72.35     0.164 C 
BRANCH  23  24
HETATM   24  C38   D T2000       7.729   0.284 -13.252  1.00 75.73     0.276 C 
BRANCH  24  25
HETATM   25  N4    D T2000       6.750  -0.740 -13.777  1.00 81.36     0.139 N 
BRANCH  25  26
HETATM   26  C39   D T2000       6.281  -1.593 -12.598  1.00 83.55     0.250 C 
HETATM   27  C42   D T2000       4.828  -2.209 -12.469  1.00 84.17     0.037 C 
ENDBRANCH  25  26
BRANCH  25  28
HETATM   28  C40   D T2000       7.346  -1.536 -14.986  1.00 83.04     0.250 C 
HETATM   29  C41   D T2000       7.111  -3.065 -15.185  1.00 82.57     0.037 C 
ENDBRANCH  25  28
ENDBRANCH  24  25
ENDBRANCH  23  24
ENDBRANCH  21  23
ENDBRANCH   6  20
TORSDOF 7
ENDMDL
