MODEL 1
REMARK VINA RESULT:    -7.765      0.000      0.000
REMARK INTER + INTRA:         -11.790
REMARK INTER:                 -10.942
REMARK INTRA:                  -0.848
REMARK UNBOUND:                -0.848
REMARK  7 active torsions:
REMARK  status: ('A' for Active; 'I' for Inactive)
REMARK    1  A    between atoms: C22_10  and  C19_16 
REMARK       I    between atoms: C22_10  and  N25_19 
REMARK    2  A    between atoms: C12_12  and  C18_15 
REMARK    3  A    between atoms: N25_19  and  C37_23 
REMARK    4  A    between atoms: C37_23  and  C38_24 
REMARK    5  A    between atoms: C38_24  and  N4_25 
REMARK    6  A    between atoms: N4_25  and  C39_26 
REMARK    7  A    between atoms: N4_25  and  C40_27 
ROOT
HETATM    1  C4    D T2000      -1.012   3.884   8.241  1.00 48.44     0.052 C 
HETATM    2  C13   D T2000       2.016   6.009   9.181  1.00 48.75     0.002 A 
HETATM    3  C3    D T2000       3.100   7.142   9.315  1.00 43.40     0.033 C 
HETATM    4  C14   D T2000       0.247   4.634   8.703  1.00 49.83     0.064 A 
HETATM    5  C18   D T2000       2.102   4.792   9.890  1.00 45.93     0.077 A 
HETATM    6  C19   D T2000       0.773   5.912   8.385  1.00 51.55     0.069 A 
HETATM    7  N23   D T2000       1.047   4.032   9.571  1.00 47.90    -0.250 NA
ENDROOT
BRANCH   5   8
HETATM    8  C12   D T2000       3.179   4.433  10.835  1.00 43.39     0.024 C 
HETATM    9  C20   D T2000       4.565   4.185  10.631  1.00 43.86     0.061 A 
HETATM   10  C17   D T2000       5.622   3.776  11.646  1.00 43.90     0.025 A 
HETATM   11  C21   D T2000       5.394   4.245   9.401  1.00 40.96     0.279 A 
HETATM   12  C7    D T2000       5.539   3.525  13.071  1.00 45.29     0.031 A 
HETATM   13  C16   D T2000       6.836   3.644  10.961  1.00 41.24     0.085 A 
HETATM   14  C15   D T2000       6.702   3.151  13.751  1.00 46.91     0.140 A 
HETATM   15  C5    D T2000       7.922   3.024  13.023  1.00 46.93     0.031 A 
HETATM   16  F29   D T2000       6.717   2.909  15.065  1.00 48.65    -0.204 F 
HETATM   17  C6    D T2000       8.006   3.267  11.624  1.00 43.16     0.021 A 
HETATM   18  N24   D T2000       6.687   3.924   9.649  1.00 38.68    -0.208 NA
HETATM   19  O27   D T2000       4.982   4.539   8.312  1.00 39.38    -0.265 OA
ENDBRANCH   5   8
BRANCH   6  20
HETATM   20  C22   D T2000       0.121   6.897   7.420  1.00 57.19     0.276 C 
HETATM   21  N25   D T2000       0.813   7.398   6.373  1.00 64.68    -0.232 NA
HETATM   22  O28   D T2000      -1.045   7.298   7.504  1.00 55.46    -0.266 OA
BRANCH  21  23
HETATM   23  C37   D T2000       0.207   8.340   5.421  1.00 72.35     0.164 C 
BRANCH  23  24
HETATM   24  C38   D T2000       0.501   9.868   5.496  1.00 75.73     0.276 C 
BRANCH  24  25
HETATM   25  N4    D T2000       1.939  10.075   5.082  1.00 81.36     0.139 N 
BRANCH  25  26
HETATM   26  C39   D T2000       2.248   9.100   3.944  1.00 83.55     0.250 C 
HETATM   27  C42   D T2000       2.923   9.519   2.575  1.00 84.17     0.037 C 
ENDBRANCH  25  26
BRANCH  25  28
HETATM   28  C40   D T2000       2.905  10.000   6.310  1.00 83.04     0.250 C 
HETATM   29  C41   D T2000       4.150   9.060   6.346  1.00 82.57     0.037 C 
ENDBRANCH  25  28
ENDBRANCH  24  25
ENDBRANCH  23  24
ENDBRANCH  21  23
ENDBRANCH   6  20
TORSDOF 7
ENDMDL
MODEL 2
REMARK VINA RESULT:    -7.713      3.224      6.122
REMARK INTER + INTRA:         -11.717
REMARK INTER:                 -10.933
REMARK INTRA:                  -0.784
REMARK UNBOUND:                -0.848
REMARK  7 active torsions:
REMARK  status: ('A' for Active; 'I' for Inactive)
REMARK    1  A    between atoms: C22_10  and  C19_16 
REMARK       I    between atoms: C22_10  and  N25_19 
REMARK    2  A    between atoms: C12_12  and  C18_15 
REMARK    3  A    between atoms: N25_19  and  C37_23 
REMARK    4  A    between atoms: C37_23  and  C38_24 
REMARK    5  A    between atoms: C38_24  and  N4_25 
REMARK    6  A    between atoms: N4_25  and  C39_26 
REMARK    7  A    between atoms: N4_25  and  C40_27 
ROOT
HETATM    1  C4    D T2000       0.606  11.145   5.091  1.00 48.44     0.052 C 
HETATM    2  C13   D T2000       3.381   8.533   5.304  1.00 48.75     0.002 A 
HETATM    3  C3    D T2000       4.651   7.636   5.062  1.00 43.40     0.033 C 
HETATM    4  C14   D T2000       1.661  10.045   5.293  1.00 49.83     0.064 A 
HETATM    5  C18   D T2000       2.506   8.326   6.391  1.00 45.93     0.077 A 
HETATM    6  C19   D T2000       2.823   9.685   4.564  1.00 51.55     0.069 A 
HETATM    7  N23   D T2000       1.523   9.234   6.332  1.00 47.90    -0.250 NA
ENDROOT
BRANCH   5   8
HETATM    8  C12   D T2000       2.664   7.283   7.424  1.00 43.39     0.024 C 
HETATM    9  C20   D T2000       1.788   6.251   7.861  1.00 43.86     0.061 A 
HETATM   10  C17   D T2000       1.995   5.226   8.966  1.00 43.90     0.025 A 
HETATM   11  C21   D T2000       0.436   5.858   7.391  1.00 40.96     0.279 A 
HETATM   12  C7    D T2000       3.104   5.001   9.872  1.00 45.29     0.031 A 
HETATM   13  C16   D T2000       0.846   4.428   9.022  1.00 41.24     0.085 A 
HETATM   14  C15   D T2000       3.002   3.965  10.805  1.00 46.91     0.140 A 
HETATM   15  C5    D T2000       1.817   3.172  10.837  1.00 46.93     0.031 A 
HETATM   16  F29   D T2000       3.979   3.682  11.672  1.00 48.65    -0.204 F 
HETATM   17  C6    D T2000       0.726   3.392   9.951  1.00 43.16     0.021 A 
HETATM   18  N24   D T2000      -0.057   4.809   8.093  1.00 38.68    -0.208 NA
HETATM   19  O27   D T2000      -0.162   6.397   6.498  1.00 39.38    -0.265 OA
ENDBRANCH   5   8
BRANCH   6  20
HETATM   20  C22   D T2000       3.305  10.398   3.305  1.00 57.19     0.276 C 
HETATM   21  N25   D T2000       2.722  10.158   2.110  1.00 64.68    -0.232 NA
HETATM   22  O28   D T2000       4.226  11.222   3.271  1.00 55.46    -0.266 OA
BRANCH  21  23
HETATM   23  C37   D T2000       3.159  10.838   0.881  1.00 72.35     0.164 C 
BRANCH  23  24
HETATM   24  C38   D T2000       2.363  10.694  -0.450  1.00 75.73     0.276 C 
BRANCH  24  25
HETATM   25  N4    D T2000       2.573  11.963  -1.244  1.00 81.36     0.139 N 
BRANCH  25  26
HETATM   26  C39   D T2000       3.685  12.764  -0.567  1.00 83.55     0.250 C 
HETATM   27  C42   D T2000       4.940  13.359  -1.327  1.00 84.17     0.037 C 
ENDBRANCH  25  26
BRANCH  25  28
HETATM   28  C40   D T2000       1.228  12.732  -1.460  1.00 83.04     0.250 C 
HETATM   29  C41   D T2000       0.264  13.090  -0.287  1.00 82.57     0.037 C 
ENDBRANCH  25  28
ENDBRANCH  24  25
ENDBRANCH  23  24
ENDBRANCH  21  23
ENDBRANCH   6  20
TORSDOF 7
ENDMDL
MODEL 3
REMARK VINA RESULT:    -7.135      3.230      5.853
REMARK INTER + INTRA:         -10.903
REMARK INTER:                  -9.970
REMARK INTRA:                  -0.933
REMARK UNBOUND:                -0.848
REMARK  7 active torsions:
REMARK  status: ('A' for Active; 'I' for Inactive)
REMARK    1  A    between atoms: C22_10  and  C19_16 
REMARK       I    between atoms: C22_10  and  N25_19 
REMARK    2  A    between atoms: C12_12  and  C18_15 
REMARK    3  A    between atoms: N25_19  and  C37_23 
REMARK    4  A    between atoms: C37_23  and  C38_24 
REMARK    5  A    between atoms: C38_24  and  N4_25 
REMARK    6  A    between atoms: N4_25  and  C39_26 
REMARK    7  A    between atoms: N4_25  and  C40_27 
ROOT
HETATM    1  C4    D T2000       0.665  10.866   5.044  1.00 48.44     0.052 C 
HETATM    2  C13   D T2000       3.496   8.315   5.244  1.00 48.75     0.002 A 
HETATM    3  C3    D T2000       4.772   7.430   4.983  1.00 43.40     0.033 C 
HETATM    4  C14   D T2000       1.749   9.795   5.245  1.00 49.83     0.064 A 
HETATM    5  C18   D T2000       2.676   8.142   6.378  1.00 45.93     0.077 A 
HETATM    6  C19   D T2000       2.883   9.423   4.480  1.00 51.55     0.069 A 
HETATM    7  N23   D T2000       1.674   9.030   6.324  1.00 47.90    -0.250 NA
ENDROOT
BRANCH   5   8
HETATM    8  C12   D T2000       2.901   7.150   7.448  1.00 43.39     0.024 C 
HETATM    9  C20   D T2000       2.043   6.166   8.014  1.00 43.86     0.061 A 
HETATM   10  C17   D T2000       2.323   5.194   9.151  1.00 43.90     0.025 A 
HETATM   11  C21   D T2000       0.646   5.788   7.686  1.00 40.96     0.279 A 
HETATM   12  C7    D T2000       3.503   4.985   9.967  1.00 45.29     0.031 A 
HETATM   13  C16   D T2000       1.166   4.433   9.350  1.00 41.24     0.085 A 
HETATM   14  C15   D T2000       3.460   4.001  10.960  1.00 46.91     0.140 A 
HETATM   15  C5    D T2000       2.264   3.245  11.138  1.00 46.93     0.031 A 
HETATM   16  F29   D T2000       4.503   3.737  11.751  1.00 48.65    -0.204 F 
HETATM   17  C6    D T2000       1.105   3.450  10.340  1.00 43.16     0.021 A 
HETATM   18  N24   D T2000       0.193   4.790   8.484  1.00 38.68    -0.208 NA
HETATM   19  O27   D T2000      -0.016   6.296   6.822  1.00 39.38    -0.265 OA
ENDBRANCH   5   8
BRANCH   6  20
HETATM   20  C22   D T2000       3.294  10.086   3.169  1.00 57.19     0.276 C 
HETATM   21  N25   D T2000       4.411  10.845   3.100  1.00 64.68    -0.232 NA
HETATM   22  O28   D T2000       2.673   9.989   2.105  1.00 55.46    -0.266 OA
BRANCH  21  23
HETATM   23  C37   D T2000       4.837  11.488   1.848  1.00 72.35     0.164 C 
BRANCH  23  24
HETATM   24  C38   D T2000       5.825  10.783   0.872  1.00 75.73     0.276 C 
BRANCH  24  25
HETATM   25  N4    D T2000       7.215  11.279   1.197  1.00 81.36     0.139 N 
BRANCH  25  26
HETATM   26  C39   D T2000       7.943  10.175   1.965  1.00 83.55     0.250 C 
HETATM   27  C42   D T2000       7.852   9.975   3.533  1.00 84.17     0.037 C 
ENDBRANCH  25  26
BRANCH  25  28
HETATM   28  C40   D T2000       7.175  12.673   1.905  1.00 83.04     0.250 C 
HETATM   29  C41   D T2000       8.466  13.453   2.305  1.00 82.57     0.037 C 
ENDBRANCH  25  28
ENDBRANCH  24  25
ENDBRANCH  23  24
ENDBRANCH  21  23
ENDBRANCH   6  20
TORSDOF 7
ENDMDL
MODEL 4
REMARK VINA RESULT:    -7.034      3.390      9.475
REMARK INTER + INTRA:         -10.761
REMARK INTER:                  -9.784
REMARK INTRA:                  -0.977
REMARK UNBOUND:                -0.848
REMARK  7 active torsions:
REMARK  status: ('A' for Active; 'I' for Inactive)
REMARK    1  A    between atoms: C22_10  and  C19_16 
REMARK       I    between atoms: C22_10  and  N25_19 
REMARK    2  A    between atoms: C12_12  and  C18_15 
REMARK    3  A    between atoms: N25_19  and  C37_23 
REMARK    4  A    between atoms: C37_23  and  C38_24 
REMARK    5  A    between atoms: C38_24  and  N4_25 
REMARK    6  A    between atoms: N4_25  and  C39_26 
REMARK    7  A    between atoms: N4_25  and  C40_27 
ROOT
HETATM    1  C4    D T2000       7.480   4.840   9.275  1.00 48.44     0.052 C 
HETATM    2  C13   D T2000       3.826   4.162  10.145  1.00 48.75     0.002 A 
HETATM    3  C3    D T2000       2.480   3.713  10.825  1.00 43.40     0.033 C 
HETATM    4  C14   D T2000       5.975   4.631   9.505  1.00 49.83     0.064 A 
HETATM    5  C18   D T2000       3.860   4.838   8.908  1.00 45.93     0.077 A 
HETATM    6  C19   D T2000       5.241   4.021  10.554  1.00 51.55     0.069 A 
HETATM    7  N23   D T2000       5.136   5.084   8.585  1.00 47.90    -0.250 NA
ENDROOT
BRANCH   5   8
HETATM    8  C12   D T2000       2.674   5.218   8.113  1.00 43.39     0.024 C 
HETATM    9  C20   D T2000       2.326   6.436   7.466  1.00 43.86     0.061 A 
HETATM   10  C17   D T2000       1.062   6.780   6.692  1.00 43.90     0.025 A 
HETATM   11  C21   D T2000       3.063   7.719   7.344  1.00 40.96     0.279 A 
HETATM   12  C7    D T2000      -0.123   6.000   6.393  1.00 45.29     0.031 A 
HETATM   13  C16   D T2000       1.183   8.103   6.252  1.00 41.24     0.085 A 
HETATM   14  C15   D T2000      -1.145   6.599   5.650  1.00 46.91     0.140 A 
HETATM   15  C5    D T2000      -0.990   7.950   5.219  1.00 46.93     0.031 A 
HETATM   16  F29   D T2000      -2.266   5.952   5.322  1.00 48.65    -0.204 F 
HETATM   17  C6    D T2000       0.170   8.718   5.513  1.00 43.16     0.021 A 
HETATM   18  N24   D T2000       2.360   8.639   6.639  1.00 38.68    -0.208 NA
HETATM   19  O27   D T2000       4.151   7.930   7.808  1.00 39.38    -0.265 OA
ENDBRANCH   5   8
BRANCH   6  20
HETATM   20  C22   D T2000       5.869   3.388  11.792  1.00 57.19     0.276 C 
HETATM   21  N25   D T2000       6.073   4.117  12.911  1.00 64.68    -0.232 NA
HETATM   22  O28   D T2000       6.226   2.208  11.875  1.00 55.46    -0.266 OA
BRANCH  21  23
HETATM   23  C37   D T2000       6.667   3.531  14.122  1.00 72.35     0.164 C 
BRANCH  23  24
HETATM   24  C38   D T2000       8.164   3.768  14.485  1.00 75.73     0.276 C 
BRANCH  24  25
HETATM   25  N4    D T2000       8.830   2.415  14.569  1.00 81.36     0.139 N 
BRANCH  25  26
HETATM   26  C39   D T2000       9.423   2.094  13.196  1.00 83.55     0.250 C 
HETATM   27  C42   D T2000       9.695   3.175  12.072  1.00 84.17     0.037 C 
ENDBRANCH  25  26
BRANCH  25  28
HETATM   28  C40   D T2000       7.860   1.333  15.149  1.00 83.04     0.250 C 
HETATM   29  C41   D T2000       7.801   0.983  16.668  1.00 82.57     0.037 C 
ENDBRANCH  25  28
ENDBRANCH  24  25
ENDBRANCH  23  24
ENDBRANCH  21  23
ENDBRANCH   6  20
TORSDOF 7
ENDMDL
MODEL 5
REMARK VINA RESULT:    -6.962      2.754      4.848
REMARK INTER + INTRA:         -10.660
REMARK INTER:                 -10.089
REMARK INTRA:                  -0.571
REMARK UNBOUND:                -0.848
REMARK  7 active torsions:
REMARK  status: ('A' for Active; 'I' for Inactive)
REMARK    1  A    between atoms: C22_10  and  C19_16 
REMARK       I    between atoms: C22_10  and  N25_19 
REMARK    2  A    between atoms: C12_12  and  C18_15 
REMARK    3  A    between atoms: N25_19  and  C37_23 
REMARK    4  A    between atoms: C37_23  and  C38_24 
REMARK    5  A    between atoms: C38_24  and  N4_25 
REMARK    6  A    between atoms: N4_25  and  C39_26 
REMARK    7  A    between atoms: N4_25  and  C40_27 
ROOT
HETATM    1  C4    D T2000       0.223   9.150   5.335  1.00 48.44     0.052 C 
HETATM    2  C13   D T2000       3.866   8.016   5.248  1.00 48.75     0.002 A 
HETATM    3  C3    D T2000       5.379   7.774   4.886  1.00 43.40     0.033 C 
HETATM    4  C14   D T2000       1.663   8.620   5.417  1.00 49.83     0.064 A 
HETATM    5  C18   D T2000       3.253   7.422   6.371  1.00 45.93     0.077 A 
HETATM    6  C19   D T2000       2.808   8.824   4.604  1.00 51.55     0.069 A 
HETATM    7  N23   D T2000       1.972   7.808   6.417  1.00 47.90    -0.250 NA
ENDROOT
BRANCH   5   8
HETATM    8  C12   D T2000       3.928   6.531   7.336  1.00 43.39     0.024 C 
HETATM    9  C20   D T2000       3.434   5.823   8.467  1.00 43.86     0.061 A 
HETATM   10  C17   D T2000       4.193   4.948   9.453  1.00 43.90     0.025 A 
HETATM   11  C21   D T2000       2.063   5.719   9.028  1.00 40.96     0.279 A 
HETATM   12  C7    D T2000       5.594   4.585   9.534  1.00 45.29     0.031 A 
HETATM   13  C16   D T2000       3.272   4.480  10.397  1.00 41.24     0.085 A 
HETATM   14  C15   D T2000       6.007   3.751  10.577  1.00 46.91     0.140 A 
HETATM   15  C5    D T2000       5.044   3.293  11.524  1.00 46.93     0.031 A 
HETATM   16  F29   D T2000       7.276   3.359  10.722  1.00 48.65    -0.204 F 
HETATM   17  C6    D T2000       3.669   3.649  11.448  1.00 43.16     0.021 A 
HETATM   18  N24   D T2000       2.030   4.937  10.134  1.00 38.68    -0.208 NA
HETATM   19  O27   D T2000       1.093   6.257   8.567  1.00 39.38    -0.265 OA
ENDBRANCH   5   8
BRANCH   6  20
HETATM   20  C22   D T2000       2.835   9.705   3.359  1.00 57.19     0.276 C 
HETATM   21  N25   D T2000       3.085  11.029   3.456  1.00 64.68    -0.232 NA
HETATM   22  O28   D T2000       2.643   9.302   2.206  1.00 55.46    -0.266 OA
BRANCH  21  23
HETATM   23  C37   D T2000       3.128  11.901   2.273  1.00 72.35     0.164 C 
BRANCH  23  24
HETATM   24  C38   D T2000       4.470  12.497   1.755  1.00 75.73     0.276 C 
BRANCH  24  25
HETATM   25  N4    D T2000       4.787  11.826   0.439  1.00 81.36     0.139 N 
BRANCH  25  26
HETATM   26  C39   D T2000       3.465  11.478  -0.244  1.00 83.55     0.250 C 
HETATM   27  C42   D T2000       2.797  12.349  -1.385  1.00 84.17     0.037 C 
ENDBRANCH  25  26
BRANCH  25  28
HETATM   28  C40   D T2000       5.779  10.632   0.629  1.00 83.04     0.250 C 
HETATM   29  C41   D T2000       6.294  10.179   2.030  1.00 82.57     0.037 C 
ENDBRANCH  25  28
ENDBRANCH  24  25
ENDBRANCH  23  24
ENDBRANCH  21  23
ENDBRANCH   6  20
TORSDOF 7
ENDMDL
MODEL 6
REMARK VINA RESULT:    -6.916      2.263      3.732
REMARK INTER + INTRA:         -10.594
REMARK INTER:                  -9.834
REMARK INTRA:                  -0.761
REMARK UNBOUND:                -0.848
REMARK  7 active torsions:
REMARK  status: ('A' for Active; 'I' for Inactive)
REMARK    1  A    between atoms: C22_10  and  C19_16 
REMARK       I    between atoms: C22_10  and  N25_19 
REMARK    2  A    between atoms: C12_12  and  C18_15 
REMARK    3  A    between atoms: N25_19  and  C37_23 
REMARK    4  A    between atoms: C37_23  and  C38_24 
REMARK    5  A    between atoms: C38_24  and  N4_25 
REMARK    6  A    between atoms: N4_25  and  C39_26 
REMARK    7  A    between atoms: N4_25  and  C40_27 
ROOT
HETATM    1  C4    D T2000      -0.677   7.501   5.068  1.00 48.44     0.052 C 
HETATM    2  C13   D T2000       2.591   8.347   6.849  1.00 48.75     0.002 A 
HETATM    3  C3    D T2000       3.930   9.011   7.343  1.00 43.40     0.033 C 
HETATM    4  C14   D T2000       0.622   7.724   5.860  1.00 49.83     0.064 A 
HETATM    5  C18   D T2000       2.105   7.136   7.386  1.00 45.93     0.077 A 
HETATM    6  C19   D T2000       1.600   8.750   5.828  1.00 51.55     0.069 A 
HETATM    7  N23   D T2000       0.958   6.822   6.771  1.00 47.90    -0.250 NA
ENDROOT
BRANCH   5   8
HETATM    8  C12   D T2000       2.758   6.358   8.457  1.00 43.39     0.024 C 
HETATM    9  C20   D T2000       4.016   5.695   8.505  1.00 43.86     0.061 A 
HETATM   10  C17   D T2000       4.619   4.869   9.632  1.00 43.90     0.025 A 
HETATM   11  C21   D T2000       5.105   5.601   7.501  1.00 40.96     0.279 A 
HETATM   12  C7    D T2000       4.113   4.523  10.945  1.00 45.29     0.031 A 
HETATM   13  C16   D T2000       5.871   4.418   9.201  1.00 41.24     0.085 A 
HETATM   14  C15   D T2000       4.907   3.728  11.777  1.00 46.91     0.140 A 
HETATM   15  C5    D T2000       6.178   3.283  11.306  1.00 46.93     0.031 A 
HETATM   16  F29   D T2000       4.523   3.369  13.005  1.00 48.65    -0.204 F 
HETATM   17  C6    D T2000       6.676   3.620  10.018  1.00 43.16     0.021 A 
HETATM   18  N24   D T2000       6.144   4.856   7.953  1.00 38.68    -0.208 NA
HETATM   19  O27   D T2000       5.084   6.117   6.417  1.00 39.38    -0.265 OA
ENDBRANCH   5   8
BRANCH   6  20
HETATM   20  C22   D T2000       1.548   9.962   4.903  1.00 57.19     0.276 C 
HETATM   21  N25   D T2000       2.474  10.131   3.934  1.00 64.68    -0.232 NA
HETATM   22  O28   D T2000       0.691  10.851   4.955  1.00 55.46    -0.266 OA
BRANCH  21  23
HETATM   23  C37   D T2000       2.443  11.284   3.022  1.00 72.35     0.164 C 
BRANCH  23  24
HETATM   24  C38   D T2000       3.756  11.952   2.517  1.00 75.73     0.276 C 
BRANCH  24  25
HETATM   25  N4    D T2000       3.715  11.951   1.007  1.00 81.36     0.139 N 
BRANCH  25  26
HETATM   26  C39   D T2000       2.301  11.563   0.573  1.00 83.55     0.250 C 
HETATM   27  C42   D T2000       1.963  10.795  -0.769  1.00 84.17     0.037 C 
ENDBRANCH  25  26
BRANCH  25  28
HETATM   28  C40   D T2000       4.865  11.080   0.403  1.00 83.04     0.250 C 
HETATM   29  C41   D T2000       5.696  10.072   1.257  1.00 82.57     0.037 C 
ENDBRANCH  25  28
ENDBRANCH  24  25
ENDBRANCH  23  24
ENDBRANCH  21  23
ENDBRANCH   6  20
TORSDOF 7
ENDMDL
MODEL 7
REMARK VINA RESULT:    -6.913      3.236      9.454
REMARK INTER + INTRA:         -10.590
REMARK INTER:                  -9.651
REMARK INTRA:                  -0.939
REMARK UNBOUND:                -0.848
REMARK  7 active torsions:
REMARK  status: ('A' for Active; 'I' for Inactive)
REMARK    1  A    between atoms: C22_10  and  C19_16 
REMARK       I    between atoms: C22_10  and  N25_19 
REMARK    2  A    between atoms: C12_12  and  C18_15 
REMARK    3  A    between atoms: N25_19  and  C37_23 
REMARK    4  A    between atoms: C37_23  and  C38_24 
REMARK    5  A    between atoms: C38_24  and  N4_25 
REMARK    6  A    between atoms: N4_25  and  C39_26 
REMARK    7  A    between atoms: N4_25  and  C40_27 
ROOT
HETATM    1  C4    D T2000       8.689   4.823   7.865  1.00 48.44     0.052 C 
HETATM    2  C13   D T2000       5.844   4.306  10.356  1.00 48.75     0.002 A 
HETATM    3  C3    D T2000       4.969   4.011  11.630  1.00 43.40     0.033 C 
HETATM    4  C14   D T2000       7.455   4.647   8.764  1.00 49.83     0.064 A 
HETATM    5  C18   D T2000       5.275   4.661   9.114  1.00 45.93     0.077 A 
HETATM    6  C19   D T2000       7.305   4.298  10.130  1.00 51.55     0.069 A 
HETATM    7  N23   D T2000       6.260   4.844   8.226  1.00 47.90    -0.250 NA
ENDROOT
BRANCH   5   8
HETATM    8  C12   D T2000       3.829   4.811   8.852  1.00 43.39     0.024 C 
HETATM    9  C20   D T2000       3.105   5.780   8.104  1.00 43.86     0.061 A 
HETATM   10  C17   D T2000       1.602   5.905   7.905  1.00 43.90     0.025 A 
HETATM   11  C21   D T2000       3.571   6.941   7.305  1.00 40.96     0.279 A 
HETATM   12  C7    D T2000       0.498   5.106   8.398  1.00 45.29     0.031 A 
HETATM   13  C16   D T2000       1.375   7.025   7.096  1.00 41.24     0.085 A 
HETATM   14  C15   D T2000      -0.803   5.476   8.044  1.00 46.91     0.140 A 
HETATM   15  C5    D T2000      -0.999   6.624   7.220  1.00 46.93     0.031 A 
HETATM   16  F29   D T2000      -1.878   4.792   8.447  1.00 48.65    -0.204 F 
HETATM   17  C6    D T2000       0.082   7.411   6.737  1.00 43.16     0.021 A 
HETATM   18  N24   D T2000       2.537   7.619   6.751  1.00 38.68    -0.208 NA
HETATM   19  O27   D T2000       4.722   7.253   7.159  1.00 39.38    -0.265 OA
ENDBRANCH   5   8
BRANCH   6  20
HETATM   20  C22   D T2000       8.465   3.999  11.075  1.00 57.19     0.276 C 
HETATM   21  N25   D T2000       8.565   2.799  11.687  1.00 64.68    -0.232 NA
HETATM   22  O28   D T2000       9.374   4.792  11.347  1.00 55.46    -0.266 OA
BRANCH  21  23
HETATM   23  C37   D T2000       9.677   2.479  12.594  1.00 72.35     0.164 C 
BRANCH  23  24
HETATM   24  C38   D T2000       9.519   2.594  14.140  1.00 75.73     0.276 C 
BRANCH  24  25
HETATM   25  N4    D T2000       8.082   2.269  14.475  1.00 81.36     0.139 N 
BRANCH  25  26
HETATM   26  C39   D T2000       7.465   3.494  15.150  1.00 83.55     0.250 C 
HETATM   27  C42   D T2000       7.403   4.933  14.495  1.00 84.17     0.037 C 
ENDBRANCH  25  26
BRANCH  25  28
HETATM   28  C40   D T2000       7.970   0.932  15.279  1.00 83.04     0.250 C 
HETATM   29  C41   D T2000       9.171   0.315  16.061  1.00 82.57     0.037 C 
ENDBRANCH  25  28
ENDBRANCH  24  25
ENDBRANCH  23  24
ENDBRANCH  21  23
ENDBRANCH   6  20
TORSDOF 7
ENDMDL
MODEL 8
REMARK VINA RESULT:    -6.890      3.665      9.375
REMARK INTER + INTRA:         -10.558
REMARK INTER:                  -9.962
REMARK INTRA:                  -0.595
REMARK UNBOUND:                -0.848
REMARK  7 active torsions:
REMARK  status: ('A' for Active; 'I' for Inactive)
REMARK    1  A    between atoms: C22_10  and  C19_16 
REMARK       I    between atoms: C22_10  and  N25_19 
REMARK    2  A    between atoms: C12_12  and  C18_15 
REMARK    3  A    between atoms: N25_19  and  C37_23 
REMARK    4  A    between atoms: C37_23  and  C38_24 
REMARK    5  A    between atoms: C38_24  and  N4_25 
REMARK    6  A    between atoms: N4_25  and  C39_26 
REMARK    7  A    between atoms: N4_25  and  C40_27 
ROOT
HETATM    1  C4    D T2000       7.405   4.947   9.360  1.00 48.44     0.052 C 
HETATM    2  C13   D T2000       3.767   4.089  10.131  1.00 48.75     0.002 A 
HETATM    3  C3    D T2000       2.428   3.560  10.767  1.00 43.40     0.033 C 
HETATM    4  C14   D T2000       5.906   4.669   9.552  1.00 49.83     0.064 A 
HETATM    5  C18   D T2000       3.795   4.814   8.922  1.00 45.93     0.077 A 
HETATM    6  C19   D T2000       5.179   3.989  10.562  1.00 51.55     0.069 A 
HETATM    7  N23   D T2000       5.065   5.124   8.634  1.00 47.90    -0.250 NA
ENDROOT
BRANCH   5   8
HETATM    8  C12   D T2000       2.609   5.177   8.120  1.00 43.39     0.024 C 
HETATM    9  C20   D T2000       2.261   6.381   7.447  1.00 43.86     0.061 A 
HETATM   10  C17   D T2000       0.997   6.708   6.666  1.00 43.90     0.025 A 
HETATM   11  C21   D T2000       2.998   7.660   7.297  1.00 40.96     0.279 A 
HETATM   12  C7    D T2000      -0.188   5.922   6.384  1.00 45.29     0.031 A 
HETATM   13  C16   D T2000       1.118   8.021   6.198  1.00 41.24     0.085 A 
HETATM   14  C15   D T2000      -1.210   6.506   5.629  1.00 46.91     0.140 A 
HETATM   15  C5    D T2000      -1.056   7.847   5.169  1.00 46.93     0.031 A 
HETATM   16  F29   D T2000      -2.332   5.851   5.315  1.00 48.65    -0.204 F 
HETATM   17  C6    D T2000       0.105   8.620   5.446  1.00 43.16     0.021 A 
HETATM   18  N24   D T2000       2.295   8.565   6.573  1.00 38.68    -0.208 NA
HETATM   19  O27   D T2000       4.086   7.881   7.757  1.00 39.38    -0.265 OA
ENDBRANCH   5   8
BRANCH   6  20
HETATM   20  C22   D T2000       5.810   3.334  11.786  1.00 57.19     0.276 C 
HETATM   21  N25   D T2000       6.299   4.086  12.797  1.00 64.68    -0.232 NA
HETATM   22  O28   D T2000       5.921   2.114  11.954  1.00 55.46    -0.266 OA
BRANCH  21  23
HETATM   23  C37   D T2000       6.904   3.482  13.993  1.00 72.35     0.164 C 
BRANCH  23  24
HETATM   24  C38   D T2000       7.097   4.302  15.304  1.00 75.73     0.276 C 
BRANCH  24  25
HETATM   25  N4    D T2000       8.376   5.093  15.159  1.00 81.36     0.139 N 
BRANCH  25  26
HETATM   26  C39   D T2000       9.388   4.544  16.166  1.00 83.55     0.250 C 
HETATM   27  C42   D T2000      10.330   5.447  17.062  1.00 84.17     0.037 C 
ENDBRANCH  25  26
BRANCH  25  28
HETATM   28  C40   D T2000       8.111   6.632  15.248  1.00 83.04     0.250 C 
HETATM   29  C41   D T2000       8.523   7.624  14.116  1.00 82.57     0.037 C 
ENDBRANCH  25  28
ENDBRANCH  24  25
ENDBRANCH  23  24
ENDBRANCH  21  23
ENDBRANCH   6  20
TORSDOF 7
ENDMDL
MODEL 9
REMARK VINA RESULT:    -6.698      3.501      8.562
REMARK INTER + INTRA:         -10.287
REMARK INTER:                  -9.199
REMARK INTRA:                  -1.089
REMARK UNBOUND:                -0.848
REMARK  7 active torsions:
REMARK  status: ('A' for Active; 'I' for Inactive)
REMARK    1  A    between atoms: C22_10  and  C19_16 
REMARK       I    between atoms: C22_10  and  N25_19 
REMARK    2  A    between atoms: C12_12  and  C18_15 
REMARK    3  A    between atoms: N25_19  and  C37_23 
REMARK    4  A    between atoms: C37_23  and  C38_24 
REMARK    5  A    between atoms: C38_24  and  N4_25 
REMARK    6  A    between atoms: N4_25  and  C39_26 
REMARK    7  A    between atoms: N4_25  and  C40_27 
ROOT
HETATM    1  C4    D T2000       5.554   3.667  13.504  1.00 48.44     0.052 C 
HETATM    2  C13   D T2000       5.524   4.093   9.711  1.00 48.75     0.002 A 
HETATM    3  C3    D T2000       5.900   4.202   8.187  1.00 43.40     0.033 C 
HETATM    4  C14   D T2000       5.404   3.860  11.986  1.00 49.83     0.064 A 
HETATM    5  C18   D T2000       4.203   4.262  10.178  1.00 45.93     0.077 A 
HETATM    6  C19   D T2000       6.335   3.820  10.918  1.00 51.55     0.069 A 
HETATM    7  N23   D T2000       4.194   4.117  11.509  1.00 47.90    -0.250 NA
ENDROOT
BRANCH   5   8
HETATM    8  C12   D T2000       3.030   4.542   9.326  1.00 43.39     0.024 C 
HETATM    9  C20   D T2000       2.698   5.668   8.522  1.00 43.86     0.061 A 
HETATM   10  C17   D T2000       1.446   5.915   7.694  1.00 43.90     0.025 A 
HETATM   11  C21   D T2000       3.445   6.920   8.245  1.00 40.96     0.279 A 
HETATM   12  C7    D T2000       0.259   5.110   7.484  1.00 45.29     0.031 A 
HETATM   13  C16   D T2000       1.581   7.170   7.089  1.00 41.24     0.085 A 
HETATM   14  C15   D T2000      -0.750   5.613   6.657  1.00 46.91     0.140 A 
HETATM   15  C5    D T2000      -0.581   6.896   6.057  1.00 46.93     0.031 A 
HETATM   16  F29   D T2000      -1.872   4.935   6.401  1.00 48.65    -0.204 F 
HETATM   17  C6    D T2000       0.581   7.689   6.264  1.00 43.16     0.021 A 
HETATM   18  N24   D T2000       2.758   7.745   7.418  1.00 38.68    -0.208 NA
HETATM   19  O27   D T2000       4.529   7.184   8.691  1.00 39.38    -0.265 OA
ENDBRANCH   5   8
BRANCH   6  20
HETATM   20  C22   D T2000       7.826   3.546  11.084  1.00 57.19     0.276 C 
HETATM   21  N25   D T2000       8.745   4.367  10.529  1.00 64.68    -0.232 NA
HETATM   22  O28   D T2000       8.302   2.596  11.716  1.00 55.46    -0.266 OA
BRANCH  21  23
HETATM   23  C37   D T2000      10.188   4.134  10.681  1.00 72.35     0.164 C 
BRANCH  23  24
HETATM   24  C38   D T2000      11.077   5.088  11.533  1.00 75.73     0.276 C 
BRANCH  24  25
HETATM   25  N4    D T2000      10.236   6.291  11.893  1.00 81.36     0.139 N 
BRANCH  25  26
HETATM   26  C39   D T2000      11.025   7.547  11.522  1.00 83.55     0.250 C 
HETATM   27  C42   D T2000      11.032   8.198  10.079  1.00 84.17     0.037 C 
ENDBRANCH  25  26
BRANCH  25  28
HETATM   28  C40   D T2000       9.743   6.222  13.376  1.00 83.04     0.250 C 
HETATM   29  C41   D T2000       8.232   6.251  13.763  1.00 82.57     0.037 C 
ENDBRANCH  25  28
ENDBRANCH  24  25
ENDBRANCH  23  24
ENDBRANCH  21  23
ENDBRANCH   6  20
TORSDOF 7
ENDMDL
