MODEL 1
REMARK VINA RESULT:    -6.976      0.000      0.000
REMARK INTER + INTRA:         -10.999
REMARK INTER:                  -9.831
REMARK INTRA:                  -1.168
REMARK UNBOUND:                -1.168
REMARK  7 active torsions:
REMARK  status: ('A' for Active; 'I' for Inactive)
REMARK    1  A    between atoms: C22_10  and  C19_16 
REMARK       I    between atoms: C22_10  and  N25_19 
REMARK    2  A    between atoms: C12_12  and  C18_15 
REMARK    3  A    between atoms: N25_19  and  C37_23 
REMARK    4  A    between atoms: C37_23  and  C38_24 
REMARK    5  A    between atoms: C38_24  and  N4_25 
REMARK    6  A    between atoms: N4_25  and  C39_26 
REMARK    7  A    between atoms: N4_25  and  C40_27 
ROOT
HETATM    1  C4    D T2000      -8.809  -5.120 -10.833  1.00 48.44     0.052 C 
HETATM    2  C13   D T2000      -5.873  -3.718 -12.828  1.00 48.75     0.002 A 
HETATM    3  C3    D T2000      -4.951  -2.944 -13.842  1.00 43.40     0.033 C 
HETATM    4  C14   D T2000      -7.543  -4.633 -11.556  1.00 49.83     0.064 A 
HETATM    5  C18   D T2000      -5.358  -4.610 -11.866  1.00 45.93     0.077 A 
HETATM    6  C19   D T2000      -7.338  -3.723 -12.626  1.00 51.55     0.069 A 
HETATM    7  N23   D T2000      -6.374  -5.115 -11.157  1.00 47.90    -0.250 NA
ENDROOT
BRANCH   5   8
HETATM    8  C12   D T2000      -3.926  -4.922 -11.676  1.00 43.39     0.024 C 
HETATM    9  C20   D T2000      -2.855  -4.142 -11.159  1.00 43.86     0.061 A 
HETATM   10  C17   D T2000      -1.384  -4.508 -11.027  1.00 43.90     0.025 A 
HETATM   11  C21   D T2000      -2.832  -2.765 -10.604  1.00 40.96     0.279 A 
HETATM   12  C7    D T2000      -0.660  -5.714 -11.372  1.00 45.29     0.031 A 
HETATM   13  C16   D T2000      -0.723  -3.406 -10.470  1.00 41.24     0.085 A 
HETATM   14  C15   D T2000       0.719  -5.756 -11.134  1.00 46.91     0.140 A 
HETATM   15  C5    D T2000       1.359  -4.615 -10.567  1.00 46.93     0.031 A 
HETATM   16  F29   D T2000       1.461  -6.831 -11.414  1.00 48.65    -0.204 F 
HETATM   17  C6    D T2000       0.652  -3.431 -10.229  1.00 43.16     0.021 A 
HETATM   18  N24   D T2000      -1.584  -2.395 -10.225  1.00 38.68    -0.208 NA
HETATM   19  O27   D T2000      -3.795  -2.055 -10.497  1.00 39.38    -0.265 OA
ENDBRANCH   5   8
BRANCH   6  20
HETATM   20  C22   D T2000      -8.454  -2.969 -13.340  1.00 57.19     0.276 C 
HETATM   21  N25   D T2000      -8.525  -1.621 -13.282  1.00 64.68    -0.232 NA
HETATM   22  O28   D T2000      -9.348  -3.501 -14.009  1.00 55.46    -0.266 OA
BRANCH  21  23
HETATM   23  C37   D T2000      -9.584  -0.868 -13.969  1.00 72.35     0.164 C 
BRANCH  23  24
HETATM   24  C38   D T2000     -10.795  -0.277 -13.186  1.00 75.73     0.276 C 
BRANCH  24  25
HETATM   25  N4    D T2000     -11.037  -1.162 -11.987  1.00 81.36     0.139 N 
BRANCH  25  26
HETATM   26  C39   D T2000     -12.358  -1.898 -12.202  1.00 83.55     0.250 C 
HETATM   27  C42   D T2000     -12.473  -3.447 -12.516  1.00 84.17     0.037 C 
ENDBRANCH  25  26
BRANCH  25  28
HETATM   28  C40   D T2000     -10.926  -0.358 -10.649  1.00 83.04     0.250 C 
HETATM   29  C41   D T2000      -9.845  -0.669  -9.567  1.00 82.57     0.037 C 
ENDBRANCH  25  28
ENDBRANCH  24  25
ENDBRANCH  23  24
ENDBRANCH  21  23
ENDBRANCH   6  20
TORSDOF 7
ENDMDL
MODEL 2
REMARK VINA RESULT:    -6.942      1.647      1.999
REMARK INTER + INTRA:         -10.950
REMARK INTER:                 -10.014
REMARK INTRA:                  -0.936
REMARK UNBOUND:                -1.168
REMARK  7 active torsions:
REMARK  status: ('A' for Active; 'I' for Inactive)
REMARK    1  A    between atoms: C22_10  and  C19_16 
REMARK       I    between atoms: C22_10  and  N25_19 
REMARK    2  A    between atoms: C12_12  and  C18_15 
REMARK    3  A    between atoms: N25_19  and  C37_23 
REMARK    4  A    between atoms: C37_23  and  C38_24 
REMARK    5  A    between atoms: C38_24  and  N4_25 
REMARK    6  A    between atoms: N4_25  and  C39_26 
REMARK    7  A    between atoms: N4_25  and  C40_27 
ROOT
HETATM    1  C4    D T2000      -8.415  -5.240 -11.213  1.00 48.44     0.052 C 
HETATM    2  C13   D T2000      -5.715  -3.024 -12.752  1.00 48.75     0.002 A 
HETATM    3  C3    D T2000      -4.911  -1.954 -13.579  1.00 43.40     0.033 C 
HETATM    4  C14   D T2000      -7.235  -4.418 -11.754  1.00 49.83     0.064 A 
HETATM    5  C18   D T2000      -5.088  -3.915 -11.855  1.00 45.93     0.077 A 
HETATM    6  C19   D T2000      -7.156  -3.352 -12.688  1.00 51.55     0.069 A 
HETATM    7  N23   D T2000      -6.019  -4.702 -11.307  1.00 47.90    -0.250 NA
ENDROOT
BRANCH   5   8
HETATM    8  C12   D T2000      -3.639  -3.954 -11.570  1.00 43.39     0.024 C 
HETATM    9  C20   D T2000      -2.702  -5.023 -11.609  1.00 43.86     0.061 A 
HETATM   10  C17   D T2000      -1.221  -5.008 -11.262  1.00 43.90     0.025 A 
HETATM   11  C21   D T2000      -2.867  -6.449 -11.987  1.00 40.96     0.279 A 
HETATM   12  C7    D T2000      -0.351  -3.943 -10.808  1.00 45.29     0.031 A 
HETATM   13  C16   D T2000      -0.730  -6.307 -11.450  1.00 41.24     0.085 A 
HETATM   14  C15   D T2000       0.994  -4.239 -10.560  1.00 46.91     0.140 A 
HETATM   15  C5    D T2000       1.459  -5.572 -10.759  1.00 46.93     0.031 A 
HETATM   16  F29   D T2000       1.866  -3.314 -10.146  1.00 48.65    -0.204 F 
HETATM   17  C6    D T2000       0.609  -6.619 -11.204  1.00 43.16     0.021 A 
HETATM   18  N24   D T2000      -1.705  -7.138 -11.877  1.00 38.68    -0.208 NA
HETATM   19  O27   D T2000      -3.899  -6.946 -12.350  1.00 39.38    -0.265 OA
ENDBRANCH   5   8
BRANCH   6  20
HETATM   20  C22   D T2000      -8.356  -2.750 -13.410  1.00 57.19     0.276 C 
HETATM   21  N25   D T2000      -8.547  -1.413 -13.438  1.00 64.68    -0.232 NA
HETATM   22  O28   D T2000      -9.216  -3.403 -14.012  1.00 55.46    -0.266 OA
BRANCH  21  23
HETATM   23  C37   D T2000      -9.689  -0.805 -14.135  1.00 72.35     0.164 C 
BRANCH  23  24
HETATM   24  C38   D T2000     -10.930  -0.280 -13.352  1.00 75.73     0.276 C 
BRANCH  24  25
HETATM   25  N4    D T2000     -11.111  -1.166 -12.142  1.00 81.36     0.139 N 
BRANCH  25  26
HETATM   26  C39   D T2000     -12.373  -2.002 -12.354  1.00 83.55     0.250 C 
HETATM   27  C42   D T2000     -12.382  -3.580 -12.482  1.00 84.17     0.037 C 
ENDBRANCH  25  26
BRANCH  25  28
HETATM   28  C40   D T2000     -11.068  -0.339 -10.814  1.00 83.04     0.250 C 
HETATM   29  C41   D T2000     -10.116  -0.696  -9.630  1.00 82.57     0.037 C 
ENDBRANCH  25  28
ENDBRANCH  24  25
ENDBRANCH  23  24
ENDBRANCH  21  23
ENDBRANCH   6  20
TORSDOF 7
ENDMDL
MODEL 3
REMARK VINA RESULT:    -6.941      2.417      3.557
REMARK INTER + INTRA:         -10.950
REMARK INTER:                  -9.828
REMARK INTRA:                  -1.121
REMARK UNBOUND:                -1.168
REMARK  7 active torsions:
REMARK  status: ('A' for Active; 'I' for Inactive)
REMARK    1  A    between atoms: C22_10  and  C19_16 
REMARK       I    between atoms: C22_10  and  N25_19 
REMARK    2  A    between atoms: C12_12  and  C18_15 
REMARK    3  A    between atoms: N25_19  and  C37_23 
REMARK    4  A    between atoms: C37_23  and  C38_24 
REMARK    5  A    between atoms: C38_24  and  N4_25 
REMARK    6  A    between atoms: N4_25  and  C39_26 
REMARK    7  A    between atoms: N4_25  and  C40_27 
ROOT
HETATM    1  C4    D T2000      -6.216   0.148 -13.651  1.00 48.44     0.052 C 
HETATM    2  C13   D T2000      -5.354  -2.736 -11.305  1.00 48.75     0.002 A 
HETATM    3  C3    D T2000      -5.392  -3.974 -10.333  1.00 43.40     0.033 C 
HETATM    4  C14   D T2000      -5.734  -0.978 -12.723  1.00 49.83     0.064 A 
HETATM    5  C18   D T2000      -4.148  -2.113 -11.689  1.00 45.93     0.077 A 
HETATM    6  C19   D T2000      -6.423  -1.985 -11.997  1.00 51.55     0.069 A 
HETATM    7  N23   D T2000      -4.430  -1.096 -12.510  1.00 47.90    -0.250 NA
ENDROOT
BRANCH   5   8
HETATM    8  C12   D T2000      -2.799  -2.530 -11.254  1.00 43.39     0.024 C 
HETATM    9  C20   D T2000      -2.074  -3.734 -11.467  1.00 43.86     0.061 A 
HETATM   10  C17   D T2000      -0.695  -4.122 -10.954  1.00 43.90     0.025 A 
HETATM   11  C21   D T2000      -2.420  -4.957 -12.233  1.00 40.96     0.279 A 
HETATM   12  C7    D T2000       0.258  -3.409 -10.127  1.00 45.29     0.031 A 
HETATM   13  C16   D T2000      -0.416  -5.411 -11.425  1.00 41.24     0.085 A 
HETATM   14  C15   D T2000       1.468  -4.038  -9.809  1.00 46.91     0.140 A 
HETATM   15  C5    D T2000       1.717  -5.352 -10.304  1.00 46.93     0.031 A 
HETATM   16  F29   D T2000       2.405  -3.449  -9.060  1.00 48.65    -0.204 F 
HETATM   17  C6    D T2000       0.785  -6.053 -11.114  1.00 43.16     0.021 A 
HETATM   18  N24   D T2000      -1.434  -5.886 -12.175  1.00 38.68    -0.208 NA
HETATM   19  O27   D T2000      -3.446  -5.118 -12.838  1.00 39.38    -0.265 OA
ENDBRANCH   5   8
BRANCH   6  20
HETATM   20  C22   D T2000      -7.937  -2.164 -12.000  1.00 57.19     0.276 C 
HETATM   21  N25   D T2000      -8.565  -2.723 -13.057  1.00 64.68    -0.232 NA
HETATM   22  O28   D T2000      -8.687  -1.834 -11.074  1.00 55.46    -0.266 OA
BRANCH  21  23
HETATM   23  C37   D T2000     -10.022  -2.917 -13.082  1.00 72.35     0.164 C 
BRANCH  23  24
HETATM   24  C38   D T2000     -10.655  -4.323 -12.855  1.00 75.73     0.276 C 
BRANCH  24  25
HETATM   25  N4    D T2000      -9.640  -5.354 -13.286  1.00 81.36     0.139 N 
BRANCH  25  26
HETATM   26  C39   D T2000     -10.278  -6.221 -14.369  1.00 83.55     0.250 C 
HETATM   27  C42   D T2000     -11.584  -5.822 -15.173  1.00 84.17     0.037 C 
ENDBRANCH  25  26
BRANCH  25  28
HETATM   28  C40   D T2000      -9.057  -6.132 -12.060  1.00 83.04     0.250 C 
HETATM   29  C41   D T2000      -8.743  -5.442 -10.696  1.00 82.57     0.037 C 
ENDBRANCH  25  28
ENDBRANCH  24  25
ENDBRANCH  23  24
ENDBRANCH  21  23
ENDBRANCH   6  20
TORSDOF 7
ENDMDL
MODEL 4
REMARK VINA RESULT:    -6.927      2.578      3.695
REMARK INTER + INTRA:         -10.929
REMARK INTER:                  -9.983
REMARK INTRA:                  -0.946
REMARK UNBOUND:                -1.168
REMARK  7 active torsions:
REMARK  status: ('A' for Active; 'I' for Inactive)
REMARK    1  A    between atoms: C22_10  and  C19_16 
REMARK       I    between atoms: C22_10  and  N25_19 
REMARK    2  A    between atoms: C12_12  and  C18_15 
REMARK    3  A    between atoms: N25_19  and  C37_23 
REMARK    4  A    between atoms: C37_23  and  C38_24 
REMARK    5  A    between atoms: C38_24  and  N4_25 
REMARK    6  A    between atoms: N4_25  and  C39_26 
REMARK    7  A    between atoms: N4_25  and  C40_27 
ROOT
HETATM    1  C4    D T2000      -6.418  -0.185 -13.609  1.00 48.44     0.052 C 
HETATM    2  C13   D T2000      -5.412  -2.908 -11.132  1.00 48.75     0.002 A 
HETATM    3  C3    D T2000      -5.390  -4.076 -10.078  1.00 43.40     0.033 C 
HETATM    4  C14   D T2000      -5.879  -1.248 -12.639  1.00 49.83     0.064 A 
HETATM    5  C18   D T2000      -4.232  -2.318 -11.632  1.00 45.93     0.077 A 
HETATM    6  C19   D T2000      -6.522  -2.200 -11.804  1.00 51.55     0.069 A 
HETATM    7  N23   D T2000      -4.565  -1.358 -12.501  1.00 47.90    -0.250 NA
ENDROOT
BRANCH   5   8
HETATM    8  C12   D T2000      -2.859  -2.711 -11.255  1.00 43.39     0.024 C 
HETATM    9  C20   D T2000      -2.133  -3.914 -11.472  1.00 43.86     0.061 A 
HETATM   10  C17   D T2000      -0.726  -4.276 -11.019  1.00 43.90     0.025 A 
HETATM   11  C21   D T2000      -2.506  -5.162 -12.185  1.00 40.96     0.279 A 
HETATM   12  C7    D T2000       0.261  -3.532 -10.263  1.00 45.29     0.031 A 
HETATM   13  C16   D T2000      -0.459  -5.575 -11.468  1.00 41.24     0.085 A 
HETATM   14  C15   D T2000       1.491  -4.142  -9.990  1.00 46.91     0.140 A 
HETATM   15  C5    D T2000       1.728  -5.467 -10.461  1.00 46.93     0.031 A 
HETATM   16  F29   D T2000       2.459  -3.525  -9.306  1.00 48.65    -0.204 F 
HETATM   17  C6    D T2000       0.762  -6.199 -11.202  1.00 43.16     0.021 A 
HETATM   18  N24   D T2000      -1.510  -6.080 -12.151  1.00 38.68    -0.208 NA
HETATM   19  O27   D T2000      -3.560  -5.348 -12.731  1.00 39.38    -0.265 OA
ENDBRANCH   5   8
BRANCH   6  20
HETATM   20  C22   D T2000      -8.033  -2.371 -11.700  1.00 57.19     0.276 C 
HETATM   21  N25   D T2000      -8.592  -3.601 -11.724  1.00 64.68    -0.232 NA
HETATM   22  O28   D T2000      -8.841  -1.443 -11.583  1.00 55.46    -0.266 OA
BRANCH  21  23
HETATM   23  C37   D T2000     -10.045  -3.796 -11.615  1.00 72.35     0.164 C 
BRANCH  23  24
HETATM   24  C38   D T2000     -10.948  -3.881 -12.882  1.00 75.73     0.276 C 
BRANCH  24  25
HETATM   25  N4    D T2000     -11.417  -5.311 -13.011  1.00 81.36     0.139 N 
BRANCH  25  26
HETATM   26  C39   D T2000     -11.499  -5.909 -11.608  1.00 83.55     0.250 C 
HETATM   27  C42   D T2000     -12.443  -7.118 -11.210  1.00 84.17     0.037 C 
ENDBRANCH  25  26
BRANCH  25  28
HETATM   28  C40   D T2000     -10.544  -6.111 -14.033  1.00 83.04     0.250 C 
HETATM   29  C41   D T2000      -9.536  -7.219 -13.594  1.00 82.57     0.037 C 
ENDBRANCH  25  28
ENDBRANCH  24  25
ENDBRANCH  23  24
ENDBRANCH  21  23
ENDBRANCH   6  20
TORSDOF 7
ENDMDL
MODEL 5
REMARK VINA RESULT:    -6.906      4.344      6.144
REMARK INTER + INTRA:         -10.899
REMARK INTER:                  -9.627
REMARK INTRA:                  -1.272
REMARK UNBOUND:                -1.168
REMARK  7 active torsions:
REMARK  status: ('A' for Active; 'I' for Inactive)
REMARK    1  A    between atoms: C22_10  and  C19_16 
REMARK       I    between atoms: C22_10  and  N25_19 
REMARK    2  A    between atoms: C12_12  and  C18_15 
REMARK    3  A    between atoms: N25_19  and  C37_23 
REMARK    4  A    between atoms: C37_23  and  C38_24 
REMARK    5  A    between atoms: C38_24  and  N4_25 
REMARK    6  A    between atoms: N4_25  and  C39_26 
REMARK    7  A    between atoms: N4_25  and  C40_27 
ROOT
HETATM    1  C4    D T2000      -1.539   2.565 -13.646  1.00 48.44     0.052 C 
HETATM    2  C13   D T2000      -2.207   0.175 -10.745  1.00 48.75     0.002 A 
HETATM    3  C3    D T2000      -2.671  -0.494  -9.399  1.00 43.40     0.033 C 
HETATM    4  C14   D T2000      -1.737   1.505 -12.550  1.00 49.83     0.064 A 
HETATM    5  C18   D T2000      -1.457  -0.520 -11.717  1.00 45.93     0.077 A 
HETATM    6  C19   D T2000      -2.403   1.533 -11.297  1.00 51.55     0.069 A 
HETATM    7  N23   D T2000      -1.210   0.303 -12.742  1.00 47.90    -0.250 NA
ENDROOT
BRANCH   5   8
HETATM    8  C12   D T2000      -1.028  -1.930 -11.612  1.00 43.39     0.024 C 
HETATM    9  C20   D T2000      -1.765  -3.144 -11.684  1.00 43.86     0.061 A 
HETATM   10  C17   D T2000      -1.268  -4.573 -11.525  1.00 43.90     0.025 A 
HETATM   11  C21   D T2000      -3.207  -3.395 -11.929  1.00 40.96     0.279 A 
HETATM   12  C7    D T2000       0.053  -5.108 -11.264  1.00 45.29     0.031 A 
HETATM   13  C16   D T2000      -2.371  -5.423 -11.672  1.00 41.24     0.085 A 
HETATM   14  C15   D T2000       0.204  -6.495 -11.163  1.00 46.91     0.140 A 
HETATM   15  C5    D T2000      -0.942  -7.330 -11.316  1.00 46.93     0.031 A 
HETATM   16  F29   D T2000       1.387  -7.072 -10.932  1.00 48.65    -0.204 F 
HETATM   17  C6    D T2000      -2.239  -6.809 -11.571  1.00 43.16     0.021 A 
HETATM   18  N24   D T2000      -3.499  -4.719 -11.911  1.00 38.68    -0.208 NA
HETATM   19  O27   D T2000      -4.028  -2.539 -12.122  1.00 39.38    -0.265 OA
ENDBRANCH   5   8
BRANCH   6  20
HETATM   20  C22   D T2000      -3.131   2.750 -10.737  1.00 57.19     0.276 C 
HETATM   21  N25   D T2000      -4.181   3.290 -11.393  1.00 64.68    -0.232 NA
HETATM   22  O28   D T2000      -2.841   3.319  -9.678  1.00 55.46    -0.266 OA
BRANCH  21  23
HETATM   23  C37   D T2000      -4.908   4.457 -10.871  1.00 72.35     0.164 C 
BRANCH  23  24
HETATM   24  C38   D T2000      -6.387   4.343 -10.397  1.00 75.73     0.276 C 
BRANCH  24  25
HETATM   25  N4    D T2000      -6.372   3.816  -8.982  1.00 81.36     0.139 N 
BRANCH  25  26
HETATM   26  C39   D T2000      -6.919   2.390  -9.003  1.00 83.55     0.250 C 
HETATM   27  C42   D T2000      -6.015   1.093  -9.116  1.00 84.17     0.037 C 
ENDBRANCH  25  26
BRANCH  25  28
HETATM   28  C40   D T2000      -7.092   4.796  -7.997  1.00 83.04     0.250 C 
HETATM   29  C41   D T2000      -7.025   4.633  -6.447  1.00 82.57     0.037 C 
ENDBRANCH  25  28
ENDBRANCH  24  25
ENDBRANCH  23  24
ENDBRANCH  21  23
ENDBRANCH   6  20
TORSDOF 7
ENDMDL
MODEL 6
REMARK VINA RESULT:    -6.873      2.281      3.092
REMARK INTER + INTRA:         -10.854
REMARK INTER:                  -9.784
REMARK INTRA:                  -1.069
REMARK UNBOUND:                -1.168
REMARK  7 active torsions:
REMARK  status: ('A' for Active; 'I' for Inactive)
REMARK    1  A    between atoms: C22_10  and  C19_16 
REMARK       I    between atoms: C22_10  and  N25_19 
REMARK    2  A    between atoms: C12_12  and  C18_15 
REMARK    3  A    between atoms: N25_19  and  C37_23 
REMARK    4  A    between atoms: C37_23  and  C38_24 
REMARK    5  A    between atoms: C38_24  and  N4_25 
REMARK    6  A    between atoms: N4_25  and  C39_26 
REMARK    7  A    between atoms: N4_25  and  C40_27 
ROOT
HETATM    1  C4    D T2000      -8.182  -6.315 -11.702  1.00 48.44     0.052 C 
HETATM    2  C13   D T2000      -6.162  -3.088 -11.972  1.00 48.75     0.002 A 
HETATM    3  C3    D T2000      -5.671  -1.614 -12.223  1.00 43.40     0.033 C 
HETATM    4  C14   D T2000      -7.260  -5.087 -11.759  1.00 49.83     0.064 A 
HETATM    5  C18   D T2000      -5.314  -4.090 -11.456  1.00 45.93     0.077 A 
HETATM    6  C19   D T2000      -7.471  -3.746 -12.174  1.00 51.55     0.069 A 
HETATM    7  N23   D T2000      -6.004  -5.231 -11.357  1.00 47.90    -0.250 NA
ENDROOT
BRANCH   5   8
HETATM    8  C12   D T2000      -3.897  -3.896 -11.082  1.00 43.39     0.024 C 
HETATM    9  C20   D T2000      -2.738  -4.673 -11.355  1.00 43.86     0.061 A 
HETATM   10  C17   D T2000      -1.304  -4.440 -10.904  1.00 43.90     0.025 A 
HETATM   11  C21   D T2000      -2.565  -5.920 -12.142  1.00 40.96     0.279 A 
HETATM   12  C7    D T2000      -0.709  -3.397 -10.093  1.00 45.29     0.031 A 
HETATM   13  C16   D T2000      -0.524  -5.483 -11.420  1.00 41.24     0.085 A 
HETATM   14  C15   D T2000       0.665  -3.453  -9.837  1.00 46.91     0.140 A 
HETATM   15  C5    D T2000       1.428  -4.530 -10.377  1.00 46.93     0.031 A 
HETATM   16  F29   D T2000       1.295  -2.528  -9.106  1.00 48.65    -0.204 F 
HETATM   17  C6    D T2000       0.848  -5.554 -11.172  1.00 43.16     0.021 A 
HETATM   18  N24   D T2000      -1.276  -6.340 -12.145  1.00 38.68    -0.208 NA
HETATM   19  O27   D T2000      -3.451  -6.498 -12.713  1.00 39.38    -0.265 OA
ENDBRANCH   5   8
BRANCH   6  20
HETATM   20  C22   D T2000      -8.796  -3.206 -12.699  1.00 57.19     0.276 C 
HETATM   21  N25   D T2000      -9.868  -3.094 -11.884  1.00 64.68    -0.232 NA
HETATM   22  O28   D T2000      -8.996  -2.836 -13.861  1.00 55.46    -0.266 OA
BRANCH  21  23
HETATM   23  C37   D T2000     -11.155  -2.567 -12.360  1.00 72.35     0.164 C 
BRANCH  23  24
HETATM   24  C38   D T2000     -12.400  -3.491 -12.512  1.00 75.73     0.276 C 
BRANCH  24  25
HETATM   25  N4    D T2000     -11.909  -4.919 -12.525  1.00 81.36     0.139 N 
BRANCH  25  26
HETATM   26  C39   D T2000     -11.718  -5.339 -13.981  1.00 83.55     0.250 C 
HETATM   27  C42   D T2000     -10.529  -6.251 -14.494  1.00 84.17     0.037 C 
ENDBRANCH  25  26
BRANCH  25  28
HETATM   28  C40   D T2000     -12.833  -5.851 -11.673  1.00 83.04     0.250 C 
HETATM   29  C41   D T2000     -12.336  -7.196 -11.058  1.00 82.57     0.037 C 
ENDBRANCH  25  28
ENDBRANCH  24  25
ENDBRANCH  23  24
ENDBRANCH  21  23
ENDBRANCH   6  20
TORSDOF 7
ENDMDL
MODEL 7
REMARK VINA RESULT:    -6.734      1.947      2.620
REMARK INTER + INTRA:         -10.657
REMARK INTER:                  -9.656
REMARK INTRA:                  -1.000
REMARK UNBOUND:                -1.168
REMARK  7 active torsions:
REMARK  status: ('A' for Active; 'I' for Inactive)
REMARK    1  A    between atoms: C22_10  and  C19_16 
REMARK       I    between atoms: C22_10  and  N25_19 
REMARK    2  A    between atoms: C12_12  and  C18_15 
REMARK    3  A    between atoms: N25_19  and  C37_23 
REMARK    4  A    between atoms: C37_23  and  C38_24 
REMARK    5  A    between atoms: C38_24  and  N4_25 
REMARK    6  A    between atoms: N4_25  and  C39_26 
REMARK    7  A    between atoms: N4_25  and  C40_27 
ROOT
HETATM    1  C4    D T2000      -8.749  -5.223 -10.695  1.00 48.44     0.052 C 
HETATM    2  C13   D T2000      -5.857  -3.777 -12.724  1.00 48.75     0.002 A 
HETATM    3  C3    D T2000      -4.957  -2.989 -13.746  1.00 43.40     0.033 C 
HETATM    4  C14   D T2000      -7.498  -4.718 -11.433  1.00 49.83     0.064 A 
HETATM    5  C18   D T2000      -5.317  -4.664 -11.768  1.00 45.93     0.077 A 
HETATM    6  C19   D T2000      -7.319  -3.804 -12.504  1.00 51.55     0.069 A 
HETATM    7  N23   D T2000      -6.317  -5.183 -11.049  1.00 47.90    -0.250 NA
ENDROOT
BRANCH   5   8
HETATM    8  C12   D T2000      -3.879  -4.955 -11.596  1.00 43.39     0.024 C 
HETATM    9  C20   D T2000      -2.818  -4.171 -11.066  1.00 43.86     0.061 A 
HETATM   10  C17   D T2000      -1.340  -4.515 -10.953  1.00 43.90     0.025 A 
HETATM   11  C21   D T2000      -2.815  -2.810 -10.475  1.00 40.96     0.279 A 
HETATM   12  C7    D T2000      -0.598  -5.699 -11.334  1.00 45.29     0.031 A 
HETATM   13  C16   D T2000      -0.694  -3.417 -10.371  1.00 41.24     0.085 A 
HETATM   14  C15   D T2000       0.783  -5.723 -11.106  1.00 46.91     0.140 A 
HETATM   15  C5    D T2000       1.408  -4.587 -10.513  1.00 46.93     0.031 A 
HETATM   16  F29   D T2000       1.542  -6.778 -11.420  1.00 48.65    -0.204 F 
HETATM   17  C6    D T2000       0.683  -3.424 -10.139  1.00 43.16     0.021 A 
HETATM   18  N24   D T2000      -1.571  -2.428 -10.094  1.00 38.68    -0.208 NA
HETATM   19  O27   D T2000      -3.789  -2.119 -10.342  1.00 39.38    -0.265 OA
ENDBRANCH   5   8
BRANCH   6  20
HETATM   20  C22   D T2000      -8.454  -3.064 -13.203  1.00 57.19     0.276 C 
HETATM   21  N25   D T2000      -9.457  -3.745 -13.800  1.00 64.68    -0.232 NA
HETATM   22  O28   D T2000      -8.554  -1.835 -13.277  1.00 55.46    -0.266 OA
BRANCH  21  23
HETATM   23  C37   D T2000     -10.569  -3.058 -14.473  1.00 72.35     0.164 C 
BRANCH  23  24
HETATM   24  C38   D T2000     -11.850  -3.829 -14.912  1.00 75.73     0.276 C 
BRANCH  24  25
HETATM   25  N4    D T2000     -11.579  -5.303 -14.725  1.00 81.36     0.139 N 
BRANCH  25  26
HETATM   26  C39   D T2000     -11.751  -5.989 -16.080  1.00 83.55     0.250 C 
HETATM   27  C42   D T2000     -10.900  -7.236 -16.559  1.00 84.17     0.037 C 
ENDBRANCH  25  26
BRANCH  25  28
HETATM   28  C40   D T2000     -12.432  -5.900 -13.557  1.00 83.04     0.250 C 
HETATM   29  C41   D T2000     -12.593  -5.183 -12.180  1.00 82.57     0.037 C 
ENDBRANCH  25  28
ENDBRANCH  24  25
ENDBRANCH  23  24
ENDBRANCH  21  23
ENDBRANCH   6  20
TORSDOF 7
ENDMDL
MODEL 8
REMARK VINA RESULT:    -6.723      2.419      3.351
REMARK INTER + INTRA:         -10.642
REMARK INTER:                  -9.926
REMARK INTRA:                  -0.716
REMARK UNBOUND:                -1.168
REMARK  7 active torsions:
REMARK  status: ('A' for Active; 'I' for Inactive)
REMARK    1  A    between atoms: C22_10  and  C19_16 
REMARK       I    between atoms: C22_10  and  N25_19 
REMARK    2  A    between atoms: C12_12  and  C18_15 
REMARK    3  A    between atoms: N25_19  and  C37_23 
REMARK    4  A    between atoms: C37_23  and  C38_24 
REMARK    5  A    between atoms: C38_24  and  N4_25 
REMARK    6  A    between atoms: N4_25  and  C39_26 
REMARK    7  A    between atoms: N4_25  and  C40_27 
ROOT
HETATM    1  C4    D T2000      -8.377  -5.595 -11.025  1.00 48.44     0.052 C 
HETATM    2  C13   D T2000      -5.854  -3.166 -12.543  1.00 48.75     0.002 A 
HETATM    3  C3    D T2000      -5.128  -2.052 -13.384  1.00 43.40     0.033 C 
HETATM    4  C14   D T2000      -7.265  -4.672 -11.550  1.00 49.83     0.064 A 
HETATM    5  C18   D T2000      -5.184  -3.938 -11.571  1.00 45.93     0.077 A 
HETATM    6  C19   D T2000      -7.252  -3.648 -12.533  1.00 51.55     0.069 A 
HETATM    7  N23   D T2000      -6.053  -4.798 -11.029  1.00 47.90    -0.250 NA
ENDROOT
BRANCH   5   8
HETATM    8  C12   D T2000      -3.757  -3.803 -11.213  1.00 43.39     0.024 C 
HETATM    9  C20   D T2000      -2.651  -4.675 -11.413  1.00 43.86     0.061 A 
HETATM   10  C17   D T2000      -1.203  -4.495 -10.981  1.00 43.90     0.025 A 
HETATM   11  C21   D T2000      -2.562  -5.996 -12.082  1.00 40.96     0.279 A 
HETATM   12  C7    D T2000      -0.539  -3.423 -10.268  1.00 45.29     0.031 A 
HETATM   13  C16   D T2000      -0.494  -5.628 -11.399  1.00 41.24     0.085 A 
HETATM   14  C15   D T2000       0.830  -3.544 -10.005  1.00 46.91     0.140 A 
HETATM   15  C5    D T2000       1.520  -4.712 -10.443  1.00 46.93     0.031 A 
HETATM   16  F29   D T2000       1.521  -2.599  -9.360  1.00 48.65    -0.204 F 
HETATM   17  C6    D T2000       0.871  -5.765 -11.142  1.00 43.16     0.021 A 
HETATM   18  N24   D T2000      -1.302  -6.497 -12.044  1.00 38.68    -0.208 NA
HETATM   19  O27   D T2000      -3.485  -6.565 -12.600  1.00 39.38    -0.265 OA
ENDBRANCH   5   8
BRANCH   6  20
HETATM   20  C22   D T2000      -8.469  -3.218 -13.344  1.00 57.19     0.276 C 
HETATM   21  N25   D T2000      -8.637  -1.927 -13.706  1.00 64.68    -0.232 NA
HETATM   22  O28   D T2000      -9.364  -3.979 -13.729  1.00 55.46    -0.266 OA
BRANCH  21  23
HETATM   23  C37   D T2000      -9.796  -1.486 -14.496  1.00 72.35     0.164 C 
BRANCH  23  24
HETATM   24  C38   D T2000      -9.730  -0.207 -15.384  1.00 75.73     0.276 C 
BRANCH  24  25
HETATM   25  N4    D T2000     -10.572  -0.461 -16.611  1.00 81.36     0.139 N 
BRANCH  25  26
HETATM   26  C39   D T2000     -10.602  -1.969 -16.859  1.00 83.55     0.250 C 
HETATM   27  C42   D T2000     -11.375  -2.657 -18.058  1.00 84.17     0.037 C 
ENDBRANCH  25  26
BRANCH  25  28
HETATM   28  C40   D T2000     -10.099   0.410 -17.822  1.00 83.04     0.250 C 
HETATM   29  C41   D T2000     -10.360   1.945 -17.908  1.00 82.57     0.037 C 
ENDBRANCH  25  28
ENDBRANCH  24  25
ENDBRANCH  23  24
ENDBRANCH  21  23
ENDBRANCH   6  20
TORSDOF 7
ENDMDL
MODEL 9
REMARK VINA RESULT:    -6.636      2.463      3.814
REMARK INTER + INTRA:         -10.519
REMARK INTER:                  -9.614
REMARK INTRA:                  -0.905
REMARK UNBOUND:                -1.168
REMARK  7 active torsions:
REMARK  status: ('A' for Active; 'I' for Inactive)
REMARK    1  A    between atoms: C22_10  and  C19_16 
REMARK       I    between atoms: C22_10  and  N25_19 
REMARK    2  A    between atoms: C12_12  and  C18_15 
REMARK    3  A    between atoms: N25_19  and  C37_23 
REMARK    4  A    between atoms: C37_23  and  C38_24 
REMARK    5  A    between atoms: C38_24  and  N4_25 
REMARK    6  A    between atoms: N4_25  and  C39_26 
REMARK    7  A    between atoms: N4_25  and  C40_27 
ROOT
HETATM    1  C4    D T2000      -5.266   1.885 -11.810  1.00 48.44     0.052 C 
HETATM    2  C13   D T2000      -4.773  -1.476 -10.071  1.00 48.75     0.002 A 
HETATM    3  C3    D T2000      -4.961  -2.831  -9.293  1.00 43.40     0.033 C 
HETATM    4  C14   D T2000      -4.932   0.542 -11.143  1.00 49.83     0.064 A 
HETATM    5  C18   D T2000      -3.518  -1.047 -10.552  1.00 45.93     0.077 A 
HETATM    6  C19   D T2000      -5.728  -0.419 -10.467  1.00 51.55     0.069 A 
HETATM    7  N23   D T2000      -3.670   0.132 -11.163  1.00 47.90    -0.250 NA
ENDROOT
BRANCH   5   8
HETATM    8  C12   D T2000      -2.251  -1.793 -10.405  1.00 43.39     0.024 C 
HETATM    9  C20   D T2000      -1.839  -3.055 -10.915  1.00 43.86     0.061 A 
HETATM   10  C17   D T2000      -0.528  -3.793 -10.692  1.00 43.90     0.025 A 
HETATM   11  C21   D T2000      -2.537  -4.024 -11.797  1.00 40.96     0.279 A 
HETATM   12  C7    D T2000       0.652  -3.446  -9.926  1.00 45.29     0.031 A 
HETATM   13  C16   D T2000      -0.598  -5.002 -11.395  1.00 41.24     0.085 A 
HETATM   14  C15   D T2000       1.723  -4.346  -9.904  1.00 46.91     0.140 A 
HETATM   15  C5    D T2000       1.616  -5.569 -10.630  1.00 46.93     0.031 A 
HETATM   16  F29   D T2000       2.850  -4.101  -9.230  1.00 48.65    -0.204 F 
HETATM   17  C6    D T2000       0.460  -5.913 -11.381  1.00 43.16     0.021 A 
HETATM   18  N24   D T2000      -1.780  -5.122 -12.039  1.00 38.68    -0.208 NA
HETATM   19  O27   D T2000      -3.639  -3.867 -12.249  1.00 39.38    -0.265 OA
ENDBRANCH   5   8
BRANCH   6  20
HETATM   20  C22   D T2000      -7.232  -0.291 -10.249  1.00 57.19     0.276 C 
HETATM   21  N25   D T2000      -8.102  -0.989 -11.012  1.00 64.68    -0.232 NA
HETATM   22  O28   D T2000      -7.762   0.426  -9.393  1.00 55.46    -0.266 OA
BRANCH  21  23
HETATM   23  C37   D T2000      -9.556  -0.892 -10.818  1.00 72.35     0.164 C 
BRANCH  23  24
HETATM   24  C38   D T2000     -10.521  -1.978 -11.381  1.00 75.73     0.276 C 
BRANCH  24  25
HETATM   25  N4    D T2000      -9.673  -3.064 -12.000  1.00 81.36     0.139 N 
BRANCH  25  26
HETATM   26  C39   D T2000      -9.943  -3.074 -13.503  1.00 83.55     0.250 C 
HETATM   27  C42   D T2000     -11.355  -2.775 -14.155  1.00 84.17     0.037 C 
ENDBRANCH  25  26
BRANCH  25  28
HETATM   28  C40   D T2000      -9.876  -4.434 -11.272  1.00 83.04     0.250 C 
HETATM   29  C41   D T2000      -8.708  -5.441 -11.033  1.00 82.57     0.037 C 
ENDBRANCH  25  28
ENDBRANCH  24  25
ENDBRANCH  23  24
ENDBRANCH  21  23
ENDBRANCH   6  20
TORSDOF 7
ENDMDL
