MODEL 1
REMARK VINA RESULT:    -9.041      0.000      0.000
REMARK INTER + INTRA:         -13.613
REMARK INTER:                 -12.741
REMARK INTRA:                  -0.872
REMARK UNBOUND:                -0.872
REMARK  7 active torsions:
REMARK  status: ('A' for Active; 'I' for Inactive)
REMARK    1  A    between atoms: C22_10  and  C19_16 
REMARK       I    between atoms: C22_10  and  N25_19 
REMARK    2  A    between atoms: C12_12  and  C18_15 
REMARK    3  A    between atoms: N25_19  and  C37_23 
REMARK    4  A    between atoms: C37_23  and  C38_24 
REMARK    5  A    between atoms: C38_24  and  N4_25 
REMARK    6  A    between atoms: N4_25  and  C39_26 
REMARK    7  A    between atoms: N4_25  and  C40_27 
ROOT
HETATM    1  C4    D T2000      -6.267  -3.362   8.592  1.00 48.44     0.052 C 
HETATM    2  C13   D T2000      -3.611  -3.824  11.294  1.00 48.75     0.002 A 
HETATM    3  C3    D T2000      -2.466  -3.625  12.354  1.00 43.40     0.033 C 
HETATM    4  C14   D T2000      -5.232  -3.684   9.681  1.00 49.83     0.064 A 
HETATM    5  C18   D T2000      -4.198  -5.083  11.041  1.00 45.93     0.077 A 
HETATM    6  C19   D T2000      -4.302  -2.880  10.389  1.00 51.55     0.069 A 
HETATM    7  N23   D T2000      -5.131  -4.940  10.094  1.00 47.90    -0.250 NA
ENDROOT
BRANCH   5   8
HETATM    8  C12   D T2000      -3.837  -6.342  11.725  1.00 43.39     0.024 C 
HETATM    9  C20   D T2000      -2.823  -7.300  11.455  1.00 43.86     0.061 A 
HETATM   10  C17   D T2000      -2.527  -8.607  12.176  1.00 43.90     0.025 A 
HETATM   11  C21   D T2000      -1.765  -7.332  10.414  1.00 40.96     0.279 A 
HETATM   12  C7    D T2000      -3.163  -9.242  13.313  1.00 45.29     0.031 A 
HETATM   13  C16   D T2000      -1.436  -9.207  11.534  1.00 41.24     0.085 A 
HETATM   14  C15   D T2000      -2.661 -10.470  13.758  1.00 46.91     0.140 A 
HETATM   15  C5    D T2000      -1.551 -11.053  13.079  1.00 46.93     0.031 A 
HETATM   16  F29   D T2000      -3.183 -11.121  14.802  1.00 48.65    -0.204 F 
HETATM   17  C6    D T2000      -0.927 -10.434  11.963  1.00 43.16     0.021 A 
HETATM   18  N24   D T2000      -1.000  -8.446  10.506  1.00 38.68    -0.208 NA
HETATM   19  O27   D T2000      -1.595  -6.479   9.585  1.00 39.38    -0.265 OA
ENDBRANCH   5   8
BRANCH   6  20
HETATM   20  C22   D T2000      -4.130  -1.379  10.184  1.00 57.19     0.276 C 
HETATM   21  N25   D T2000      -5.201  -0.555  10.185  1.00 64.68    -0.232 NA
HETATM   22  O28   D T2000      -3.046  -0.810  10.013  1.00 55.46    -0.266 OA
BRANCH  21  23
HETATM   23  C37   D T2000      -5.064   0.897  10.001  1.00 72.35     0.164 C 
BRANCH  23  24
HETATM   24  C38   D T2000      -5.393   1.573   8.636  1.00 75.73     0.276 C 
BRANCH  24  25
HETATM   25  N4    D T2000      -4.313   2.595   8.363  1.00 81.36     0.139 N 
BRANCH  25  26
HETATM   26  C39   D T2000      -3.337   2.573   9.540  1.00 83.55     0.250 C 
HETATM   27  C42   D T2000      -1.762   2.502   9.386  1.00 84.17     0.037 C 
ENDBRANCH  25  26
BRANCH  25  28
HETATM   28  C40   D T2000      -4.919   3.995   8.021  1.00 83.04     0.250 C 
HETATM   29  C41   D T2000      -5.698   4.274   6.698  1.00 82.57     0.037 C 
ENDBRANCH  25  28
ENDBRANCH  24  25
ENDBRANCH  23  24
ENDBRANCH  21  23
ENDBRANCH   6  20
TORSDOF 7
ENDMDL
MODEL 2
REMARK VINA RESULT:    -9.007      3.432     10.273
REMARK INTER + INTRA:         -13.565
REMARK INTER:                 -12.618
REMARK INTRA:                  -0.947
REMARK UNBOUND:                -0.872
REMARK  7 active torsions:
REMARK  status: ('A' for Active; 'I' for Inactive)
REMARK    1  A    between atoms: C22_10  and  C19_16 
REMARK       I    between atoms: C22_10  and  N25_19 
REMARK    2  A    between atoms: C12_12  and  C18_15 
REMARK    3  A    between atoms: N25_19  and  C37_23 
REMARK    4  A    between atoms: C37_23  and  C38_24 
REMARK    5  A    between atoms: C38_24  and  N4_25 
REMARK    6  A    between atoms: N4_25  and  C39_26 
REMARK    7  A    between atoms: N4_25  and  C40_27 
ROOT
HETATM    1  C4    D T2000      -3.720  -8.396  12.446  1.00 48.44     0.052 C 
HETATM    2  C13   D T2000      -1.505  -5.557  11.180  1.00 48.75     0.002 A 
HETATM    3  C3    D T2000      -0.315  -4.671  10.656  1.00 43.40     0.033 C 
HETATM    4  C14   D T2000      -2.941  -7.169  11.946  1.00 49.83     0.064 A 
HETATM    5  C18   D T2000      -2.798  -5.036  11.397  1.00 45.93     0.077 A 
HETATM    6  C19   D T2000      -1.593  -6.988  11.542  1.00 51.55     0.069 A 
HETATM    7  N23   D T2000      -3.589  -6.018  11.844  1.00 47.90    -0.250 NA
ENDROOT
BRANCH   5   8
HETATM    8  C12   D T2000      -3.202  -3.635  11.157  1.00 43.39     0.024 C 
HETATM    9  C20   D T2000      -4.218  -3.078  10.333  1.00 43.86     0.061 A 
HETATM   10  C17   D T2000      -4.559  -1.615  10.095  1.00 43.90     0.025 A 
HETATM   11  C21   D T2000      -5.235  -3.727   9.469  1.00 40.96     0.279 A 
HETATM   12  C7    D T2000      -3.976  -0.395  10.617  1.00 45.29     0.031 A 
HETATM   13  C16   D T2000      -5.632  -1.571   9.196  1.00 41.24     0.085 A 
HETATM   14  C15   D T2000      -4.510   0.830  10.204  1.00 46.91     0.140 A 
HETATM   15  C5    D T2000      -5.601   0.837   9.286  1.00 46.93     0.031 A 
HETATM   16  F29   D T2000      -4.038   2.002  10.641  1.00 48.65    -0.204 F 
HETATM   17  C6    D T2000      -6.174  -0.357   8.770  1.00 43.16     0.021 A 
HETATM   18  N24   D T2000      -6.019  -2.816   8.841  1.00 38.68    -0.208 NA
HETATM   19  O27   D T2000      -5.362  -4.914   9.333  1.00 39.38    -0.265 OA
ENDBRANCH   5   8
BRANCH   6  20
HETATM   20  C22   D T2000      -0.543  -8.095  11.524  1.00 57.19     0.276 C 
HETATM   21  N25   D T2000      -0.821  -9.301  10.981  1.00 64.68    -0.232 NA
HETATM   22  O28   D T2000       0.602  -7.987  11.977  1.00 55.46    -0.266 OA
BRANCH  21  23
HETATM   23  C37   D T2000       0.175 -10.381  10.940  1.00 72.35     0.164 C 
BRANCH  23  24
HETATM   24  C38   D T2000       0.209 -11.492  12.033  1.00 75.73     0.276 C 
BRANCH  24  25
HETATM   25  N4    D T2000      -1.208 -11.980  12.227  1.00 81.36     0.139 N 
BRANCH  25  26
HETATM   26  C39   D T2000      -1.644 -11.606  13.645  1.00 83.55     0.250 C 
HETATM   27  C42   D T2000      -1.079 -10.364  14.449  1.00 84.17     0.037 C 
ENDBRANCH  25  26
BRANCH  25  28
HETATM   28  C40   D T2000      -1.350 -13.493  11.859  1.00 83.04     0.250 C 
HETATM   29  C41   D T2000      -1.769 -13.977  10.436  1.00 82.57     0.037 C 
ENDBRANCH  25  28
ENDBRANCH  24  25
ENDBRANCH  23  24
ENDBRANCH  21  23
ENDBRANCH   6  20
TORSDOF 7
ENDMDL
MODEL 3
REMARK VINA RESULT:    -8.477      1.809      2.628
REMARK INTER + INTRA:         -12.818
REMARK INTER:                 -11.874
REMARK INTRA:                  -0.944
REMARK UNBOUND:                -0.872
REMARK  7 active torsions:
REMARK  status: ('A' for Active; 'I' for Inactive)
REMARK    1  A    between atoms: C22_10  and  C19_16 
REMARK       I    between atoms: C22_10  and  N25_19 
REMARK    2  A    between atoms: C12_12  and  C18_15 
REMARK    3  A    between atoms: N25_19  and  C37_23 
REMARK    4  A    between atoms: C37_23  and  C38_24 
REMARK    5  A    between atoms: C38_24  and  N4_25 
REMARK    6  A    between atoms: N4_25  and  C39_26 
REMARK    7  A    between atoms: N4_25  and  C40_27 
ROOT
HETATM    1  C4    D T2000      -6.369  -3.174   8.510  1.00 48.44     0.052 C 
HETATM    2  C13   D T2000      -3.707  -3.667  11.200  1.00 48.75     0.002 A 
HETATM    3  C3    D T2000      -2.560  -3.479  12.262  1.00 43.40     0.033 C 
HETATM    4  C14   D T2000      -5.331  -3.509   9.593  1.00 49.83     0.064 A 
HETATM    5  C18   D T2000      -4.290  -4.923  10.930  1.00 45.93     0.077 A 
HETATM    6  C19   D T2000      -4.402  -2.712  10.311  1.00 51.55     0.069 A 
HETATM    7  N23   D T2000      -5.225  -4.770   9.987  1.00 47.90    -0.250 NA
ENDROOT
BRANCH   5   8
HETATM    8  C12   D T2000      -3.924  -6.191  11.595  1.00 43.39     0.024 C 
HETATM    9  C20   D T2000      -2.865  -7.108  11.351  1.00 43.86     0.061 A 
HETATM   10  C17   D T2000      -2.564  -8.426  12.049  1.00 43.90     0.025 A 
HETATM   11  C21   D T2000      -1.754  -7.073  10.368  1.00 40.96     0.279 A 
HETATM   12  C7    D T2000      -3.238  -9.117  13.130  1.00 45.29     0.031 A 
HETATM   13  C16   D T2000      -1.422  -8.971  11.448  1.00 41.24     0.085 A 
HETATM   14  C15   D T2000      -2.720 -10.342  13.565  1.00 46.91     0.140 A 
HETATM   15  C5    D T2000      -1.557 -10.868  12.930  1.00 46.93     0.031 A 
HETATM   16  F29   D T2000      -3.273 -11.041  14.560  1.00 48.65    -0.204 F 
HETATM   17  C6    D T2000      -0.895 -10.194  11.867  1.00 43.16     0.021 A 
HETATM   18  N24   D T2000      -0.957  -8.165  10.468  1.00 38.68    -0.208 NA
HETATM   19  O27   D T2000      -1.568  -6.190   9.575  1.00 39.38    -0.265 OA
ENDBRANCH   5   8
BRANCH   6  20
HETATM   20  C22   D T2000      -4.236  -1.207  10.127  1.00 57.19     0.276 C 
HETATM   21  N25   D T2000      -3.644  -0.456  11.083  1.00 64.68    -0.232 NA
HETATM   22  O28   D T2000      -4.605  -0.574   9.132  1.00 55.46    -0.266 OA
BRANCH  21  23
HETATM   23  C37   D T2000      -3.461   0.994  10.928  1.00 72.35     0.164 C 
BRANCH  23  24
HETATM   24  C38   D T2000      -2.136   1.585  10.359  1.00 75.73     0.276 C 
BRANCH  24  25
HETATM   25  N4    D T2000      -1.018   1.166  11.286  1.00 81.36     0.139 N 
BRANCH  25  26
HETATM   26  C39   D T2000      -0.427   2.430  11.912  1.00 83.55     0.250 C 
HETATM   27  C42   D T2000      -0.122   2.595  13.458  1.00 84.17     0.037 C 
ENDBRANCH  25  26
BRANCH  25  28
HETATM   28  C40   D T2000       0.009   0.234  10.563  1.00 83.04     0.250 C 
HETATM   29  C41   D T2000      -0.180  -1.312  10.468  1.00 82.57     0.037 C 
ENDBRANCH  25  28
ENDBRANCH  24  25
ENDBRANCH  23  24
ENDBRANCH  21  23
ENDBRANCH   6  20
TORSDOF 7
ENDMDL
MODEL 4
REMARK VINA RESULT:    -8.408      2.072      2.725
REMARK INTER + INTRA:         -12.721
REMARK INTER:                 -11.980
REMARK INTRA:                  -0.742
REMARK UNBOUND:                -0.872
REMARK  7 active torsions:
REMARK  status: ('A' for Active; 'I' for Inactive)
REMARK    1  A    between atoms: C22_10  and  C19_16 
REMARK       I    between atoms: C22_10  and  N25_19 
REMARK    2  A    between atoms: C12_12  and  C18_15 
REMARK    3  A    between atoms: N25_19  and  C37_23 
REMARK    4  A    between atoms: C37_23  and  C38_24 
REMARK    5  A    between atoms: C38_24  and  N4_25 
REMARK    6  A    between atoms: N4_25  and  C39_26 
REMARK    7  A    between atoms: N4_25  and  C40_27 
ROOT
HETATM    1  C4    D T2000      -6.198  -4.201   9.191  1.00 48.44     0.052 C 
HETATM    2  C13   D T2000      -3.040  -3.292  11.134  1.00 48.75     0.002 A 
HETATM    3  C3    D T2000      -1.890  -2.551  11.912  1.00 43.40     0.033 C 
HETATM    4  C14   D T2000      -4.892  -3.971   9.969  1.00 49.83     0.064 A 
HETATM    5  C18   D T2000      -3.020  -4.683  10.898  1.00 45.93     0.077 A 
HETATM    6  C19   D T2000      -4.294  -2.807  10.518  1.00 51.55     0.069 A 
HETATM    7  N23   D T2000      -4.120  -5.020  10.216  1.00 47.90    -0.250 NA
ENDROOT
BRANCH   5   8
HETATM    8  C12   D T2000      -1.957  -5.606  11.346  1.00 43.39     0.024 C 
HETATM    9  C20   D T2000      -2.021  -6.864  12.004  1.00 43.86     0.061 A 
HETATM   10  C17   D T2000      -0.881  -7.753  12.479  1.00 43.90     0.025 A 
HETATM   11  C21   D T2000      -3.184  -7.684  12.426  1.00 40.96     0.279 A 
HETATM   12  C7    D T2000       0.557  -7.592  12.405  1.00 45.29     0.031 A 
HETATM   13  C16   D T2000      -1.448  -8.885  13.078  1.00 41.24     0.085 A 
HETATM   14  C15   D T2000       1.369  -8.596  12.944  1.00 46.91     0.140 A 
HETATM   15  C5    D T2000       0.758  -9.734  13.548  1.00 46.93     0.031 A 
HETATM   16  F29   D T2000       2.704  -8.532  12.912  1.00 48.65    -0.204 F 
HETATM   17  C6    D T2000      -0.652  -9.893  13.625  1.00 43.16     0.021 A 
HETATM   18  N24   D T2000      -2.798  -8.831  13.037  1.00 38.68    -0.208 NA
HETATM   19  O27   D T2000      -4.334  -7.382  12.254  1.00 39.38    -0.265 OA
ENDBRANCH   5   8
BRANCH   6  20
HETATM   20  C22   D T2000      -4.896  -1.409  10.434  1.00 57.19     0.276 C 
HETATM   21  N25   D T2000      -5.275  -0.891   9.245  1.00 64.68    -0.232 NA
HETATM   22  O28   D T2000      -5.087  -0.665  11.402  1.00 55.46    -0.266 OA
BRANCH  21  23
HETATM   23  C37   D T2000      -5.869   0.450   9.136  1.00 72.35     0.164 C 
BRANCH  23  24
HETATM   24  C38   D T2000      -5.304   1.505   8.138  1.00 75.73     0.276 C 
BRANCH  24  25
HETATM   25  N4    D T2000      -4.771   2.661   8.953  1.00 81.36     0.139 N 
BRANCH  25  26
HETATM   26  C39   D T2000      -4.644   3.871   8.027  1.00 83.55     0.250 C 
HETATM   27  C42   D T2000      -5.666   4.212   6.866  1.00 84.17     0.037 C 
ENDBRANCH  25  26
BRANCH  25  28
HETATM   28  C40   D T2000      -3.470   2.268   9.726  1.00 83.04     0.250 C 
HETATM   29  C41   D T2000      -2.270   1.544   9.039  1.00 82.57     0.037 C 
ENDBRANCH  25  28
ENDBRANCH  24  25
ENDBRANCH  23  24
ENDBRANCH  21  23
ENDBRANCH   6  20
TORSDOF 7
ENDMDL
MODEL 5
REMARK VINA RESULT:    -8.230      2.070      2.728
REMARK INTER + INTRA:         -12.469
REMARK INTER:                 -11.541
REMARK INTRA:                  -0.928
REMARK UNBOUND:                -0.872
REMARK  7 active torsions:
REMARK  status: ('A' for Active; 'I' for Inactive)
REMARK    1  A    between atoms: C22_10  and  C19_16 
REMARK       I    between atoms: C22_10  and  N25_19 
REMARK    2  A    between atoms: C12_12  and  C18_15 
REMARK    3  A    between atoms: N25_19  and  C37_23 
REMARK    4  A    between atoms: C37_23  and  C38_24 
REMARK    5  A    between atoms: C38_24  and  N4_25 
REMARK    6  A    between atoms: N4_25  and  C39_26 
REMARK    7  A    between atoms: N4_25  and  C40_27 
ROOT
HETATM    1  C4    D T2000      -5.908  -4.466   9.480  1.00 48.44     0.052 C 
HETATM    2  C13   D T2000      -2.422  -4.821  10.991  1.00 48.75     0.002 A 
HETATM    3  C3    D T2000      -1.022  -4.576  11.669  1.00 43.40     0.033 C 
HETATM    4  C14   D T2000      -4.512  -4.746  10.059  1.00 49.83     0.064 A 
HETATM    5  C18   D T2000      -2.840  -6.098  10.559  1.00 45.93     0.077 A 
HETATM    6  C19   D T2000      -3.539  -3.910  10.663  1.00 51.55     0.069 A 
HETATM    7  N23   D T2000      -4.061  -5.992  10.024  1.00 47.90    -0.250 NA
ENDROOT
BRANCH   5   8
HETATM    8  C12   D T2000      -2.052  -7.341  10.691  1.00 43.39     0.024 C 
HETATM    9  C20   D T2000      -2.174  -8.440  11.584  1.00 43.86     0.061 A 
HETATM   10  C17   D T2000      -1.300  -9.680  11.698  1.00 43.90     0.025 A 
HETATM   11  C21   D T2000      -3.161  -8.717  12.658  1.00 40.96     0.279 A 
HETATM   12  C7    D T2000      -0.127 -10.099  10.958  1.00 45.29     0.031 A 
HETATM   13  C16   D T2000      -1.817 -10.469  12.733  1.00 41.24     0.085 A 
HETATM   14  C15   D T2000       0.479 -11.313  11.300  1.00 46.91     0.140 A 
HETATM   15  C5    D T2000      -0.073 -12.090  12.360  1.00 46.93     0.031 A 
HETATM   16  F29   D T2000       1.559 -11.779  10.665  1.00 48.65    -0.204 F 
HETATM   17  C6    D T2000      -1.222 -11.680  13.089  1.00 43.16     0.021 A 
HETATM   18  N24   D T2000      -2.909  -9.893  13.284  1.00 38.68    -0.208 NA
HETATM   19  O27   D T2000      -4.079  -7.997  12.947  1.00 39.38    -0.265 OA
ENDBRANCH   5   8
BRANCH   6  20
HETATM   20  C22   D T2000      -3.707  -2.409  10.879  1.00 57.19     0.276 C 
HETATM   21  N25   D T2000      -2.680  -1.560  10.653  1.00 64.68    -0.232 NA
HETATM   22  O28   D T2000      -4.751  -1.864  11.254  1.00 55.46    -0.266 OA
BRANCH  21  23
HETATM   23  C37   D T2000      -2.817  -0.109  10.842  1.00 72.35     0.164 C 
BRANCH  23  24
HETATM   24  C38   D T2000      -2.703   0.877   9.640  1.00 75.73     0.276 C 
BRANCH  24  25
HETATM   25  N4    D T2000      -3.787   1.918   9.802  1.00 81.36     0.139 N 
BRANCH  25  26
HETATM   26  C39   D T2000      -5.138   1.208   9.711  1.00 83.55     0.250 C 
HETATM   27  C42   D T2000      -5.573   0.278   8.504  1.00 84.17     0.037 C 
ENDBRANCH  25  26
BRANCH  25  28
HETATM   28  C40   D T2000      -3.588   3.112   8.812  1.00 83.04     0.250 C 
HETATM   29  C41   D T2000      -4.783   3.842   8.123  1.00 82.57     0.037 C 
ENDBRANCH  25  28
ENDBRANCH  24  25
ENDBRANCH  23  24
ENDBRANCH  21  23
ENDBRANCH   6  20
TORSDOF 7
ENDMDL
MODEL 6
REMARK VINA RESULT:    -8.149      4.004      9.899
REMARK INTER + INTRA:         -12.355
REMARK INTER:                 -11.505
REMARK INTRA:                  -0.851
REMARK UNBOUND:                -0.872
REMARK  7 active torsions:
REMARK  status: ('A' for Active; 'I' for Inactive)
REMARK    1  A    between atoms: C22_10  and  C19_16 
REMARK       I    between atoms: C22_10  and  N25_19 
REMARK    2  A    between atoms: C12_12  and  C18_15 
REMARK    3  A    between atoms: N25_19  and  C37_23 
REMARK    4  A    between atoms: C37_23  and  C38_24 
REMARK    5  A    between atoms: C38_24  and  N4_25 
REMARK    6  A    between atoms: N4_25  and  C39_26 
REMARK    7  A    between atoms: N4_25  and  C40_27 
ROOT
HETATM    1  C4    D T2000      -3.770  -8.492  12.478  1.00 48.44     0.052 C 
HETATM    2  C13   D T2000      -1.513  -5.650  11.296  1.00 48.75     0.002 A 
HETATM    3  C3    D T2000      -0.306  -4.763  10.814  1.00 43.40     0.033 C 
HETATM    4  C14   D T2000      -2.974  -7.264  12.009  1.00 49.83     0.064 A 
HETATM    5  C18   D T2000      -2.812  -5.128  11.475  1.00 45.93     0.077 A 
HETATM    6  C19   D T2000      -1.614  -7.083  11.648  1.00 51.55     0.069 A 
HETATM    7  N23   D T2000      -3.618  -6.111  11.892  1.00 47.90    -0.250 NA
ENDROOT
BRANCH   5   8
HETATM    8  C12   D T2000      -3.206  -3.725  11.229  1.00 43.39     0.024 C 
HETATM    9  C20   D T2000      -4.198  -3.164  10.380  1.00 43.86     0.061 A 
HETATM   10  C17   D T2000      -4.530  -1.698  10.138  1.00 43.90     0.025 A 
HETATM   11  C21   D T2000      -5.193  -3.807   9.486  1.00 40.96     0.279 A 
HETATM   12  C7    D T2000      -3.958  -0.482  10.679  1.00 45.29     0.031 A 
HETATM   13  C16   D T2000      -5.578  -1.649   9.210  1.00 41.24     0.085 A 
HETATM   14  C15   D T2000      -4.479   0.746  10.256  1.00 46.91     0.140 A 
HETATM   15  C5    D T2000      -5.544   0.759   9.309  1.00 46.93     0.031 A 
HETATM   16  F29   D T2000      -4.016   1.915  10.710  1.00 48.65    -0.204 F 
HETATM   17  C6    D T2000      -6.105  -0.432   8.775  1.00 43.16     0.021 A 
HETATM   18  N24   D T2000      -5.957  -2.892   8.840  1.00 38.68    -0.208 NA
HETATM   19  O27   D T2000      -5.319  -4.993   9.343  1.00 39.38    -0.265 OA
ENDBRANCH   5   8
BRANCH   6  20
HETATM   20  C22   D T2000      -0.566  -8.190  11.657  1.00 57.19     0.276 C 
HETATM   21  N25   D T2000       0.295  -8.318  12.691  1.00 64.68    -0.232 NA
HETATM   22  O28   D T2000      -0.424  -9.033  10.765  1.00 55.46    -0.266 OA
BRANCH  21  23
HETATM   23  C37   D T2000       1.308  -9.382  12.732  1.00 72.35     0.164 C 
BRANCH  23  24
HETATM   24  C38   D T2000       2.560  -9.272  13.653  1.00 75.73     0.276 C 
BRANCH  24  25
HETATM   25  N4    D T2000       2.273  -8.204  14.683  1.00 81.36     0.139 N 
BRANCH  25  26
HETATM   26  C39   D T2000       3.500  -7.295  14.774  1.00 83.55     0.250 C 
HETATM   27  C42   D T2000       4.871  -7.719  15.446  1.00 84.17     0.037 C 
ENDBRANCH  25  26
BRANCH  25  28
HETATM   28  C40   D T2000       1.797  -8.824  16.037  1.00 83.04     0.250 C 
HETATM   29  C41   D T2000       1.486  -7.958  17.297  1.00 82.57     0.037 C 
ENDBRANCH  25  28
ENDBRANCH  24  25
ENDBRANCH  23  24
ENDBRANCH  21  23
ENDBRANCH   6  20
TORSDOF 7
ENDMDL
MODEL 7
REMARK VINA RESULT:    -7.940      3.654     10.621
REMARK INTER + INTRA:         -12.061
REMARK INTER:                 -10.967
REMARK INTRA:                  -1.094
REMARK UNBOUND:                -0.872
REMARK  7 active torsions:
REMARK  status: ('A' for Active; 'I' for Inactive)
REMARK    1  A    between atoms: C22_10  and  C19_16 
REMARK       I    between atoms: C22_10  and  N25_19 
REMARK    2  A    between atoms: C12_12  and  C18_15 
REMARK    3  A    between atoms: N25_19  and  C37_23 
REMARK    4  A    between atoms: C37_23  and  C38_24 
REMARK    5  A    between atoms: C38_24  and  N4_25 
REMARK    6  A    between atoms: N4_25  and  C39_26 
REMARK    7  A    between atoms: N4_25  and  C40_27 
ROOT
HETATM    1  C4    D T2000       1.549  -7.750  12.641  1.00 48.44     0.052 C 
HETATM    2  C13   D T2000      -2.245  -8.153  12.530  1.00 48.75     0.002 A 
HETATM    3  C3    D T2000      -3.732  -8.639  12.706  1.00 43.40     0.033 C 
HETATM    4  C14   D T2000       0.017  -7.796  12.517  1.00 49.83     0.064 A 
HETATM    5  C18   D T2000      -1.908  -7.004  11.783  1.00 45.93     0.077 A 
HETATM    6  C19   D T2000      -0.960  -8.688  13.029  1.00 51.55     0.069 A 
HETATM    7  N23   D T2000      -0.580  -6.848  11.809  1.00 47.90    -0.250 NA
ENDROOT
BRANCH   5   8
HETATM    8  C12   D T2000      -2.875  -6.122  11.097  1.00 43.39     0.024 C 
HETATM    9  C20   D T2000      -3.060  -4.713  11.148  1.00 43.86     0.061 A 
HETATM   10  C17   D T2000      -4.108  -3.862  10.446  1.00 43.90     0.025 A 
HETATM   11  C21   D T2000      -2.317  -3.659  11.881  1.00 40.96     0.279 A 
HETATM   12  C7    D T2000      -5.188  -4.216   9.547  1.00 45.29     0.031 A 
HETATM   13  C16   D T2000      -3.888  -2.530  10.816  1.00 41.24     0.085 A 
HETATM   14  C15   D T2000      -6.008  -3.195   9.054  1.00 46.91     0.140 A 
HETATM   15  C5    D T2000      -5.757  -1.850   9.454  1.00 46.93     0.031 A 
HETATM   16  F29   D T2000      -7.021  -3.432   8.216  1.00 48.65    -0.204 F 
HETATM   17  C6    D T2000      -4.700  -1.500  10.337  1.00 43.16     0.021 A 
HETATM   18  N24   D T2000      -2.834  -2.426  11.655  1.00 38.68    -0.208 NA
HETATM   19  O27   D T2000      -1.368  -3.857  12.592  1.00 39.38    -0.265 OA
ENDBRANCH   5   8
BRANCH   6  20
HETATM   20  C22   D T2000      -0.647  -9.904  13.895  1.00 57.19     0.276 C 
HETATM   21  N25   D T2000      -0.167 -11.040  13.342  1.00 64.68    -0.232 NA
HETATM   22  O28   D T2000      -0.793  -9.952  15.121  1.00 55.46    -0.266 OA
BRANCH  21  23
HETATM   23  C37   D T2000       0.154 -12.223  14.153  1.00 72.35     0.164 C 
BRANCH  23  24
HETATM   24  C38   D T2000      -0.758 -13.486  14.136  1.00 75.73     0.276 C 
BRANCH  24  25
HETATM   25  N4    D T2000      -1.791 -13.286  13.051  1.00 81.36     0.139 N 
BRANCH  25  26
HETATM   26  C39   D T2000      -3.165 -13.202  13.718  1.00 83.55     0.250 C 
HETATM   27  C42   D T2000      -3.695 -11.932  14.502  1.00 84.17     0.037 C 
ENDBRANCH  25  26
BRANCH  25  28
HETATM   28  C40   D T2000      -1.657 -14.362  11.925  1.00 83.04     0.250 C 
HETATM   29  C41   D T2000      -1.787 -14.015  10.409  1.00 82.57     0.037 C 
ENDBRANCH  25  28
ENDBRANCH  24  25
ENDBRANCH  23  24
ENDBRANCH  21  23
ENDBRANCH   6  20
TORSDOF 7
ENDMDL
MODEL 8
REMARK VINA RESULT:    -7.778      3.588     10.677
REMARK INTER + INTRA:         -11.833
REMARK INTER:                 -11.761
REMARK INTRA:                  -0.072
REMARK UNBOUND:                -0.872
REMARK  7 active torsions:
REMARK  status: ('A' for Active; 'I' for Inactive)
REMARK    1  A    between atoms: C22_10  and  C19_16 
REMARK       I    between atoms: C22_10  and  N25_19 
REMARK    2  A    between atoms: C12_12  and  C18_15 
REMARK    3  A    between atoms: N25_19  and  C37_23 
REMARK    4  A    between atoms: C37_23  and  C38_24 
REMARK    5  A    between atoms: C38_24  and  N4_25 
REMARK    6  A    between atoms: N4_25  and  C39_26 
REMARK    7  A    between atoms: N4_25  and  C40_27 
ROOT
HETATM    1  C4    D T2000      -2.115  -3.505  12.650  1.00 48.44     0.052 C 
HETATM    2  C13   D T2000      -4.732  -3.087   9.904  1.00 48.75     0.002 A 
HETATM    3  C3    D T2000      -5.868  -3.302   8.836  1.00 43.40     0.033 C 
HETATM    4  C14   D T2000      -3.132  -3.201  11.538  1.00 49.83     0.064 A 
HETATM    5  C18   D T2000      -4.118  -1.834  10.113  1.00 45.93     0.077 A 
HETATM    6  C19   D T2000      -4.079  -4.009  10.858  1.00 51.55     0.069 A 
HETATM    7  N23   D T2000      -3.195  -1.961  11.073  1.00 47.90    -0.250 NA
ENDROOT
BRANCH   5   8
HETATM    8  C12   D T2000      -4.456  -0.590   9.391  1.00 43.39     0.024 C 
HETATM    9  C20   D T2000      -3.861   0.701   9.415  1.00 43.86     0.061 A 
HETATM   10  C17   D T2000      -4.284   1.961   8.674  1.00 43.90     0.025 A 
HETATM   11  C21   D T2000      -2.677   1.214  10.147  1.00 40.96     0.279 A 
HETATM   12  C7    D T2000      -5.376   2.215   7.756  1.00 45.29     0.031 A 
HETATM   13  C16   D T2000      -3.390   2.979   9.028  1.00 41.24     0.085 A 
HETATM   14  C15   D T2000      -5.518   3.503   7.228  1.00 46.91     0.140 A 
HETATM   15  C5    D T2000      -4.591   4.516   7.611  1.00 46.93     0.031 A 
HETATM   16  F29   D T2000      -6.492   3.822   6.370  1.00 48.65    -0.204 F 
HETATM   17  C6    D T2000      -3.520   4.271   8.513  1.00 43.16     0.021 A 
HETATM   18  N24   D T2000      -2.453   2.526   9.889  1.00 38.68    -0.208 NA
HETATM   19  O27   D T2000      -1.989   0.558  10.883  1.00 39.38    -0.265 OA
ENDBRANCH   5   8
BRANCH   6  20
HETATM   20  C22   D T2000      -4.296  -5.494  11.127  1.00 57.19     0.276 C 
HETATM   21  N25   D T2000      -3.245  -6.332  11.260  1.00 64.68    -0.232 NA
HETATM   22  O28   D T2000      -5.401  -6.034  11.248  1.00 55.46    -0.266 OA
BRANCH  21  23
HETATM   23  C37   D T2000      -3.424  -7.766  11.531  1.00 72.35     0.164 C 
BRANCH  23  24
HETATM   24  C38   D T2000      -2.848  -8.423  12.822  1.00 75.73     0.276 C 
BRANCH  24  25
HETATM   25  N4    D T2000      -2.091  -9.662  12.401  1.00 81.36     0.139 N 
BRANCH  25  26
HETATM   26  C39   D T2000      -2.021 -10.603  13.605  1.00 83.55     0.250 C 
HETATM   27  C42   D T2000      -3.156 -10.724  14.703  1.00 84.17     0.037 C 
ENDBRANCH  25  26
BRANCH  25  28
HETATM   28  C40   D T2000      -0.715  -9.301  11.752  1.00 83.04     0.250 C 
HETATM   29  C41   D T2000       0.049 -10.275  10.803  1.00 82.57     0.037 C 
ENDBRANCH  25  28
ENDBRANCH  24  25
ENDBRANCH  23  24
ENDBRANCH  21  23
ENDBRANCH   6  20
TORSDOF 7
ENDMDL
MODEL 9
REMARK VINA RESULT:    -7.459      6.239      8.948
REMARK INTER + INTRA:         -11.383
REMARK INTER:                 -10.453
REMARK INTRA:                  -0.930
REMARK UNBOUND:                -0.872
REMARK  7 active torsions:
REMARK  status: ('A' for Active; 'I' for Inactive)
REMARK    1  A    between atoms: C22_10  and  C19_16 
REMARK       I    between atoms: C22_10  and  N25_19 
REMARK    2  A    between atoms: C12_12  and  C18_15 
REMARK    3  A    between atoms: N25_19  and  C37_23 
REMARK    4  A    between atoms: C37_23  and  C38_24 
REMARK    5  A    between atoms: C38_24  and  N4_25 
REMARK    6  A    between atoms: N4_25  and  C39_26 
REMARK    7  A    between atoms: N4_25  and  C40_27 
ROOT
HETATM    1  C4    D T2000      -0.383   2.607  13.087  1.00 48.44     0.052 C 
HETATM    2  C13   D T2000       0.166   1.093   9.626  1.00 48.75     0.002 A 
HETATM    3  C3    D T2000      -0.005   0.482   8.185  1.00 43.40     0.033 C 
HETATM    4  C14   D T2000      -0.024   2.002  11.720  1.00 49.83     0.064 A 
HETATM    5  C18   D T2000       1.430   1.283  10.222  1.00 45.93     0.077 A 
HETATM    6  C19   D T2000      -0.815   1.577  10.621  1.00 51.55     0.069 A 
HETATM    7  N23   D T2000       1.257   1.811  11.439  1.00 47.90    -0.250 NA
ENDROOT
BRANCH   5   8
HETATM    8  C12   D T2000       2.726   0.955   9.592  1.00 43.39     0.024 C 
HETATM    9  C20   D T2000       3.688  -0.048   9.890  1.00 43.86     0.061 A 
HETATM   10  C17   D T2000       5.031  -0.310   9.226  1.00 43.90     0.025 A 
HETATM   11  C21   D T2000       3.689  -1.123  10.913  1.00 40.96     0.279 A 
HETATM   12  C7    D T2000       5.708   0.357   8.131  1.00 45.29     0.031 A 
HETATM   13  C16   D T2000       5.620  -1.401   9.876  1.00 41.24     0.085 A 
HETATM   14  C15   D T2000       6.964  -0.116   7.736  1.00 46.91     0.140 A 
HETATM   15  C5    D T2000       7.534  -1.228   8.422  1.00 46.93     0.031 A 
HETATM   16  F29   D T2000       7.654   0.434   6.732  1.00 48.65    -0.204 F 
HETATM   17  C6    D T2000       6.874  -1.883   9.497  1.00 43.16     0.021 A 
HETATM   18  N24   D T2000       4.820  -1.869  10.860  1.00 38.68    -0.208 NA
HETATM   19  O27   D T2000       2.801  -1.323  11.698  1.00 39.38    -0.265 OA
ENDBRANCH   5   8
BRANCH   6  20
HETATM   20  C22   D T2000      -2.338   1.645  10.579  1.00 57.19     0.276 C 
HETATM   21  N25   D T2000      -3.089   0.648  11.097  1.00 64.68    -0.232 NA
HETATM   22  O28   D T2000      -2.988   2.578  10.096  1.00 55.46    -0.266 OA
BRANCH  21  23
HETATM   23  C37   D T2000      -4.558   0.693  11.081  1.00 72.35     0.164 C 
BRANCH  23  24
HETATM   24  C38   D T2000      -5.405  -0.612  10.984  1.00 75.73     0.276 C 
BRANCH  24  25
HETATM   25  N4    D T2000      -6.034  -0.644   9.610  1.00 81.36     0.139 N 
BRANCH  25  26
HETATM   26  C39   D T2000      -5.469  -1.853   8.862  1.00 83.55     0.250 C 
HETATM   27  C42   D T2000      -6.149  -3.283   8.845  1.00 84.17     0.037 C 
ENDBRANCH  25  26
BRANCH  25  28
HETATM   28  C40   D T2000      -5.883   0.729   8.877  1.00 83.04     0.250 C 
HETATM   29  C41   D T2000      -4.969   0.919   7.627  1.00 82.57     0.037 C 
ENDBRANCH  25  28
ENDBRANCH  24  25
ENDBRANCH  23  24
ENDBRANCH  21  23
ENDBRANCH   6  20
TORSDOF 7
ENDMDL
