MODEL 1
REMARK VINA RESULT:      -8.1      0.000      0.000
REMARK  2 active torsions:
REMARK  status: ('A' for Active; 'I' for Inactive)
REMARK    1  A    between atoms: C5_4  and  O7_13 
REMARK    2  A    between atoms: C8_10  and  O7_13 
ROOT
HETATM    1  O7    D T1258      -0.928  32.019  19.350  1.00 25.09    -0.304 OA
ENDROOT
BRANCH   1   2
HETATM    2  C5    D T1258      -0.866  30.696  19.068  1.00 24.92     0.125 A 
HETATM    3  C6    D T1258      -0.160  30.241  17.886  1.00 20.38     0.154 A 
HETATM    4  C1    D T1258      -0.088  28.911  17.610  1.00 24.39     0.041 A 
HETATM    5  O17   D T1258       0.400  31.133  17.053  1.00 23.90    -0.188 OA
HETATM    6  C2    D T1258      -0.701  27.978  18.468  1.00 24.16     0.060 A 
HETATM    7  C3    D T1258      -1.384  28.418  19.623  1.00 22.08     0.014 A 
HETATM    8 CL14   D T1258      -0.601  26.249  18.106  1.00 26.89    -0.082 Cl
HETATM    9  C4    D T1258      -1.414  29.773  19.940  1.00 21.98     0.028 A 
ENDBRANCH   1   2
BRANCH   1  10
HETATM   10  C8    D T1258      -2.092  32.685  19.207  1.00 26.64     0.111 A 
HETATM   11  C9    D T1258      -2.333  33.894  19.969  1.00 26.93     0.081 A 
HETATM   12  C10   D T1258      -3.526  34.533  19.865  1.00 30.17     0.025 A 
HETATM   13 CL16   D T1258      -1.105  34.495  21.079  1.00 51.29    -0.080 Cl
HETATM   14  C11   D T1258      -4.544  33.979  19.104  1.00 28.51     0.059 A 
HETATM   15  C12   D T1258      -4.310  32.800  18.347  1.00 27.32     0.013 A 
HETATM   16 CL15   D T1258      -6.108  34.781  19.019  1.00 39.13    -0.082 Cl
HETATM   17  C13   D T1258      -3.086  32.171  18.408  1.00 28.27     0.026 A 
ENDBRANCH   1  10
TORSDOF 2
ENDMDL
MODEL 2
REMARK VINA RESULT:      -8.0     10.819     12.694
REMARK  2 active torsions:
REMARK  status: ('A' for Active; 'I' for Inactive)
REMARK    1  A    between atoms: C5_4  and  O7_13 
REMARK    2  A    between atoms: C8_10  and  O7_13 
ROOT
HETATM    1  O7    D T1258       1.005  32.264   7.669  1.00 25.09    -0.304 OA
ENDROOT
BRANCH   1   2
HETATM    2  C5    D T1258       1.630  32.008   8.843  1.00 24.92     0.125 A 
HETATM    3  C6    D T1258       2.398  33.050   9.496  1.00 20.38     0.154 A 
HETATM    4  C1    D T1258       3.016  32.795  10.681  1.00 24.39     0.041 A 
HETATM    5  O17   D T1258       2.519  34.257   8.920  1.00 23.90    -0.188 OA
HETATM    6  C2    D T1258       2.913  31.519  11.270  1.00 24.16     0.060 A 
HETATM    7  C3    D T1258       2.161  30.504  10.638  1.00 22.08     0.014 A 
HETATM    8 CL14   D T1258       3.716  31.194  12.812  1.00 26.89    -0.082 Cl
HETATM    9  C4    D T1258       1.482  30.776   9.455  1.00 21.98     0.028 A 
ENDBRANCH   1   2
BRANCH   1  10
HETATM   10  C8    D T1258       1.056  31.364   6.667  1.00 26.64     0.111 A 
HETATM   11  C9    D T1258       2.322  31.059   6.030  1.00 26.93     0.081 A 
HETATM   12  C10   D T1258       2.362  30.194   4.986  1.00 30.17     0.025 A 
HETATM   13 CL16   D T1258       3.794  31.862   6.567  1.00 51.29    -0.080 Cl
HETATM   14  C11   D T1258       1.184  29.674   4.469  1.00 28.51     0.059 A 
HETATM   15  C12   D T1258      -0.058  29.962   5.096  1.00 27.32     0.013 A 
HETATM   16 CL15   D T1258       1.238  28.598   3.079  1.00 39.13    -0.082 Cl
HETATM   17  C13   D T1258      -0.104  30.801   6.187  1.00 28.27     0.026 A 
ENDBRANCH   1  10
TORSDOF 2
ENDMDL
MODEL 3
REMARK VINA RESULT:      -8.0      1.405      2.021
REMARK  2 active torsions:
REMARK  status: ('A' for Active; 'I' for Inactive)
REMARK    1  A    between atoms: C5_4  and  O7_13 
REMARK    2  A    between atoms: C8_10  and  O7_13 
ROOT
HETATM    1  O7    D T1258      -1.012  31.826  19.590  1.00 25.09    -0.304 OA
ENDROOT
BRANCH   1   2
HETATM    2  C5    D T1258      -0.479  31.036  18.627  1.00 24.92     0.125 A 
HETATM    3  C6    D T1258      -0.382  29.605  18.838  1.00 20.38     0.154 A 
HETATM    4  C1    D T1258       0.142  28.811  17.866  1.00 24.39     0.041 A 
HETATM    5  O17   D T1258      -0.787  29.068  20.001  1.00 23.90    -0.188 OA
HETATM    6  C2    D T1258       0.595  29.379  16.658  1.00 24.16     0.060 A 
HETATM    7  C3    D T1258       0.496  30.772  16.449  1.00 22.08     0.014 A 
HETATM    8 CL14   D T1258       1.273  28.341  15.396  1.00 26.89    -0.082 Cl
HETATM    9  C4    D T1258      -0.091  31.582  17.417  1.00 21.98     0.028 A 
ENDBRANCH   1   2
BRANCH   1  10
HETATM   10  C8    D T1258      -2.149  32.509  19.349  1.00 26.64     0.111 A 
HETATM   11  C9    D T1258      -2.337  33.829  19.918  1.00 26.93     0.081 A 
HETATM   12  C10   D T1258      -3.504  34.491  19.719  1.00 30.17     0.025 A 
HETATM   13 CL16   D T1258      -1.078  34.542  20.921  1.00 51.29    -0.080 Cl
HETATM   14  C11   D T1258      -4.550  33.869  19.053  1.00 28.51     0.059 A 
HETATM   15  C12   D T1258      -4.368  32.580  18.484  1.00 27.32     0.013 A 
HETATM   16 CL15   D T1258      -6.081  34.711  18.848  1.00 39.13    -0.082 Cl
HETATM   17  C13   D T1258      -3.170  31.919  18.639  1.00 28.27     0.026 A 
ENDBRANCH   1  10
TORSDOF 2
ENDMDL
MODEL 4
REMARK VINA RESULT:      -7.8      2.015      6.095
REMARK  2 active torsions:
REMARK  status: ('A' for Active; 'I' for Inactive)
REMARK    1  A    between atoms: C5_4  and  O7_13 
REMARK    2  A    between atoms: C8_10  and  O7_13 
ROOT
HETATM    1  O7    D T1258      -1.815  31.453  19.315  1.00 25.09    -0.304 OA
ENDROOT
BRANCH   1   2
HETATM    2  C5    D T1258      -2.660  32.511  19.279  1.00 24.92     0.125 A 
HETATM    3  C6    D T1258      -2.277  33.764  19.899  1.00 20.38     0.154 A 
HETATM    4  C1    D T1258      -3.121  34.830  19.852  1.00 24.39     0.041 A 
HETATM    5  O17   D T1258      -1.101  33.865  20.540  1.00 23.90    -0.188 OA
HETATM    6  C2    D T1258      -4.368  34.714  19.206  1.00 24.16     0.060 A 
HETATM    7  C3    D T1258      -4.741  33.496  18.596  1.00 22.08     0.014 A 
HETATM    8 CL14   D T1258      -5.461  36.104  19.145  1.00 26.89    -0.082 Cl
HETATM    9  C4    D T1258      -3.858  32.420  18.593  1.00 21.98     0.028 A 
ENDBRANCH   1   2
BRANCH   1  10
HETATM   10  C8    D T1258      -1.281  30.977  18.172  1.00 26.64     0.111 A 
HETATM   11  C9    D T1258      -1.557  29.617  17.754  1.00 26.93     0.081 A 
HETATM   12  C10   D T1258      -0.976  29.123  16.633  1.00 30.17     0.025 A 
HETATM   13 CL16   D T1258      -2.594  28.588  18.738  1.00 51.29    -0.080 Cl
HETATM   14  C11   D T1258      -0.047  29.885  15.940  1.00 28.51     0.059 A 
HETATM   15  C12   D T1258       0.220  31.222  16.339  1.00 27.32     0.013 A 
HETATM   16 CL15   D T1258       0.748  29.218  14.519  1.00 39.13    -0.082 Cl
HETATM   17  C13   D T1258      -0.402  31.749  17.449  1.00 28.27     0.026 A 
ENDBRANCH   1  10
TORSDOF 2
ENDMDL
MODEL 5
REMARK VINA RESULT:      -7.7     10.772     12.416
REMARK  2 active torsions:
REMARK  status: ('A' for Active; 'I' for Inactive)
REMARK    1  A    between atoms: C5_4  and  O7_13 
REMARK    2  A    between atoms: C8_10  and  O7_13 
ROOT
HETATM    1  O7    D T1258       1.410  32.140   7.638  1.00 25.09    -0.304 OA
ENDROOT
BRANCH   1   2
HETATM    2  C5    D T1258       1.334  31.328   6.557  1.00 24.92     0.125 A 
HETATM    3  C6    D T1258       2.546  30.792   5.969  1.00 20.38     0.154 A 
HETATM    4  C1    D T1258       2.468  29.968   4.890  1.00 24.39     0.041 A 
HETATM    5  O17   D T1258       3.744  31.130   6.473  1.00 23.90    -0.188 OA
HETATM    6  C2    D T1258       1.212  29.638   4.342  1.00 24.16     0.060 A 
HETATM    7  C3    D T1258       0.030  30.154   4.917  1.00 22.08     0.014 A 
HETATM    8 CL14   D T1258       1.117  28.562   2.941  1.00 26.89    -0.082 Cl
HETATM    9  C4    D T1258       0.101  30.953   6.055  1.00 21.98     0.028 A 
ENDBRANCH   1   2
BRANCH   1  10
HETATM   10  C8    D T1258       1.596  31.613   8.865  1.00 26.64     0.111 A 
HETATM   11  C9    D T1258       2.714  32.047   9.679  1.00 26.93     0.081 A 
HETATM   12  C10   D T1258       2.932  31.476  10.890  1.00 30.17     0.025 A 
HETATM   13 CL16   D T1258       3.828  33.266   9.065  1.00 51.29    -0.080 Cl
HETATM   14  C11   D T1258       2.142  30.416  11.309  1.00 28.51     0.059 A 
HETATM   15  C12   D T1258       1.038  29.993  10.521  1.00 27.32     0.013 A 
HETATM   16 CL15   D T1258       2.463  29.642  12.856  1.00 39.13    -0.082 Cl
HETATM   17  C13   D T1258       0.780  30.599   9.311  1.00 28.27     0.026 A 
ENDBRANCH   1  10
TORSDOF 2
ENDMDL
MODEL 6
REMARK VINA RESULT:      -7.5     10.170     12.097
REMARK  2 active torsions:
REMARK  status: ('A' for Active; 'I' for Inactive)
REMARK    1  A    between atoms: C5_4  and  O7_13 
REMARK    2  A    between atoms: C8_10  and  O7_13 
ROOT
HETATM    1  O7    D T1258       1.205  31.848   8.244  1.00 25.09    -0.304 OA
ENDROOT
BRANCH   1   2
HETATM    2  C5    D T1258       1.335  31.271   9.462  1.00 24.92     0.125 A 
HETATM    3  C6    D T1258       0.261  31.377  10.431  1.00 20.38     0.154 A 
HETATM    4  C1    D T1258       0.388  30.787  11.650  1.00 24.39     0.041 A 
HETATM    5  O17   D T1258      -0.845  32.078  10.134  1.00 23.90    -0.188 OA
HETATM    6  C2    D T1258       1.562  30.076  11.972  1.00 24.16     0.060 A 
HETATM    7  C3    D T1258       2.606  29.967  11.027  1.00 22.08     0.014 A 
HETATM    8 CL14   D T1258       1.720  29.308  13.557  1.00 26.89    -0.082 Cl
HETATM    9  C4    D T1258       2.459  30.521   9.759  1.00 21.98     0.028 A 
ENDBRANCH   1   2
BRANCH   1  10
HETATM   10  C8    D T1258       1.188  31.084   7.133  1.00 26.64     0.111 A 
HETATM   11  C9    D T1258       2.354  31.029   6.273  1.00 26.93     0.081 A 
HETATM   12  C10   D T1258       2.316  30.303   5.128  1.00 30.17     0.025 A 
HETATM   13 CL16   D T1258       3.793  31.959   6.682  1.00 51.29    -0.080 Cl
HETATM   14  C11   D T1258       1.136  29.690   4.734  1.00 28.51     0.059 A 
HETATM   15  C12   D T1258      -0.006  29.732   5.578  1.00 27.32     0.013 A 
HETATM   16 CL15   D T1258       1.077  28.797   3.220  1.00 39.13    -0.082 Cl
HETATM   17  C13   D T1258       0.037  30.427   6.766  1.00 28.27     0.026 A 
ENDBRANCH   1  10
TORSDOF 2
ENDMDL
MODEL 7
REMARK VINA RESULT:      -7.4      9.527     11.130
REMARK  2 active torsions:
REMARK  status: ('A' for Active; 'I' for Inactive)
REMARK    1  A    between atoms: C5_4  and  O7_13 
REMARK    2  A    between atoms: C8_10  and  O7_13 
ROOT
HETATM    1  O7    D T1258       2.211  33.057   9.315  1.00 25.09    -0.304 OA
ENDROOT
BRANCH   1   2
HETATM    2  C5    D T1258       1.682  32.409   8.250  1.00 24.92     0.125 A 
HETATM    3  C6    D T1258       2.528  32.048   7.130  1.00 20.38     0.154 A 
HETATM    4  C1    D T1258       1.999  31.386   6.066  1.00 24.39     0.041 A 
HETATM    5  O17   D T1258       3.827  32.389   7.132  1.00 23.90    -0.188 OA
HETATM    6  C2    D T1258       0.629  31.056   6.051  1.00 24.16     0.060 A 
HETATM    7  C3    D T1258      -0.196  31.401   7.144  1.00 22.08     0.014 A 
HETATM    8 CL14   D T1258      -0.054  30.192   4.666  1.00 26.89    -0.082 Cl
HETATM    9  C4    D T1258       0.352  32.028   8.259  1.00 21.98     0.028 A 
ENDBRANCH   1   2
BRANCH   1  10
HETATM   10  C8    D T1258       2.416  32.397  10.473  1.00 26.64     0.111 A 
HETATM   11  C9    D T1258       2.272  33.091  11.738  1.00 26.93     0.081 A 
HETATM   12  C10   D T1258       2.532  32.440  12.899  1.00 30.17     0.025 A 
HETATM   13 CL16   D T1258       1.827  34.795  11.762  1.00 51.29    -0.080 Cl
HETATM   14  C11   D T1258       3.023  31.143  12.872  1.00 28.51     0.059 A 
HETATM   15  C12   D T1258       3.156  30.455  11.636  1.00 27.32     0.013 A 
HETATM   16 CL15   D T1258       3.412  30.323  14.380  1.00 39.13    -0.082 Cl
HETATM   17  C13   D T1258       2.849  31.092  10.455  1.00 28.27     0.026 A 
ENDBRANCH   1  10
TORSDOF 2
ENDMDL
MODEL 8
REMARK VINA RESULT:      -7.4      9.419     11.728
REMARK  2 active torsions:
REMARK  status: ('A' for Active; 'I' for Inactive)
REMARK    1  A    between atoms: C5_4  and  O7_13 
REMARK    2  A    between atoms: C8_10  and  O7_13 
ROOT
HETATM    1  O7    D T1258       1.030  29.932   9.947  1.00 25.09    -0.304 OA
ENDROOT
BRANCH   1   2
HETATM    2  C5    D T1258       1.285  31.173  10.426  1.00 24.92     0.125 A 
HETATM    3  C6    D T1258       0.251  31.902  11.135  1.00 20.38     0.154 A 
HETATM    4  C1    D T1258       0.513  33.143  11.626  1.00 24.39     0.041 A 
HETATM    5  O17   D T1258      -0.970  31.363  11.283  1.00 23.90    -0.188 OA
HETATM    6  C2    D T1258       1.785  33.721  11.443  1.00 24.16     0.060 A 
HETATM    7  C3    D T1258       2.796  33.010  10.759  1.00 22.08     0.014 A 
HETATM    8 CL14   D T1258       2.121  35.334  12.087  1.00 26.89    -0.082 Cl
HETATM    9  C4    D T1258       2.551  31.718  10.304  1.00 21.98     0.028 A 
ENDBRANCH   1   2
BRANCH   1  10
HETATM   10  C8    D T1258       0.965  29.723   8.617  1.00 26.64     0.111 A 
HETATM   11  C9    D T1258       2.052  29.050   7.935  1.00 26.93     0.081 A 
HETATM   12  C10   D T1258       2.010  28.889   6.589  1.00 30.17     0.025 A 
HETATM   13 CL16   D T1258       3.457  28.501   8.846  1.00 51.29    -0.080 Cl
HETATM   14  C11   D T1258       0.975  29.450   5.856  1.00 28.51     0.059 A 
HETATM   15  C12   D T1258      -0.098  30.102   6.519  1.00 27.32     0.013 A 
HETATM   16 CL15   D T1258       0.955  29.287   4.104  1.00 39.13    -0.082 Cl
HETATM   17  C13   D T1258      -0.089  30.228   7.891  1.00 28.27     0.026 A 
ENDBRANCH   1  10
TORSDOF 2
ENDMDL
MODEL 9
REMARK VINA RESULT:      -7.4     10.034     11.825
REMARK  2 active torsions:
REMARK  status: ('A' for Active; 'I' for Inactive)
REMARK    1  A    between atoms: C5_4  and  O7_13 
REMARK    2  A    between atoms: C8_10  and  O7_13 
ROOT
HETATM    1  O7    D T1258      -0.666  31.450   9.284  1.00 25.09    -0.304 OA
ENDROOT
BRANCH   1   2
HETATM    2  C5    D T1258      -1.999  31.460   9.524  1.00 24.92     0.125 A 
HETATM    3  C6    D T1258      -2.489  31.452  10.889  1.00 20.38     0.154 A 
HETATM    4  C1    D T1258      -3.827  31.473  11.129  1.00 24.39     0.041 A 
HETATM    5  O17   D T1258      -1.621  31.399  11.913  1.00 23.90    -0.188 OA
HETATM    6  C2    D T1258      -4.737  31.498  10.053  1.00 24.16     0.060 A 
HETATM    7  C3    D T1258      -4.263  31.512   8.723  1.00 22.08     0.014 A 
HETATM    8 CL14   D T1258      -6.477  31.529  10.372  1.00 26.89    -0.082 Cl
HETATM    9  C4    D T1258      -2.894  31.547   8.473  1.00 21.98     0.028 A 
ENDBRANCH   1   2
BRANCH   1  10
HETATM   10  C8    D T1258      -0.191  30.924   8.137  1.00 26.64     0.111 A 
HETATM   11  C9    D T1258       0.538  31.760   7.203  1.00 26.93     0.081 A 
HETATM   12  C10   D T1258       0.967  31.242   6.025  1.00 30.17     0.025 A 
HETATM   13 CL16   D T1258       0.805  33.462   7.569  1.00 51.29    -0.080 Cl
HETATM   14  C11   D T1258       0.629  29.944   5.674  1.00 28.51     0.059 A 
HETATM   15  C12   D T1258      -0.076  29.117   6.589  1.00 27.32     0.013 A 
HETATM   16 CL15   D T1258       1.141  29.296   4.120  1.00 39.13    -0.082 Cl
HETATM   17  C13   D T1258      -0.475  29.619   7.808  1.00 28.27     0.026 A 
ENDBRANCH   1  10
TORSDOF 2
ENDMDL
