MODEL 1
REMARK VINA RESULT:    -7.817      0.000      0.000
REMARK INTER + INTRA:          -9.091
REMARK INTER:                  -8.731
REMARK INTRA:                  -0.360
REMARK UNBOUND:                -0.360
REMARK  2 active torsions:
REMARK  status: ('A' for Active; 'I' for Inactive)
REMARK    1  A    between atoms: C5_4  and  O7_13 
REMARK    2  A    between atoms: C8_10  and  O7_13 
ROOT
HETATM    1  O7    D T1258       5.826   0.226  -7.500  1.00 25.09    -0.304 OA
ENDROOT
BRANCH   1   2
HETATM    2  C5    D T1258       5.057   1.070  -6.772  1.00 24.92     0.125 A 
HETATM    3  C6    D T1258       3.963   0.547  -5.977  1.00 20.38     0.154 A 
HETATM    4  C1    D T1258       3.199   1.394  -5.237  1.00 24.39     0.041 A 
HETATM    5  O17   D T1258       3.691  -0.768  -5.991  1.00 23.90    -0.188 OA
HETATM    6  C2    D T1258       3.466   2.777  -5.246  1.00 24.16     0.060 A 
HETATM    7  C3    D T1258       4.534   3.288  -6.015  1.00 22.08     0.014 A 
HETATM    8 CL14   D T1258       2.471   3.874  -4.278  1.00 26.89    -0.082 Cl
HETATM    9  C4    D T1258       5.354   2.420  -6.731  1.00 21.98     0.028 A 
ENDBRANCH   1   2
BRANCH   1  10
HETATM   10  C8    D T1258       6.199   0.563  -8.752  1.00 26.64     0.111 A 
HETATM   11  C9    D T1258       5.252   0.459  -9.844  1.00 26.93     0.081 A 
HETATM   12  C10   D T1258       5.645   0.746 -11.110  1.00 30.17     0.025 A 
HETATM   13 CL16   D T1258       3.612  -0.103  -9.536  1.00 51.29    -0.080 Cl
HETATM   14  C11   D T1258       6.974   1.048 -11.372  1.00 28.51     0.059 A 
HETATM   15  C12   D T1258       7.904   1.160 -10.304  1.00 27.32     0.013 A 
HETATM   16 CL15   D T1258       7.491   1.363 -13.024  1.00 39.13    -0.082 Cl
HETATM   17  C13   D T1258       7.503   0.917  -9.009  1.00 28.27     0.026 A 
ENDBRANCH   1  10
TORSDOF 2
ENDMDL
MODEL 2
REMARK VINA RESULT:    -7.565      1.436      1.713
REMARK INTER + INTRA:          -8.809
REMARK INTER:                  -8.322
REMARK INTRA:                  -0.487
REMARK UNBOUND:                -0.360
REMARK  2 active torsions:
REMARK  status: ('A' for Active; 'I' for Inactive)
REMARK    1  A    between atoms: C5_4  and  O7_13 
REMARK    2  A    between atoms: C8_10  and  O7_13 
ROOT
HETATM    1  O7    D T1258       5.959   0.603  -7.713  1.00 25.09    -0.304 OA
ENDROOT
BRANCH   1   2
HETATM    2  C5    D T1258       5.688   1.631  -6.876  1.00 24.92     0.125 A 
HETATM    3  C6    D T1258       6.459   1.796  -5.659  1.00 20.38     0.154 A 
HETATM    4  C1    D T1258       6.194   2.836  -4.824  1.00 24.39     0.041 A 
HETATM    5  O17   D T1258       7.416   0.907  -5.346  1.00 23.90    -0.188 OA
HETATM    6  C2    D T1258       5.170   3.750  -5.139  1.00 24.16     0.060 A 
HETATM    7  C3    D T1258       4.421   3.596  -6.326  1.00 22.08     0.014 A 
HETATM    8 CL14   D T1258       4.832   5.104  -4.052  1.00 26.89    -0.082 Cl
HETATM    9  C4    D T1258       4.725   2.565  -7.211  1.00 21.98     0.028 A 
ENDBRANCH   1   2
BRANCH   1  10
HETATM   10  C8    D T1258       6.322   0.849  -8.990  1.00 26.64     0.111 A 
HETATM   11  C9    D T1258       5.371   0.646 -10.065  1.00 26.93     0.081 A 
HETATM   12  C10   D T1258       5.754   0.841 -11.351  1.00 30.17     0.025 A 
HETATM   13 CL16   D T1258       3.741   0.083  -9.705  1.00 51.29    -0.080 Cl
HETATM   14  C11   D T1258       7.075   1.143 -11.644  1.00 28.51     0.059 A 
HETATM   15  C12   D T1258       8.009   1.352 -10.593  1.00 27.32     0.013 A 
HETATM   16 CL15   D T1258       7.580   1.338 -13.318  1.00 39.13    -0.082 Cl
HETATM   17  C13   D T1258       7.618   1.202  -9.281  1.00 28.27     0.026 A 
ENDBRANCH   1  10
TORSDOF 2
ENDMDL
MODEL 3
REMARK VINA RESULT:    -7.460      1.120      5.705
REMARK INTER + INTRA:          -8.693
REMARK INTER:                  -8.494
REMARK INTRA:                  -0.199
REMARK UNBOUND:                -0.360
REMARK  2 active torsions:
REMARK  status: ('A' for Active; 'I' for Inactive)
REMARK    1  A    between atoms: C5_4  and  O7_13 
REMARK    2  A    between atoms: C8_10  and  O7_13 
ROOT
HETATM    1  O7    D T1258       5.784   0.088  -7.700  1.00 25.09    -0.304 OA
ENDROOT
BRANCH   1   2
HETATM    2  C5    D T1258       6.176   0.387  -8.961  1.00 24.92     0.125 A 
HETATM    3  C6    D T1258       5.185   0.550 -10.007  1.00 20.38     0.154 A 
HETATM    4  C1    D T1258       5.579   0.862 -11.271  1.00 24.39     0.041 A 
HETATM    5  O17   D T1258       3.883   0.369  -9.732  1.00 23.90    -0.188 OA
HETATM    6  C2    D T1258       6.947   1.021 -11.565  1.00 24.16     0.060 A 
HETATM    7  C3    D T1258       7.914   0.868 -10.547  1.00 22.08     0.014 A 
HETATM    8 CL14   D T1258       7.453   1.431 -13.210  1.00 26.89    -0.082 Cl
HETATM    9  C4    D T1258       7.513   0.604  -9.241  1.00 21.98     0.028 A 
ENDBRANCH   1   2
BRANCH   1  10
HETATM   10  C8    D T1258       5.174   1.024  -6.944  1.00 26.64     0.111 A 
HETATM   11  C9    D T1258       3.937   0.707  -6.258  1.00 26.93     0.081 A 
HETATM   12  C10   D T1258       3.296   1.665  -5.543  1.00 30.17     0.025 A 
HETATM   13 CL16   D T1258       3.234  -0.900  -6.407  1.00 51.29    -0.080 Cl
HETATM   14  C11   D T1258       3.773   2.968  -5.544  1.00 28.51     0.059 A 
HETATM   15  C12   D T1258       4.990   3.281  -6.208  1.00 27.32     0.013 A 
HETATM   16 CL15   D T1258       2.906   4.219  -4.663  1.00 39.13    -0.082 Cl
HETATM   17  C13   D T1258       5.673   2.304  -6.898  1.00 28.27     0.026 A 
ENDBRANCH   1  10
TORSDOF 2
ENDMDL
MODEL 4
REMARK VINA RESULT:    -7.404      3.298      6.025
REMARK INTER + INTRA:          -8.629
REMARK INTER:                  -8.220
REMARK INTRA:                  -0.409
REMARK UNBOUND:                -0.360
REMARK  2 active torsions:
REMARK  status: ('A' for Active; 'I' for Inactive)
REMARK    1  A    between atoms: C5_4  and  O7_13 
REMARK    2  A    between atoms: C8_10  and  O7_13 
ROOT
HETATM    1  O7    D T1258       6.291   1.770  -7.774  1.00 25.09    -0.304 OA
ENDROOT
BRANCH   1   2
HETATM    2  C5    D T1258       6.550   1.620  -9.094  1.00 24.92     0.125 A 
HETATM    3  C6    D T1258       6.001   2.562 -10.051  1.00 20.38     0.154 A 
HETATM    4  C1    D T1258       6.272   2.418 -11.375  1.00 24.39     0.041 A 
HETATM    5  O17   D T1258       5.207   3.560  -9.629  1.00 23.90    -0.188 OA
HETATM    6  C2    D T1258       7.080   1.353 -11.819  1.00 24.16     0.060 A 
HETATM    7  C3    D T1258       7.621   0.437 -10.889  1.00 22.08     0.014 A 
HETATM    8 CL14   D T1258       7.432   1.172 -13.543  1.00 26.89    -0.082 Cl
HETATM    9  C4    D T1258       7.393   0.613  -9.527  1.00 21.98     0.028 A 
ENDBRANCH   1   2
BRANCH   1  10
HETATM   10  C8    D T1258       7.294   1.681  -6.875  1.00 26.64     0.111 A 
HETATM   11  C9    D T1258       7.261   0.656  -5.852  1.00 26.93     0.081 A 
HETATM   12  C10   D T1258       8.241   0.603  -4.916  1.00 30.17     0.025 A 
HETATM   13 CL16   D T1258       5.914  -0.477  -5.783  1.00 51.29    -0.080 Cl
HETATM   14  C11   D T1258       9.222   1.583  -4.882  1.00 28.51     0.059 A 
HETATM   15  C12   D T1258       9.264   2.585  -5.889  1.00 27.32     0.013 A 
HETATM   16 CL15   D T1258      10.458   1.543  -3.632  1.00 39.13    -0.082 Cl
HETATM   17  C13   D T1258       8.299   2.619  -6.872  1.00 28.27     0.026 A 
ENDBRANCH   1  10
TORSDOF 2
ENDMDL
MODEL 5
REMARK VINA RESULT:    -7.368      2.424      2.990
REMARK INTER + INTRA:          -8.589
REMARK INTER:                  -8.241
REMARK INTRA:                  -0.348
REMARK UNBOUND:                -0.360
REMARK  2 active torsions:
REMARK  status: ('A' for Active; 'I' for Inactive)
REMARK    1  A    between atoms: C5_4  and  O7_13 
REMARK    2  A    between atoms: C8_10  and  O7_13 
ROOT
HETATM    1  O7    D T1258       5.084   3.204  -7.659  1.00 25.09    -0.304 OA
ENDROOT
BRANCH   1   2
HETATM    2  C5    D T1258       4.689   2.443  -6.611  1.00 24.92     0.125 A 
HETATM    3  C6    D T1258       4.890   2.918  -5.255  1.00 20.38     0.154 A 
HETATM    4  C1    D T1258       4.481   2.159  -4.204  1.00 24.39     0.041 A 
HETATM    5  O17   D T1258       5.501   4.095  -5.041  1.00 23.90    -0.188 OA
HETATM    6  C2    D T1258       3.868   0.912  -4.430  1.00 24.16     0.060 A 
HETATM    7  C3    D T1258       3.665   0.449  -5.749  1.00 22.08     0.014 A 
HETATM    8 CL14   D T1258       3.335  -0.070  -3.058  1.00 26.89    -0.082 Cl
HETATM    9  C4    D T1258       4.031   1.246  -6.829  1.00 21.98     0.028 A 
ENDBRANCH   1   2
BRANCH   1  10
HETATM   10  C8    D T1258       5.645   2.623  -8.740  1.00 26.64     0.111 A 
HETATM   11  C9    D T1258       7.050   2.269  -8.725  1.00 26.93     0.081 A 
HETATM   12  C10   D T1258       7.625   1.736  -9.832  1.00 30.17     0.025 A 
HETATM   13 CL16   D T1258       8.025   2.591  -7.294  1.00 51.29    -0.080 Cl
HETATM   14  C11   D T1258       6.893   1.617 -11.005  1.00 28.51     0.059 A 
HETATM   15  C12   D T1258       5.513   1.955 -11.022  1.00 27.32     0.013 A 
HETATM   16 CL15   D T1258       7.659   0.979 -12.455  1.00 39.13    -0.082 Cl
HETATM   17  C13   D T1258       4.909   2.452  -9.889  1.00 28.27     0.026 A 
ENDBRANCH   1  10
TORSDOF 2
ENDMDL
MODEL 6
REMARK VINA RESULT:    -7.248      2.229      6.041
REMARK INTER + INTRA:          -8.455
REMARK INTER:                  -8.203
REMARK INTRA:                  -0.252
REMARK UNBOUND:                -0.360
REMARK  2 active torsions:
REMARK  status: ('A' for Active; 'I' for Inactive)
REMARK    1  A    between atoms: C5_4  and  O7_13 
REMARK    2  A    between atoms: C8_10  and  O7_13 
ROOT
HETATM    1  O7    D T1258       6.369   2.952  -7.412  1.00 25.09    -0.304 OA
ENDROOT
BRANCH   1   2
HETATM    2  C5    D T1258       6.600   2.528  -8.676  1.00 24.92     0.125 A 
HETATM    3  C6    D T1258       5.677   2.882  -9.738  1.00 20.38     0.154 A 
HETATM    4  C1    D T1258       5.917   2.466 -11.010  1.00 24.39     0.041 A 
HETATM    5  O17   D T1258       4.576   3.597  -9.458  1.00 23.90    -0.188 OA
HETATM    6  C2    D T1258       7.057   1.690 -11.297  1.00 24.16     0.060 A 
HETATM    7  C3    D T1258       7.961   1.350 -10.266  1.00 22.08     0.014 A 
HETATM    8 CL14   D T1258       7.366   1.156 -12.954  1.00 26.89    -0.082 Cl
HETATM    9  C4    D T1258       7.750   1.819  -8.973  1.00 21.98     0.028 A 
ENDBRANCH   1   2
BRANCH   1  10
HETATM   10  C8    D T1258       5.698   2.162  -6.548  1.00 26.64     0.111 A 
HETATM   11  C9    D T1258       4.515   2.662  -5.876  1.00 26.93     0.081 A 
HETATM   12  C10   D T1258       3.874   1.886  -4.967  1.00 30.17     0.025 A 
HETATM   13 CL16   D T1258       3.951   4.300  -6.191  1.00 51.29    -0.080 Cl
HETATM   14  C11   D T1258       4.402   0.653  -4.612  1.00 28.51     0.059 A 
HETATM   15  C12   D T1258       5.556   0.154  -5.274  1.00 27.32     0.013 A 
HETATM   16 CL15   D T1258       3.599  -0.325  -3.391  1.00 39.13    -0.082 Cl
HETATM   17  C13   D T1258       6.187   0.915  -6.233  1.00 28.27     0.026 A 
ENDBRANCH   1  10
TORSDOF 2
ENDMDL
MODEL 7
REMARK VINA RESULT:    -7.090      2.075      2.246
REMARK INTER + INTRA:          -8.279
REMARK INTER:                  -7.830
REMARK INTRA:                  -0.449
REMARK UNBOUND:                -0.360
REMARK  2 active torsions:
REMARK  status: ('A' for Active; 'I' for Inactive)
REMARK    1  A    between atoms: C5_4  and  O7_13 
REMARK    2  A    between atoms: C8_10  and  O7_13 
ROOT
HETATM    1  O7    D T1258       4.083   1.650  -7.158  1.00 25.09    -0.304 OA
ENDROOT
BRANCH   1   2
HETATM    2  C5    D T1258       4.415   2.091  -5.921  1.00 24.92     0.125 A 
HETATM    3  C6    D T1258       4.310   1.199  -4.783  1.00 20.38     0.154 A 
HETATM    4  C1    D T1258       4.655   1.639  -3.543  1.00 24.39     0.041 A 
HETATM    5  O17   D T1258       3.849  -0.052  -4.951  1.00 23.90    -0.188 OA
HETATM    6  C2    D T1258       5.109   2.960  -3.364  1.00 24.16     0.060 A 
HETATM    7  C3    D T1258       5.217   3.829  -4.472  1.00 22.08     0.014 A 
HETATM    8 CL14   D T1258       5.560   3.526  -1.750  1.00 26.89    -0.082 Cl
HETATM    9  C4    D T1258       4.919   3.367  -5.751  1.00 21.98     0.028 A 
ENDBRANCH   1   2
BRANCH   1  10
HETATM   10  C8    D T1258       5.049   1.387  -8.062  1.00 26.64     0.111 A 
HETATM   11  C9    D T1258       5.353   2.354  -9.098  1.00 26.93     0.081 A 
HETATM   12  C10   D T1258       6.286   2.065 -10.040  1.00 30.17     0.025 A 
HETATM   13 CL16   D T1258       4.465   3.873  -9.174  1.00 51.29    -0.080 Cl
HETATM   14  C11   D T1258       6.881   0.812 -10.066  1.00 28.51     0.059 A 
HETATM   15  C12   D T1258       6.593  -0.135  -9.047  1.00 27.32     0.013 A 
HETATM   16 CL15   D T1258       8.048   0.422 -11.323  1.00 39.13    -0.082 Cl
HETATM   17  C13   D T1258       5.681   0.166  -8.059  1.00 28.27     0.026 A 
ENDBRANCH   1  10
TORSDOF 2
ENDMDL
MODEL 8
REMARK VINA RESULT:    -6.834      2.617      3.075
REMARK INTER + INTRA:          -7.993
REMARK INTER:                  -7.527
REMARK INTRA:                  -0.466
REMARK UNBOUND:                -0.360
REMARK  2 active torsions:
REMARK  status: ('A' for Active; 'I' for Inactive)
REMARK    1  A    between atoms: C5_4  and  O7_13 
REMARK    2  A    between atoms: C8_10  and  O7_13 
ROOT
HETATM    1  O7    D T1258       3.975   2.556  -6.704  1.00 25.09    -0.304 OA
ENDROOT
BRANCH   1   2
HETATM    2  C5    D T1258       4.508   2.865  -5.499  1.00 24.92     0.125 A 
HETATM    3  C6    D T1258       4.264   4.170  -4.913  1.00 20.38     0.154 A 
HETATM    4  C1    D T1258       4.790   4.475  -3.697  1.00 24.39     0.041 A 
HETATM    5  O17   D T1258       3.540   5.081  -5.583  1.00 23.90    -0.188 OA
HETATM    6  C2    D T1258       5.574   3.529  -3.009  1.00 24.16     0.060 A 
HETATM    7  C3    D T1258       5.809   2.256  -3.575  1.00 22.08     0.014 A 
HETATM    8 CL14   D T1258       6.253   3.930  -1.426  1.00 26.89    -0.082 Cl
HETATM    9  C4    D T1258       5.227   1.918  -4.793  1.00 21.98     0.028 A 
ENDBRANCH   1   2
BRANCH   1  10
HETATM   10  C8    D T1258       4.762   2.072  -7.687  1.00 26.64     0.111 A 
HETATM   11  C9    D T1258       4.516   0.750  -8.228  1.00 26.93     0.081 A 
HETATM   12  C10   D T1258       5.342   0.243  -9.177  1.00 30.17     0.025 A 
HETATM   13 CL16   D T1258       3.186  -0.222  -7.606  1.00 51.29    -0.080 Cl
HETATM   14  C11   D T1258       6.473   0.949  -9.561  1.00 28.51     0.059 A 
HETATM   15  C12   D T1258       6.714   2.249  -9.041  1.00 27.32     0.013 A 
HETATM   16 CL15   D T1258       7.572   0.262 -10.750  1.00 39.13    -0.082 Cl
HETATM   17  C13   D T1258       5.854   2.792  -8.111  1.00 28.27     0.026 A 
ENDBRANCH   1  10
TORSDOF 2
ENDMDL
MODEL 9
REMARK VINA RESULT:    -6.805      2.197      6.141
REMARK INTER + INTRA:          -7.960
REMARK INTER:                  -7.403
REMARK INTRA:                  -0.557
REMARK UNBOUND:                -0.360
REMARK  2 active torsions:
REMARK  status: ('A' for Active; 'I' for Inactive)
REMARK    1  A    between atoms: C5_4  and  O7_13 
REMARK    2  A    between atoms: C8_10  and  O7_13 
ROOT
HETATM    1  O7    D T1258       3.668   2.028  -6.269  1.00 25.09    -0.304 OA
ENDROOT
BRANCH   1   2
HETATM    2  C5    D T1258       4.519   1.631  -7.244  1.00 24.92     0.125 A 
HETATM    3  C6    D T1258       4.535   0.244  -7.669  1.00 20.38     0.154 A 
HETATM    4  C1    D T1258       5.381  -0.152  -8.656  1.00 24.39     0.041 A 
HETATM    5  O17   D T1258       3.731  -0.650  -7.070  1.00 23.90    -0.188 OA
HETATM    6  C2    D T1258       6.245   0.781  -9.263  1.00 24.16     0.060 A 
HETATM    7  C3    D T1258       6.227   2.133  -8.854  1.00 22.08     0.014 A 
HETATM    8 CL14   D T1258       7.341   0.261 -10.550  1.00 26.89    -0.082 Cl
HETATM    9  C4    D T1258       5.324   2.555  -7.883  1.00 21.98     0.028 A 
ENDBRANCH   1   2
BRANCH   1  10
HETATM   10  C8    D T1258       4.151   2.459  -5.085  1.00 26.64     0.111 A 
HETATM   11  C9    D T1258       4.073   3.865  -4.740  1.00 26.93     0.081 A 
HETATM   12  C10   D T1258       4.609   4.305  -3.574  1.00 30.17     0.025 A 
HETATM   13 CL16   D T1258       3.344   5.009  -5.862  1.00 51.29    -0.080 Cl
HETATM   14  C11   D T1258       5.311   3.429  -2.759  1.00 28.51     0.059 A 
HETATM   15  C12   D T1258       5.382   2.049  -3.088  1.00 27.32     0.013 A 
HETATM   16 CL15   D T1258       6.054   4.017  -1.276  1.00 39.13    -0.082 Cl
HETATM   17  C13   D T1258       4.800   1.584  -4.247  1.00 28.27     0.026 A 
ENDBRANCH   1  10
TORSDOF 2
ENDMDL
