MODEL 1
REMARK VINA RESULT:    -7.680      0.000      0.000
REMARK INTER + INTRA:          -8.906
REMARK INTER:                  -8.578
REMARK INTRA:                  -0.327
REMARK UNBOUND:                -0.327
REMARK  2 active torsions:
REMARK  status: ('A' for Active; 'I' for Inactive)
REMARK    1  A    between atoms: C5_4  and  O7_13 
REMARK    2  A    between atoms: C8_10  and  O7_13 
ROOT
HETATM    1  O7    D T1258       4.571   0.651  -7.914  1.00 25.09    -0.304 OA
ENDROOT
BRANCH   1   2
HETATM    2  C5    D T1258       3.792   1.403  -7.100  1.00 24.92     0.125 A 
HETATM    3  C6    D T1258       2.905   0.759  -6.151  1.00 20.38     0.154 A 
HETATM    4  C1    D T1258       2.132   1.515  -5.326  1.00 24.39     0.041 A 
HETATM    5  O17   D T1258       2.830  -0.582  -6.104  1.00 23.90    -0.188 OA
HETATM    6  C2    D T1258       2.189   2.921  -5.398  1.00 24.16     0.060 A 
HETATM    7  C3    D T1258       3.056   3.550  -6.317  1.00 22.08     0.014 A 
HETATM    8 CL14   D T1258       1.183   3.899  -4.320  1.00 26.89    -0.082 Cl
HETATM    9  C4    D T1258       3.890   2.783  -7.124  1.00 21.98     0.028 A 
ENDBRANCH   1   2
BRANCH   1  10
HETATM   10  C8    D T1258       4.790   1.039  -9.187  1.00 26.64     0.111 A 
HETATM   11  C9    D T1258       3.745   0.889 -10.180  1.00 26.93     0.081 A 
HETATM   12  C10   D T1258       3.986   1.229 -11.471  1.00 30.17     0.025 A 
HETATM   13 CL16   D T1258       2.190   0.201  -9.724  1.00 51.29    -0.080 Cl
HETATM   14  C11   D T1258       5.256   1.633 -11.857  1.00 28.51     0.059 A 
HETATM   15  C12   D T1258       6.280   1.792 -10.886  1.00 27.32     0.013 A 
HETATM   16 CL15   D T1258       5.576   2.019 -13.543  1.00 39.13    -0.082 Cl
HETATM   17  C13   D T1258       6.032   1.495  -9.565  1.00 28.27     0.026 A 
ENDBRANCH   1  10
TORSDOF 2
ENDMDL
MODEL 2
REMARK VINA RESULT:    -7.537      1.661      2.157
REMARK INTER + INTRA:          -8.746
REMARK INTER:                  -8.200
REMARK INTRA:                  -0.546
REMARK UNBOUND:                -0.327
REMARK  2 active torsions:
REMARK  status: ('A' for Active; 'I' for Inactive)
REMARK    1  A    between atoms: C5_4  and  O7_13 
REMARK    2  A    between atoms: C8_10  and  O7_13 
ROOT
HETATM    1  O7    D T1258       5.703   1.422  -7.285  1.00 25.09    -0.304 OA
ENDROOT
BRANCH   1   2
HETATM    2  C5    D T1258       4.642   1.956  -6.635  1.00 24.92     0.125 A 
HETATM    3  C6    D T1258       3.681   1.089  -5.983  1.00 20.38     0.154 A 
HETATM    4  C1    D T1258       2.621   1.627  -5.321  1.00 24.39     0.041 A 
HETATM    5  O17   D T1258       3.823  -0.245  -6.054  1.00 23.90    -0.188 OA
HETATM    6  C2    D T1258       2.456   3.026  -5.273  1.00 24.16     0.060 A 
HETATM    7  C3    D T1258       3.394   3.873  -5.902  1.00 22.08     0.014 A 
HETATM    8 CL14   D T1258       1.078   3.720  -4.407  1.00 26.89    -0.082 Cl
HETATM    9  C4    D T1258       4.509   3.330  -6.533  1.00 21.98     0.028 A 
ENDBRANCH   1   2
BRANCH   1  10
HETATM   10  C8    D T1258       5.773   1.486  -8.630  1.00 26.64     0.111 A 
HETATM   11  C9    D T1258       6.706   2.396  -9.265  1.00 26.93     0.081 A 
HETATM   12  C10   D T1258       6.735   2.498 -10.617  1.00 30.17     0.025 A 
HETATM   13 CL16   D T1258       7.749   3.417  -8.279  1.00 51.29    -0.080 Cl
HETATM   14  C11   D T1258       5.814   1.802 -11.386  1.00 28.51     0.059 A 
HETATM   15  C12   D T1258       4.906   0.901 -10.770  1.00 27.32     0.013 A 
HETATM   16 CL15   D T1258       5.822   1.982 -13.136  1.00 39.13    -0.082 Cl
HETATM   17  C13   D T1258       4.899   0.755  -9.401  1.00 28.27     0.026 A 
ENDBRANCH   1  10
TORSDOF 2
ENDMDL
MODEL 3
REMARK VINA RESULT:    -7.511      1.474      5.980
REMARK INTER + INTRA:          -8.717
REMARK INTER:                  -8.180
REMARK INTRA:                  -0.537
REMARK UNBOUND:                -0.327
REMARK  2 active torsions:
REMARK  status: ('A' for Active; 'I' for Inactive)
REMARK    1  A    between atoms: C5_4  and  O7_13 
REMARK    2  A    between atoms: C8_10  and  O7_13 
ROOT
HETATM    1  O7    D T1258       5.681   1.314  -7.754  1.00 25.09    -0.304 OA
ENDROOT
BRANCH   1   2
HETATM    2  C5    D T1258       5.701   1.504  -9.095  1.00 24.92     0.125 A 
HETATM    3  C6    D T1258       6.716   2.348  -9.692  1.00 20.38     0.154 A 
HETATM    4  C1    D T1258       6.741   2.528 -11.040  1.00 24.39     0.041 A 
HETATM    5  O17   D T1258       7.617   2.970  -8.912  1.00 23.90    -0.188 OA
HETATM    6  C2    D T1258       5.779   1.900 -11.854  1.00 24.16     0.060 A 
HETATM    7  C3    D T1258       4.792   1.072 -11.276  1.00 22.08     0.014 A 
HETATM    8 CL14   D T1258       5.818   2.135 -13.607  1.00 26.89    -0.082 Cl
HETATM    9  C4    D T1258       4.795   0.840  -9.904  1.00 21.98     0.028 A 
ENDBRANCH   1   2
BRANCH   1  10
HETATM   10  C8    D T1258       4.721   1.891  -7.004  1.00 26.64     0.111 A 
HETATM   11  C9    D T1258       3.650   1.085  -6.452  1.00 26.93     0.081 A 
HETATM   12  C10   D T1258       2.656   1.677  -5.744  1.00 30.17     0.025 A 
HETATM   13 CL16   D T1258       3.606  -0.648  -6.758  1.00 51.29    -0.080 Cl
HETATM   14  C11   D T1258       2.613   3.058  -5.627  1.00 28.51     0.059 A 
HETATM   15  C12   D T1258       3.665   3.852  -6.158  1.00 27.32     0.013 A 
HETATM   16 CL15   D T1258       1.290   3.823  -4.756  1.00 39.13    -0.082 Cl
HETATM   17  C13   D T1258       4.705   3.257  -6.837  1.00 28.27     0.026 A 
ENDBRANCH   1  10
TORSDOF 2
ENDMDL
MODEL 4
REMARK VINA RESULT:    -7.287      2.388      3.000
REMARK INTER + INTRA:          -8.467
REMARK INTER:                  -7.960
REMARK INTRA:                  -0.507
REMARK UNBOUND:                -0.327
REMARK  2 active torsions:
REMARK  status: ('A' for Active; 'I' for Inactive)
REMARK    1  A    between atoms: C5_4  and  O7_13 
REMARK    2  A    between atoms: C8_10  and  O7_13 
ROOT
HETATM    1  O7    D T1258       4.853   3.621  -7.912  1.00 25.09    -0.304 OA
ENDROOT
BRANCH   1   2
HETATM    2  C5    D T1258       4.397   2.824  -6.917  1.00 24.92     0.125 A 
HETATM    3  C6    D T1258       3.145   3.135  -6.256  1.00 20.38     0.154 A 
HETATM    4  C1    D T1258       2.682   2.327  -5.265  1.00 24.39     0.041 A 
HETATM    5  O17   D T1258       2.456   4.234  -6.606  1.00 23.90    -0.188 OA
HETATM    6  C2    D T1258       3.421   1.191  -4.878  1.00 24.16     0.060 A 
HETATM    7  C3    D T1258       4.637   0.882  -5.524  1.00 22.08     0.014 A 
HETATM    8 CL14   D T1258       2.812   0.142  -3.590  1.00 26.89    -0.082 Cl
HETATM    9  C4    D T1258       5.087   1.674  -6.576  1.00 21.98     0.028 A 
ENDBRANCH   1   2
BRANCH   1  10
HETATM   10  C8    D T1258       4.985   3.133  -9.162  1.00 26.64     0.111 A 
HETATM   11  C9    D T1258       6.301   2.826  -9.685  1.00 26.93     0.081 A 
HETATM   12  C10   D T1258       6.434   2.386 -10.962  1.00 30.17     0.025 A 
HETATM   13 CL16   D T1258       7.728   3.087  -8.688  1.00 51.29    -0.080 Cl
HETATM   14  C11   D T1258       5.325   2.321 -11.793  1.00 28.51     0.059 A 
HETATM   15  C12   D T1258       4.033   2.611 -11.282  1.00 27.32     0.013 A 
HETATM   16 CL15   D T1258       5.514   1.804 -13.464  1.00 39.13    -0.082 Cl
HETATM   17  C13   D T1258       3.880   3.012  -9.973  1.00 28.27     0.026 A 
ENDBRANCH   1  10
TORSDOF 2
ENDMDL
MODEL 5
REMARK VINA RESULT:    -7.243      2.249      6.138
REMARK INTER + INTRA:          -8.417
REMARK INTER:                  -7.920
REMARK INTRA:                  -0.497
REMARK UNBOUND:                -0.327
REMARK  2 active torsions:
REMARK  status: ('A' for Active; 'I' for Inactive)
REMARK    1  A    between atoms: C5_4  and  O7_13 
REMARK    2  A    between atoms: C8_10  and  O7_13 
ROOT
HETATM    1  O7    D T1258       2.814   1.983  -7.601  1.00 25.09    -0.304 OA
ENDROOT
BRANCH   1   2
HETATM    2  C5    D T1258       3.649   1.805  -8.652  1.00 24.92     0.125 A 
HETATM    3  C6    D T1258       3.641   2.751  -9.751  1.00 20.38     0.154 A 
HETATM    4  C1    D T1258       4.489   2.578 -10.800  1.00 24.39     0.041 A 
HETATM    5  O17   D T1258       2.780   3.782  -9.743  1.00 23.90    -0.188 OA
HETATM    6  C2    D T1258       5.370   1.479 -10.822  1.00 24.16     0.060 A 
HETATM    7  C3    D T1258       5.385   0.560  -9.750  1.00 22.08     0.014 A 
HETATM    8 CL14   D T1258       6.473   1.261 -12.187  1.00 26.89    -0.082 Cl
HETATM    9  C4    D T1258       4.559   0.763  -8.648  1.00 21.98     0.028 A 
ENDBRANCH   1   2
BRANCH   1  10
HETATM   10  C8    D T1258       3.288   2.465  -6.435  1.00 26.64     0.111 A 
HETATM   11  C9    D T1258       3.465   1.579  -5.302  1.00 26.93     0.081 A 
HETATM   12  C10   D T1258       3.891   2.077  -4.115  1.00 30.17     0.025 A 
HETATM   13 CL16   D T1258       3.062  -0.129  -5.450  1.00 51.29    -0.080 Cl
HETATM   14  C11   D T1258       4.067   3.444  -3.958  1.00 28.51     0.059 A 
HETATM   15  C12   D T1258       3.906   4.316  -5.068  1.00 27.32     0.013 A 
HETATM   16 CL15   D T1258       4.565   4.090  -2.400  1.00 39.13    -0.082 Cl
HETATM   17  C13   D T1258       3.520   3.814  -6.291  1.00 28.27     0.026 A 
ENDBRANCH   1  10
TORSDOF 2
ENDMDL
MODEL 6
REMARK VINA RESULT:    -7.080      2.052      2.196
REMARK INTER + INTRA:          -8.235
REMARK INTER:                  -7.785
REMARK INTRA:                  -0.450
REMARK UNBOUND:                -0.327
REMARK  2 active torsions:
REMARK  status: ('A' for Active; 'I' for Inactive)
REMARK    1  A    between atoms: C5_4  and  O7_13 
REMARK    2  A    between atoms: C8_10  and  O7_13 
ROOT
HETATM    1  O7    D T1258       2.809   1.911  -7.433  1.00 25.09    -0.304 OA
ENDROOT
BRANCH   1   2
HETATM    2  C5    D T1258       3.219   2.411  -6.243  1.00 24.92     0.125 A 
HETATM    3  C6    D T1258       3.447   1.519  -5.124  1.00 20.38     0.154 A 
HETATM    4  C1    D T1258       3.870   2.021  -3.932  1.00 24.39     0.041 A 
HETATM    5  O17   D T1258       3.217   0.202  -5.257  1.00 23.90    -0.188 OA
HETATM    6  C2    D T1258       4.081   3.406  -3.785  1.00 24.16     0.060 A 
HETATM    7  C3    D T1258       3.865   4.276  -4.875  1.00 22.08     0.014 A 
HETATM    8 CL14   D T1258       4.634   4.052  -2.234  1.00 26.89    -0.082 Cl
HETATM    9  C4    D T1258       3.487   3.762  -6.112  1.00 21.98     0.028 A 
ENDBRANCH   1   2
BRANCH   1  10
HETATM   10  C8    D T1258       3.685   1.785  -8.450  1.00 26.64     0.111 A 
HETATM   11  C9    D T1258       3.707   2.769  -9.514  1.00 26.93     0.081 A 
HETATM   12  C10   D T1258       4.552   2.610 -10.563  1.00 30.17     0.025 A 
HETATM   13 CL16   D T1258       2.592   4.132  -9.476  1.00 51.29    -0.080 Cl
HETATM   14  C11   D T1258       5.325   1.463 -10.665  1.00 28.51     0.059 A 
HETATM   15  C12   D T1258       5.314   0.501  -9.621  1.00 27.32     0.013 A 
HETATM   16 CL15   D T1258       6.376   1.237 -12.057  1.00 39.13    -0.082 Cl
HETATM   17  C13   D T1258       4.495   0.676  -8.528  1.00 28.27     0.026 A 
ENDBRANCH   1  10
TORSDOF 2
ENDMDL
MODEL 7
REMARK VINA RESULT:    -6.922      1.974      6.210
REMARK INTER + INTRA:          -8.058
REMARK INTER:                  -7.975
REMARK INTRA:                  -0.083
REMARK UNBOUND:                -0.327
REMARK  2 active torsions:
REMARK  status: ('A' for Active; 'I' for Inactive)
REMARK    1  A    between atoms: C5_4  and  O7_13 
REMARK    2  A    between atoms: C8_10  and  O7_13 
ROOT
HETATM    1  O7    D T1258       3.362   3.144  -7.396  1.00 25.09    -0.304 OA
ENDROOT
BRANCH   1   2
HETATM    2  C5    D T1258       4.054   2.699  -8.473  1.00 24.92     0.125 A 
HETATM    3  C6    D T1258       5.469   2.987  -8.593  1.00 20.38     0.154 A 
HETATM    4  C1    D T1258       6.165   2.531  -9.669  1.00 24.39     0.041 A 
HETATM    5  O17   D T1258       6.086   3.725  -7.655  1.00 23.90    -0.188 OA
HETATM    6  C2    D T1258       5.510   1.783 -10.667  1.00 24.16     0.060 A 
HETATM    7  C3    D T1258       4.133   1.496 -10.550  1.00 22.08     0.014 A 
HETATM    8 CL14   D T1258       6.421   1.189 -12.062  1.00 26.89    -0.082 Cl
HETATM    9  C4    D T1258       3.428   1.913  -9.424  1.00 21.98     0.028 A 
ENDBRANCH   1   2
BRANCH   1  10
HETATM   10  C8    D T1258       3.092   2.307  -6.375  1.00 26.64     0.111 A 
HETATM   11  C9    D T1258       2.301   2.766  -5.251  1.00 26.93     0.081 A 
HETATM   12  C10   D T1258       2.076   1.939  -4.199  1.00 30.17     0.025 A 
HETATM   13 CL16   D T1258       1.690   4.418  -5.221  1.00 51.29    -0.080 Cl
HETATM   14  C11   D T1258       2.679   0.691  -4.157  1.00 28.51     0.059 A 
HETATM   15  C12   D T1258       3.447   0.231  -5.261  1.00 27.32     0.013 A 
HETATM   16 CL15   D T1258       2.430  -0.355  -2.765  1.00 39.13    -0.082 Cl
HETATM   17  C13   D T1258       3.641   1.045  -6.354  1.00 28.27     0.026 A 
ENDBRANCH   1  10
TORSDOF 2
ENDMDL
MODEL 8
REMARK VINA RESULT:    -6.854      2.805      3.414
REMARK INTER + INTRA:          -7.983
REMARK INTER:                  -7.462
REMARK INTRA:                  -0.521
REMARK UNBOUND:                -0.327
REMARK  2 active torsions:
REMARK  status: ('A' for Active; 'I' for Inactive)
REMARK    1  A    between atoms: C5_4  and  O7_13 
REMARK    2  A    between atoms: C8_10  and  O7_13 
ROOT
HETATM    1  O7    D T1258       2.466   2.667  -6.352  1.00 25.09    -0.304 OA
ENDROOT
BRANCH   1   2
HETATM    2  C5    D T1258       3.110   3.223  -5.298  1.00 24.92     0.125 A 
HETATM    3  C6    D T1258       2.741   4.549  -4.843  1.00 20.38     0.154 A 
HETATM    4  C1    D T1258       3.381   5.102  -3.777  1.00 24.39     0.041 A 
HETATM    5  O17   D T1258       1.785   5.239  -5.487  1.00 23.90    -0.188 OA
HETATM    6  C2    D T1258       4.404   4.390  -3.121  1.00 24.16     0.060 A 
HETATM    7  C3    D T1258       4.761   3.096  -3.559  1.00 22.08     0.014 A 
HETATM    8 CL14   D T1258       5.230   5.113  -1.734  1.00 26.89    -0.082 Cl
HETATM    9  C4    D T1258       4.072   2.503  -4.612  1.00 21.98     0.028 A 
ENDBRANCH   1   2
BRANCH   1  10
HETATM   10  C8    D T1258       3.160   2.286  -7.443  1.00 26.64     0.111 A 
HETATM   11  C9    D T1258       3.172   0.893  -7.844  1.00 26.93     0.081 A 
HETATM   12  C10   D T1258       3.916   0.505  -8.911  1.00 30.17     0.025 A 
HETATM   13 CL16   D T1258       2.279  -0.301  -6.908  1.00 51.29    -0.080 Cl
HETATM   14  C11   D T1258       4.733   1.419  -9.557  1.00 28.51     0.059 A 
HETATM   15  C12   D T1258       4.716   2.787  -9.175  1.00 27.32     0.013 A 
HETATM   16 CL15   D T1258       5.737   0.896 -10.904  1.00 39.13    -0.082 Cl
HETATM   17  C13   D T1258       3.929   3.201  -8.124  1.00 28.27     0.026 A 
ENDBRANCH   1  10
TORSDOF 2
ENDMDL
MODEL 9
REMARK VINA RESULT:    -6.809      1.719      6.003
REMARK INTER + INTRA:          -7.933
REMARK INTER:                  -7.732
REMARK INTRA:                  -0.200
REMARK UNBOUND:                -0.327
REMARK  2 active torsions:
REMARK  status: ('A' for Active; 'I' for Inactive)
REMARK    1  A    between atoms: C5_4  and  O7_13 
REMARK    2  A    between atoms: C8_10  and  O7_13 
ROOT
HETATM    1  O7    D T1258       2.918   1.081  -7.071  1.00 25.09    -0.304 OA
ENDROOT
BRANCH   1   2
HETATM    2  C5    D T1258       3.639   1.115  -8.217  1.00 24.92     0.125 A 
HETATM    3  C6    D T1258       5.087   1.087  -8.163  1.00 20.38     0.154 A 
HETATM    4  C1    D T1258       5.809   1.110  -9.315  1.00 24.39     0.041 A 
HETATM    5  O17   D T1258       5.714   1.064  -6.975  1.00 23.90    -0.188 OA
HETATM    6  C2    D T1258       5.151   1.166 -10.559  1.00 24.16     0.060 A 
HETATM    7  C3    D T1258       3.741   1.187 -10.615  1.00 22.08     0.014 A 
HETATM    8 CL14   D T1258       6.095   1.192 -12.055  1.00 26.89    -0.082 Cl
HETATM    9  C4    D T1258       2.996   1.108  -9.443  1.00 21.98     0.028 A 
ENDBRANCH   1   2
BRANCH   1  10
HETATM   10  C8    D T1258       2.822   2.184  -6.301  1.00 26.64     0.111 A 
HETATM   11  C9    D T1258       2.779   2.058  -4.857  1.00 26.93     0.081 A 
HETATM   12  C10   D T1258       2.627   3.165  -4.087  1.00 30.17     0.025 A 
HETATM   13 CL16   D T1258       2.854   0.466  -4.110  1.00 51.29    -0.080 Cl
HETATM   14  C11   D T1258       2.420   4.401  -4.682  1.00 28.51     0.059 A 
HETATM   15  C12   D T1258       2.472   4.531  -6.095  1.00 27.32     0.013 A 
HETATM   16 CL15   D T1258       2.168   5.823  -3.678  1.00 39.13    -0.082 Cl
HETATM   17  C13   D T1258       2.674   3.421  -6.884  1.00 28.27     0.026 A 
ENDBRANCH   1  10
TORSDOF 2
ENDMDL
