MODEL 1
REMARK VINA RESULT:    -7.789      0.000      0.000
REMARK INTER + INTRA:          -9.051
REMARK INTER:                  -8.700
REMARK INTRA:                  -0.351
REMARK UNBOUND:                -0.351
REMARK  2 active torsions:
REMARK  status: ('A' for Active; 'I' for Inactive)
REMARK    1  A    between atoms: C5_4  and  O7_13 
REMARK    2  A    between atoms: C8_10  and  O7_13 
ROOT
HETATM    1  O7    D T1258       6.118   0.769  -7.488  1.00 25.09    -0.304 OA
ENDROOT
BRANCH   1   2
HETATM    2  C5    D T1258       5.393   1.601  -6.704  1.00 24.92     0.125 A 
HETATM    3  C6    D T1258       4.290   1.077  -5.921  1.00 20.38     0.154 A 
HETATM    4  C1    D T1258       3.568   1.911  -5.125  1.00 24.39     0.041 A 
HETATM    5  O17   D T1258       3.965  -0.224  -6.003  1.00 23.90    -0.188 OA
HETATM    6  C2    D T1258       3.889   3.282  -5.063  1.00 24.16     0.060 A 
HETATM    7  C3    D T1258       4.967   3.793  -5.820  1.00 22.08     0.014 A 
HETATM    8 CL14   D T1258       2.950   4.361  -4.023  1.00 26.89    -0.082 Cl
HETATM    9  C4    D T1258       5.743   2.934  -6.593  1.00 21.98     0.028 A 
ENDBRANCH   1   2
BRANCH   1  10
HETATM   10  C8    D T1258       6.522   1.173  -8.709  1.00 26.64     0.111 A 
HETATM   11  C9    D T1258       5.581   1.204  -9.811  1.00 26.93     0.081 A 
HETATM   12  C10   D T1258       6.002   1.559 -11.050  1.00 30.17     0.025 A 
HETATM   13 CL16   D T1258       3.908   0.717  -9.553  1.00 51.29    -0.080 Cl
HETATM   14  C11   D T1258       7.348   1.801 -11.283  1.00 28.51     0.059 A 
HETATM   15  C12   D T1258       8.273   1.782 -10.204  1.00 27.32     0.013 A 
HETATM   16 CL15   D T1258       7.898   2.204 -12.904  1.00 39.13    -0.082 Cl
HETATM   17  C13   D T1258       7.847   1.469  -8.933  1.00 28.27     0.026 A 
ENDBRANCH   1  10
TORSDOF 2
ENDMDL
MODEL 2
REMARK VINA RESULT:    -7.746      1.382      5.936
REMARK INTER + INTRA:          -9.003
REMARK INTER:                  -8.472
REMARK INTRA:                  -0.532
REMARK UNBOUND:                -0.351
REMARK  2 active torsions:
REMARK  status: ('A' for Active; 'I' for Inactive)
REMARK    1  A    between atoms: C5_4  and  O7_13 
REMARK    2  A    between atoms: C8_10  and  O7_13 
ROOT
HETATM    1  O7    D T1258       6.855   1.010  -6.729  1.00 25.09    -0.304 OA
ENDROOT
BRANCH   1   2
HETATM    2  C5    D T1258       7.070   1.261  -8.043  1.00 24.92     0.125 A 
HETATM    3  C6    D T1258       8.293   1.918  -8.463  1.00 20.38     0.154 A 
HETATM    4  C1    D T1258       8.512   2.160  -9.783  1.00 24.39     0.041 A 
HETATM    5  O17   D T1258       9.194   2.308  -7.547  1.00 23.90    -0.188 OA
HETATM    6  C2    D T1258       7.552   1.777 -10.740  1.00 24.16     0.060 A 
HETATM    7  C3    D T1258       6.363   1.132 -10.334  1.00 22.08     0.014 A 
HETATM    8 CL14   D T1258       7.845   2.091 -12.457  1.00 26.89    -0.082 Cl
HETATM    9  C4    D T1258       6.158   0.832  -8.990  1.00 21.98     0.028 A 
ENDBRANCH   1   2
BRANCH   1  10
HETATM   10  C8    D T1258       5.950   1.736  -6.042  1.00 26.64     0.111 A 
HETATM   11  C9    D T1258       4.677   1.148  -5.675  1.00 26.93     0.081 A 
HETATM   12  C10   D T1258       3.747   1.896  -5.031  1.00 30.17     0.025 A 
HETATM   13 CL16   D T1258       4.315  -0.516  -6.123  1.00 51.29    -0.080 Cl
HETATM   14  C11   D T1258       3.976   3.246  -4.809  1.00 28.51     0.059 A 
HETATM   15  C12   D T1258       5.226   3.825  -5.158  1.00 27.32     0.013 A 
HETATM   16 CL15   D T1258       2.743   4.226  -4.026  1.00 39.13    -0.082 Cl
HETATM   17  C13   D T1258       6.195   3.061  -5.768  1.00 28.27     0.026 A 
ENDBRANCH   1  10
TORSDOF 2
ENDMDL
MODEL 3
REMARK VINA RESULT:    -7.736      1.540      1.996
REMARK INTER + INTRA:          -8.992
REMARK INTER:                  -8.449
REMARK INTRA:                  -0.543
REMARK UNBOUND:                -0.351
REMARK  2 active torsions:
REMARK  status: ('A' for Active; 'I' for Inactive)
REMARK    1  A    between atoms: C5_4  and  O7_13 
REMARK    2  A    between atoms: C8_10  and  O7_13 
ROOT
HETATM    1  O7    D T1258       6.783   1.024  -6.739  1.00 25.09    -0.304 OA
ENDROOT
BRANCH   1   2
HETATM    2  C5    D T1258       5.851   1.785  -6.118  1.00 24.92     0.125 A 
HETATM    3  C6    D T1258       4.636   1.172  -5.616  1.00 20.38     0.154 A 
HETATM    4  C1    D T1258       3.705   1.935  -4.982  1.00 24.39     0.041 A 
HETATM    5  O17   D T1258       4.420  -0.141  -5.798  1.00 23.90    -0.188 OA
HETATM    6  C2    D T1258       3.918   3.317  -4.818  1.00 24.16     0.060 A 
HETATM    7  C3    D T1258       5.103   3.915  -5.300  1.00 22.08     0.014 A 
HETATM    8 CL14   D T1258       2.705   4.304  -3.989  1.00 26.89    -0.082 Cl
HETATM    9  C4    D T1258       6.084   3.130  -5.900  1.00 21.98     0.028 A 
ENDBRANCH   1   2
BRANCH   1  10
HETATM   10  C8    D T1258       7.029   1.197  -8.053  1.00 26.64     0.111 A 
HETATM   11  C9    D T1258       8.237   1.874  -8.482  1.00 26.93     0.081 A 
HETATM   12  C10   D T1258       8.456   2.095  -9.802  1.00 30.17     0.025 A 
HETATM   13 CL16   D T1258       9.386   2.467  -7.286  1.00 51.29    -0.080 Cl
HETATM   14  C11   D T1258       7.484   1.758 -10.732  1.00 28.51     0.059 A 
HETATM   15  C12   D T1258       6.302   1.086 -10.318  1.00 27.32     0.013 A 
HETATM   16 CL15   D T1258       7.748   2.100 -12.438  1.00 39.13    -0.082 Cl
HETATM   17  C13   D T1258       6.093   0.814  -8.985  1.00 28.27     0.026 A 
ENDBRANCH   1  10
TORSDOF 2
ENDMDL
MODEL 4
REMARK VINA RESULT:    -7.473      2.453      2.981
REMARK INTER + INTRA:          -8.698
REMARK INTER:                  -8.194
REMARK INTRA:                  -0.504
REMARK UNBOUND:                -0.351
REMARK  2 active torsions:
REMARK  status: ('A' for Active; 'I' for Inactive)
REMARK    1  A    between atoms: C5_4  and  O7_13 
REMARK    2  A    between atoms: C8_10  and  O7_13 
ROOT
HETATM    1  O7    D T1258       6.671   3.474  -6.835  1.00 25.09    -0.304 OA
ENDROOT
BRANCH   1   2
HETATM    2  C5    D T1258       5.944   2.717  -5.979  1.00 24.92     0.125 A 
HETATM    3  C6    D T1258       4.728   3.250  -5.398  1.00 20.38     0.154 A 
HETATM    4  C1    D T1258       3.992   2.485  -4.547  1.00 24.39     0.041 A 
HETATM    5  O17   D T1258       4.341   4.505  -5.680  1.00 23.90    -0.188 OA
HETATM    6  C2    D T1258       4.414   1.179  -4.227  1.00 24.16     0.060 A 
HETATM    7  C3    D T1258       5.595   0.656  -4.797  1.00 22.08     0.014 A 
HETATM    8 CL14   D T1258       3.451   0.188  -3.122  1.00 26.89    -0.082 Cl
HETATM    9  C4    D T1258       6.322   1.414  -5.711  1.00 21.98     0.028 A 
ENDBRANCH   1   2
BRANCH   1  10
HETATM   10  C8    D T1258       6.843   3.073  -8.111  1.00 26.64     0.111 A 
HETATM   11  C9    D T1258       8.119   2.532  -8.535  1.00 26.93     0.081 A 
HETATM   12  C10   D T1258       8.307   2.180  -9.832  1.00 30.17     0.025 A 
HETATM   13 CL16   D T1258       9.443   2.392  -7.383  1.00 51.29    -0.080 Cl
HETATM   14  C11   D T1258       7.314   2.426 -10.768  1.00 28.51     0.059 A 
HETATM   15  C12   D T1258       6.058   2.947 -10.356  1.00 27.32     0.013 A 
HETATM   16 CL15   D T1258       7.585   2.021 -12.458  1.00 39.13    -0.082 Cl
HETATM   17  C13   D T1258       5.840   3.262  -9.034  1.00 28.27     0.026 A 
ENDBRANCH   1  10
TORSDOF 2
ENDMDL
MODEL 5
REMARK VINA RESULT:    -7.392      2.089      6.116
REMARK INTER + INTRA:          -8.608
REMARK INTER:                  -8.134
REMARK INTRA:                  -0.474
REMARK UNBOUND:                -0.351
REMARK  2 active torsions:
REMARK  status: ('A' for Active; 'I' for Inactive)
REMARK    1  A    between atoms: C5_4  and  O7_13 
REMARK    2  A    between atoms: C8_10  and  O7_13 
ROOT
HETATM    1  O7    D T1258       6.411   3.485  -6.637  1.00 25.09    -0.304 OA
ENDROOT
BRANCH   1   2
HETATM    2  C5    D T1258       6.654   3.152  -7.927  1.00 24.92     0.125 A 
HETATM    3  C6    D T1258       7.958   2.648  -8.310  1.00 20.38     0.154 A 
HETATM    4  C1    D T1258       8.198   2.303  -9.604  1.00 24.39     0.041 A 
HETATM    5  O17   D T1258       8.935   2.545  -7.394  1.00 23.90    -0.188 OA
HETATM    6  C2    D T1258       7.182   2.440 -10.571  1.00 24.16     0.060 A 
HETATM    7  C3    D T1258       5.909   2.925 -10.199  1.00 22.08     0.014 A 
HETATM    8 CL14   D T1258       7.499   1.987 -12.252  1.00 26.89    -0.082 Cl
HETATM    9  C4    D T1258       5.642   3.227  -8.867  1.00 21.98     0.028 A 
ENDBRANCH   1   2
BRANCH   1  10
HETATM   10  C8    D T1258       5.666   2.674  -5.860  1.00 26.64     0.111 A 
HETATM   11  C9    D T1258       4.495   3.194  -5.182  1.00 26.93     0.081 A 
HETATM   12  C10   D T1258       3.778   2.390  -4.357  1.00 30.17     0.025 A 
HETATM   13 CL16   D T1258       4.042   4.884  -5.379  1.00 51.29    -0.080 Cl
HETATM   14  C11   D T1258       4.218   1.103  -4.089  1.00 28.51     0.059 A 
HETATM   15  C12   D T1258       5.360   0.585  -4.758  1.00 27.32     0.013 A 
HETATM   16 CL15   D T1258       3.317   0.084  -2.974  1.00 39.13    -0.082 Cl
HETATM   17  C13   D T1258       6.066   1.377  -5.634  1.00 28.27     0.026 A 
ENDBRANCH   1  10
TORSDOF 2
ENDMDL
MODEL 6
REMARK VINA RESULT:    -7.371      2.043      6.006
REMARK INTER + INTRA:          -8.584
REMARK INTER:                  -8.108
REMARK INTRA:                  -0.476
REMARK UNBOUND:                -0.351
REMARK  2 active torsions:
REMARK  status: ('A' for Active; 'I' for Inactive)
REMARK    1  A    between atoms: C5_4  and  O7_13 
REMARK    2  A    between atoms: C8_10  and  O7_13 
ROOT
HETATM    1  O7    D T1258       4.387   1.825  -7.756  1.00 25.09    -0.304 OA
ENDROOT
BRANCH   1   2
HETATM    2  C5    D T1258       5.273   1.834  -8.780  1.00 24.92     0.125 A 
HETATM    3  C6    D T1258       5.334   2.974  -9.673  1.00 20.38     0.154 A 
HETATM    4  C1    D T1258       6.233   2.987 -10.694  1.00 24.39     0.041 A 
HETATM    5  O17   D T1258       4.488   4.004  -9.508  1.00 23.90    -0.188 OA
HETATM    6  C2    D T1258       7.100   1.893 -10.886  1.00 24.16     0.060 A 
HETATM    7  C3    D T1258       7.047   0.784 -10.013  1.00 22.08     0.014 A 
HETATM    8 CL14   D T1258       8.269   1.917 -12.213  1.00 26.89    -0.082 Cl
HETATM    9  C4    D T1258       6.167   0.790  -8.933  1.00 21.98     0.028 A 
ENDBRANCH   1   2
BRANCH   1  10
HETATM   10  C8    D T1258       4.802   2.088  -6.500  1.00 26.64     0.111 A 
HETATM   11  C9    D T1258       4.716   1.063  -5.479  1.00 26.93     0.081 A 
HETATM   12  C10   D T1258       5.083   1.346  -4.204  1.00 30.17     0.025 A 
HETATM   13 CL16   D T1258       4.073  -0.527  -5.879  1.00 51.29    -0.080 Cl
HETATM   14  C11   D T1258       5.451   2.638  -3.859  1.00 28.51     0.059 A 
HETATM   15  C12   D T1258       5.547   3.644  -4.859  1.00 27.32     0.013 A 
HETATM   16 CL15   D T1258       5.871   3.013  -2.193  1.00 39.13    -0.082 Cl
HETATM   17  C13   D T1258       5.222   3.354  -6.165  1.00 28.27     0.026 A 
ENDBRANCH   1  10
TORSDOF 2
ENDMDL
MODEL 7
REMARK VINA RESULT:    -7.140      1.930      2.067
REMARK INTER + INTRA:          -8.326
REMARK INTER:                  -7.910
REMARK INTRA:                  -0.416
REMARK UNBOUND:                -0.351
REMARK  2 active torsions:
REMARK  status: ('A' for Active; 'I' for Inactive)
REMARK    1  A    between atoms: C5_4  and  O7_13 
REMARK    2  A    between atoms: C8_10  and  O7_13 
ROOT
HETATM    1  O7    D T1258       4.316   1.971  -7.246  1.00 25.09    -0.304 OA
ENDROOT
BRANCH   1   2
HETATM    2  C5    D T1258       4.626   2.291  -5.967  1.00 24.92     0.125 A 
HETATM    3  C6    D T1258       4.586   1.271  -4.937  1.00 20.38     0.154 A 
HETATM    4  C1    D T1258       4.909   1.590  -3.655  1.00 24.39     0.041 A 
HETATM    5  O17   D T1258       4.208   0.019  -5.245  1.00 23.90    -0.188 OA
HETATM    6  C2    D T1258       5.276   2.910  -3.327  1.00 24.16     0.060 A 
HETATM    7  C3    D T1258       5.321   3.904  -4.330  1.00 22.08     0.014 A 
HETATM    8 CL14   D T1258       5.698   3.319  -1.658  1.00 26.89    -0.082 Cl
HETATM    9  C4    D T1258       5.046   3.570  -5.653  1.00 21.98     0.028 A 
ENDBRANCH   1   2
BRANCH   1  10
HETATM   10  C8    D T1258       5.294   1.829  -8.163  1.00 26.64     0.111 A 
HETATM   11  C9    D T1258       5.605   2.918  -9.067  1.00 26.93     0.081 A 
HETATM   12  C10   D T1258       6.552   2.754 -10.024  1.00 30.17     0.025 A 
HETATM   13 CL16   D T1258       4.706   4.429  -8.965  1.00 51.29    -0.080 Cl
HETATM   14  C11   D T1258       7.155   1.517 -10.197  1.00 28.51     0.059 A 
HETATM   15  C12   D T1258       6.862   0.449  -9.307  1.00 27.32     0.013 A 
HETATM   16 CL15   D T1258       8.341   1.293 -11.477  1.00 39.13    -0.082 Cl
HETATM   17  C13   D T1258       5.937   0.621  -8.302  1.00 28.27     0.026 A 
ENDBRANCH   1  10
TORSDOF 2
ENDMDL
MODEL 8
REMARK VINA RESULT:    -7.027      2.554      6.164
REMARK INTER + INTRA:          -8.199
REMARK INTER:                  -7.913
REMARK INTRA:                  -0.286
REMARK UNBOUND:                -0.351
REMARK  2 active torsions:
REMARK  status: ('A' for Active; 'I' for Inactive)
REMARK    1  A    between atoms: C5_4  and  O7_13 
REMARK    2  A    between atoms: C8_10  and  O7_13 
ROOT
HETATM    1  O7    D T1258       6.684   3.629  -6.761  1.00 25.09    -0.304 OA
ENDROOT
BRANCH   1   2
HETATM    2  C5    D T1258       6.892   3.217  -8.034  1.00 24.92     0.125 A 
HETATM    3  C6    D T1258       6.032   3.697  -9.098  1.00 20.38     0.154 A 
HETATM    4  C1    D T1258       6.248   3.291 -10.379  1.00 24.39     0.041 A 
HETATM    5  O17   D T1258       5.008   4.519  -8.816  1.00 23.90    -0.188 OA
HETATM    6  C2    D T1258       7.304   2.405 -10.670  1.00 24.16     0.060 A 
HETATM    7  C3    D T1258       8.147   1.942  -9.636  1.00 22.08     0.014 A 
HETATM    8 CL14   D T1258       7.583   1.884 -12.338  1.00 26.89    -0.082 Cl
HETATM    9  C4    D T1258       7.964   2.396  -8.332  1.00 21.98     0.028 A 
ENDBRANCH   1   2
BRANCH   1  10
HETATM   10  C8    D T1258       5.939   2.880  -5.922  1.00 26.64     0.111 A 
HETATM   11  C9    D T1258       6.585   1.997  -4.972  1.00 26.93     0.081 A 
HETATM   12  C10   D T1258       5.834   1.204  -4.167  1.00 30.17     0.025 A 
HETATM   13 CL16   D T1258       8.343   1.906  -4.908  1.00 51.29    -0.080 Cl
HETATM   14  C11   D T1258       4.456   1.170  -4.318  1.00 28.51     0.059 A 
HETATM   15  C12   D T1258       3.817   2.040  -5.242  1.00 27.32     0.013 A 
HETATM   16 CL15   D T1258       3.492   0.097  -3.311  1.00 39.13    -0.082 Cl
HETATM   17  C13   D T1258       4.568   2.884  -6.029  1.00 28.27     0.026 A 
ENDBRANCH   1  10
TORSDOF 2
ENDMDL
MODEL 9
REMARK VINA RESULT:    -6.903      2.745      3.584
REMARK INTER + INTRA:          -8.062
REMARK INTER:                  -7.523
REMARK INTRA:                  -0.539
REMARK UNBOUND:                -0.351
REMARK  2 active torsions:
REMARK  status: ('A' for Active; 'I' for Inactive)
REMARK    1  A    between atoms: C5_4  and  O7_13 
REMARK    2  A    between atoms: C8_10  and  O7_13 
ROOT
HETATM    1  O7    D T1258       3.749   2.332  -5.523  1.00 25.09    -0.304 OA
ENDROOT
BRANCH   1   2
HETATM    2  C5    D T1258       4.336   2.857  -4.422  1.00 24.92     0.125 A 
HETATM    3  C6    D T1258       4.138   4.256  -4.096  1.00 20.38     0.154 A 
HETATM    4  C1    D T1258       4.719   4.781  -2.983  1.00 24.39     0.041 A 
HETATM    5  O17   D T1258       3.404   5.038  -4.904  1.00 23.90    -0.188 OA
HETATM    6  C2    D T1258       5.515   3.968  -2.152  1.00 24.16     0.060 A 
HETATM    7  C3    D T1258       5.704   2.604  -2.465  1.00 22.08     0.014 A 
HETATM    8 CL14   D T1258       6.265   4.655  -0.704  1.00 26.89    -0.082 Cl
HETATM    9  C4    D T1258       5.067   2.049  -3.572  1.00 21.98     0.028 A 
ENDBRANCH   1   2
BRANCH   1  10
HETATM   10  C8    D T1258       4.497   2.009  -6.598  1.00 26.64     0.111 A 
HETATM   11  C9    D T1258       4.661   0.620  -6.977  1.00 26.93     0.081 A 
HETATM   12  C10   D T1258       5.457   0.294  -8.026  1.00 30.17     0.025 A 
HETATM   13 CL16   D T1258       3.879  -0.647  -6.036  1.00 51.29    -0.080 Cl
HETATM   14  C11   D T1258       6.186   1.279  -8.675  1.00 28.51     0.059 A 
HETATM   15  C12   D T1258       6.022   2.644  -8.314  1.00 27.32     0.013 A 
HETATM   16 CL15   D T1258       7.262   0.844  -9.997  1.00 39.13    -0.082 Cl
HETATM   17  C13   D T1258       5.179   2.989  -7.282  1.00 28.27     0.026 A 
ENDBRANCH   1  10
TORSDOF 2
ENDMDL
