MODEL 1
REMARK VINA RESULT:    -8.015      0.000      0.000
REMARK INTER + INTRA:          -9.196
REMARK INTER:                  -8.952
REMARK INTRA:                  -0.243
REMARK UNBOUND:                -0.243
REMARK  2 active torsions:
REMARK  status: ('A' for Active; 'I' for Inactive)
REMARK    1  A    between atoms: C5_4  and  O7_13 
REMARK    2  A    between atoms: C8_10  and  O7_13 
ROOT
HETATM    1  O7    D T1258       1.013  32.264   7.708  1.00 25.09    -0.304 OA
ENDROOT
BRANCH   1   2
HETATM    2  C5    D T1258       1.629  31.999   8.885  1.00 24.92     0.125 A 
HETATM    3  C6    D T1258       2.382  33.039   9.558  1.00 20.38     0.154 A 
HETATM    4  C1    D T1258       2.990  32.775  10.746  1.00 24.39     0.041 A 
HETATM    5  O17   D T1258       2.500  34.253   8.996  1.00 23.90    -0.188 OA
HETATM    6  C2    D T1258       2.891  31.492  11.320  1.00 24.16     0.060 A 
HETATM    7  C3    D T1258       2.153  30.479  10.669  1.00 22.08     0.014 A 
HETATM    8 CL14   D T1258       3.681  31.156  12.867  1.00 26.89    -0.082 Cl
HETATM    9  C4    D T1258       1.483  30.759   9.482  1.00 21.98     0.028 A 
ENDBRANCH   1   2
BRANCH   1  10
HETATM   10  C8    D T1258       1.063  31.366   6.704  1.00 26.64     0.111 A 
HETATM   11  C9    D T1258       2.326  31.076   6.053  1.00 26.93     0.081 A 
HETATM   12  C10   D T1258       2.365  30.213   5.007  1.00 30.17     0.025 A 
HETATM   13 CL16   D T1258       3.794  31.894   6.577  1.00 51.29    -0.080 Cl
HETATM   14  C11   D T1258       1.187  29.681   4.502  1.00 28.51     0.059 A 
HETATM   15  C12   D T1258      -0.051  29.954   5.142  1.00 27.32     0.013 A 
HETATM   16 CL15   D T1258       1.238  28.608   3.109  1.00 39.13    -0.082 Cl
HETATM   17  C13   D T1258      -0.095  30.791   6.235  1.00 28.27     0.026 A 
ENDBRANCH   1  10
TORSDOF 2
ENDMDL
MODEL 2
REMARK VINA RESULT:    -7.717      1.222      5.693
REMARK INTER + INTRA:          -8.863
REMARK INTER:                  -8.631
REMARK INTRA:                  -0.232
REMARK UNBOUND:                -0.243
REMARK  2 active torsions:
REMARK  status: ('A' for Active; 'I' for Inactive)
REMARK    1  A    between atoms: C5_4  and  O7_13 
REMARK    2  A    between atoms: C8_10  and  O7_13 
ROOT
HETATM    1  O7    D T1258       1.440  32.195   7.717  1.00 25.09    -0.304 OA
ENDROOT
BRANCH   1   2
HETATM    2  C5    D T1258       1.360  31.379   6.639  1.00 24.92     0.125 A 
HETATM    3  C6    D T1258       2.572  30.874   6.023  1.00 20.38     0.154 A 
HETATM    4  C1    D T1258       2.491  30.045   4.947  1.00 24.39     0.041 A 
HETATM    5  O17   D T1258       3.772  31.246   6.497  1.00 23.90    -0.188 OA
HETATM    6  C2    D T1258       1.232  29.680   4.431  1.00 24.16     0.060 A 
HETATM    7  C3    D T1258       0.050  30.165   5.033  1.00 22.08     0.014 A 
HETATM    8 CL14   D T1258       1.132  28.599   3.035  1.00 26.89    -0.082 Cl
HETATM    9  C4    D T1258       0.126  30.969   6.167  1.00 21.98     0.028 A 
ENDBRANCH   1   2
BRANCH   1  10
HETATM   10  C8    D T1258       1.679  31.677   8.938  1.00 26.64     0.111 A 
HETATM   11  C9    D T1258       2.803  32.153   9.720  1.00 26.93     0.081 A 
HETATM   12  C10   D T1258       3.074  31.593  10.925  1.00 30.17     0.025 A 
HETATM   13 CL16   D T1258       3.855  33.410   9.074  1.00 51.29    -0.080 Cl
HETATM   14  C11   D T1258       2.335  30.506  11.367  1.00 28.51     0.059 A 
HETATM   15  C12   D T1258       1.226  30.042  10.610  1.00 27.32     0.013 A 
HETATM   16 CL15   D T1258       2.727  29.747  12.905  1.00 39.13    -0.082 Cl
HETATM   17  C13   D T1258       0.913  30.636   9.407  1.00 28.27     0.026 A 
ENDBRANCH   1  10
TORSDOF 2
ENDMDL
MODEL 3
REMARK VINA RESULT:    -7.398      1.709      2.127
REMARK INTER + INTRA:          -8.506
REMARK INTER:                  -8.007
REMARK INTRA:                  -0.499
REMARK UNBOUND:                -0.243
REMARK  2 active torsions:
REMARK  status: ('A' for Active; 'I' for Inactive)
REMARK    1  A    between atoms: C5_4  and  O7_13 
REMARK    2  A    between atoms: C8_10  and  O7_13 
ROOT
HETATM    1  O7    D T1258       0.942  32.142   8.660  1.00 25.09    -0.304 OA
ENDROOT
BRANCH   1   2
HETATM    2  C5    D T1258       1.450  31.564   9.774  1.00 24.92     0.125 A 
HETATM    3  C6    D T1258       2.686  32.059  10.347  1.00 20.38     0.154 A 
HETATM    4  C1    D T1258       3.190  31.486  11.473  1.00 24.39     0.041 A 
HETATM    5  O17   D T1258       3.346  33.066   9.751  1.00 23.90    -0.188 OA
HETATM    6  C2    D T1258       2.512  30.409  12.080  1.00 24.16     0.060 A 
HETATM    7  C3    D T1258       1.305  29.929  11.528  1.00 22.08     0.014 A 
HETATM    8 CL14   D T1258       3.169  29.669  13.546  1.00 26.89    -0.082 Cl
HETATM    9  C4    D T1258       0.757  30.548  10.408  1.00 21.98     0.028 A 
ENDBRANCH   1   2
BRANCH   1  10
HETATM   10  C8    D T1258       1.000  31.495   7.478  1.00 26.64     0.111 A 
HETATM   11  C9    D T1258      -0.178  30.830   6.957  1.00 26.93     0.081 A 
HETATM   12  C10   D T1258      -0.103  30.134   5.795  1.00 30.17     0.025 A 
HETATM   13 CL16   D T1258      -1.686  30.871   7.866  1.00 51.29    -0.080 Cl
HETATM   14  C11   D T1258       1.118  29.980   5.156  1.00 28.51     0.059 A 
HETATM   15  C12   D T1258       2.274  30.638   5.657  1.00 27.32     0.013 A 
HETATM   16 CL15   D T1258       1.220  29.029   3.680  1.00 39.13    -0.082 Cl
HETATM   17  C13   D T1258       2.198  31.387   6.810  1.00 28.27     0.026 A 
ENDBRANCH   1  10
TORSDOF 2
ENDMDL
MODEL 4
REMARK VINA RESULT:    -7.394      1.405      1.834
REMARK INTER + INTRA:          -8.502
REMARK INTER:                  -8.010
REMARK INTRA:                  -0.492
REMARK UNBOUND:                -0.243
REMARK  2 active torsions:
REMARK  status: ('A' for Active; 'I' for Inactive)
REMARK    1  A    between atoms: C5_4  and  O7_13 
REMARK    2  A    between atoms: C8_10  and  O7_13 
ROOT
HETATM    1  O7    D T1258       1.116  31.883   8.465  1.00 25.09    -0.304 OA
ENDROOT
BRANCH   1   2
HETATM    2  C5    D T1258       1.312  31.296   9.670  1.00 24.92     0.125 A 
HETATM    3  C6    D T1258       0.261  31.326  10.669  1.00 20.38     0.154 A 
HETATM    4  C1    D T1258       0.454  30.727  11.874  1.00 24.39     0.041 A 
HETATM    5  O17   D T1258      -0.891  31.967  10.412  1.00 23.90    -0.188 OA
HETATM    6  C2    D T1258       1.676  30.082  12.154  1.00 24.16     0.060 A 
HETATM    7  C3    D T1258       2.698  30.046  11.181  1.00 22.08     0.014 A 
HETATM    8 CL14   D T1258       1.920  29.301  13.722  1.00 26.89    -0.082 Cl
HETATM    9  C4    D T1258       2.485  30.609   9.926  1.00 21.98     0.028 A 
ENDBRANCH   1   2
BRANCH   1  10
HETATM   10  C8    D T1258       1.138  31.138   7.342  1.00 26.64     0.111 A 
HETATM   11  C9    D T1258       2.294  31.179   6.468  1.00 26.93     0.081 A 
HETATM   12  C10   D T1258       2.292  30.472   5.310  1.00 30.17     0.025 A 
HETATM   13 CL16   D T1258       3.670  32.199   6.876  1.00 51.29    -0.080 Cl
HETATM   14  C11   D T1258       1.152  29.786   4.918  1.00 28.51     0.059 A 
HETATM   15  C12   D T1258       0.020  29.734   5.775  1.00 27.32     0.013 A 
HETATM   16 CL15   D T1258       1.135  28.917   3.389  1.00 39.13    -0.082 Cl
HETATM   17  C13   D T1258       0.030  30.410   6.975  1.00 28.27     0.026 A 
ENDBRANCH   1  10
TORSDOF 2
ENDMDL
MODEL 5
REMARK VINA RESULT:    -7.376      2.451      2.800
REMARK INTER + INTRA:          -8.482
REMARK INTER:                  -7.935
REMARK INTRA:                  -0.548
REMARK UNBOUND:                -0.243
REMARK  2 active torsions:
REMARK  status: ('A' for Active; 'I' for Inactive)
REMARK    1  A    between atoms: C5_4  and  O7_13 
REMARK    2  A    between atoms: C8_10  and  O7_13 
ROOT
HETATM    1  O7    D T1258       1.062  29.970   9.897  1.00 25.09    -0.304 OA
ENDROOT
BRANCH   1   2
HETATM    2  C5    D T1258       1.306  31.211  10.379  1.00 24.92     0.125 A 
HETATM    3  C6    D T1258       0.307  31.882  11.189  1.00 20.38     0.154 A 
HETATM    4  C1    D T1258       0.556  33.124  11.683  1.00 24.39     0.041 A 
HETATM    5  O17   D T1258      -0.873  31.286  11.428  1.00 23.90    -0.188 OA
HETATM    6  C2    D T1258       1.783  33.760  11.405  1.00 24.16     0.060 A 
HETATM    7  C3    D T1258       2.760  33.107  10.622  1.00 22.08     0.014 A 
HETATM    8 CL14   D T1258       2.104  35.375  12.054  1.00 26.89    -0.082 Cl
HETATM    9  C4    D T1258       2.532  31.814  10.161  1.00 21.98     0.028 A 
ENDBRANCH   1   2
BRANCH   1  10
HETATM   10  C8    D T1258       0.998  29.764   8.566  1.00 26.64     0.111 A 
HETATM   11  C9    D T1258       2.083  29.088   7.883  1.00 26.93     0.081 A 
HETATM   12  C10   D T1258       2.041  28.931   6.536  1.00 30.17     0.025 A 
HETATM   13 CL16   D T1258       3.484  28.532   8.793  1.00 51.29    -0.080 Cl
HETATM   14  C11   D T1258       1.009  29.497   5.804  1.00 28.51     0.059 A 
HETATM   15  C12   D T1258      -0.063  30.152   6.468  1.00 27.32     0.013 A 
HETATM   16 CL15   D T1258       0.990  29.339   4.052  1.00 39.13    -0.082 Cl
HETATM   17  C13   D T1258      -0.053  30.275   7.840  1.00 28.27     0.026 A 
ENDBRANCH   1  10
TORSDOF 2
ENDMDL
MODEL 6
REMARK VINA RESULT:    -7.368      2.588      6.226
REMARK INTER + INTRA:          -8.473
REMARK INTER:                  -7.942
REMARK INTRA:                  -0.531
REMARK UNBOUND:                -0.243
REMARK  2 active torsions:
REMARK  status: ('A' for Active; 'I' for Inactive)
REMARK    1  A    between atoms: C5_4  and  O7_13 
REMARK    2  A    between atoms: C8_10  and  O7_13 
ROOT
HETATM    1  O7    D T1258       1.085  29.888   9.795  1.00 25.09    -0.304 OA
ENDROOT
BRANCH   1   2
HETATM    2  C5    D T1258       1.143  29.750   8.449  1.00 24.92     0.125 A 
HETATM    3  C6    D T1258       2.251  29.039   7.842  1.00 20.38     0.154 A 
HETATM    4  C1    D T1258       2.302  28.890   6.491  1.00 24.39     0.041 A 
HETATM    5  O17   D T1258       3.238  28.551   8.610  1.00 23.90    -0.188 OA
HETATM    6  C2    D T1258       1.281  29.429   5.682  1.00 24.16     0.060 A 
HETATM    7  C3    D T1258       0.198  30.116   6.272  1.00 22.08     0.014 A 
HETATM    8 CL14   D T1258       1.351  29.229   3.926  1.00 26.89    -0.082 Cl
HETATM    9  C4    D T1258       0.112  30.223   7.657  1.00 21.98     0.028 A 
ENDBRANCH   1   2
BRANCH   1  10
HETATM   10  C8    D T1258       1.336  31.086  10.361  1.00 26.64     0.111 A 
HETATM   11  C9    D T1258       0.247  31.872  10.906  1.00 26.93     0.081 A 
HETATM   12  C10   D T1258       0.494  33.101  11.425  1.00 30.17     0.025 A 
HETATM   13 CL16   D T1258      -1.403  31.261  10.831  1.00 51.29    -0.080 Cl
HETATM   14  C11   D T1258       1.768  33.642  11.351  1.00 28.51     0.059 A 
HETATM   15  C12   D T1258       2.842  32.872  10.827  1.00 27.32     0.013 A 
HETATM   16 CL15   D T1258       2.071  35.259  11.975  1.00 39.13    -0.082 Cl
HETATM   17  C13   D T1258       2.610  31.605  10.341  1.00 28.27     0.026 A 
ENDBRANCH   1  10
TORSDOF 2
ENDMDL
MODEL 7
REMARK VINA RESULT:    -7.306      2.385      6.130
REMARK INTER + INTRA:          -8.404
REMARK INTER:                  -7.902
REMARK INTRA:                  -0.502
REMARK UNBOUND:                -0.243
REMARK  2 active torsions:
REMARK  status: ('A' for Active; 'I' for Inactive)
REMARK    1  A    between atoms: C5_4  and  O7_13 
REMARK    2  A    between atoms: C8_10  and  O7_13 
ROOT
HETATM    1  O7    D T1258       2.866  31.188   9.152  1.00 25.09    -0.304 OA
ENDROOT
BRANCH   1   2
HETATM    2  C5    D T1258       2.381  30.771   7.958  1.00 24.92     0.125 A 
HETATM    3  C6    D T1258       2.690  29.439   7.477  1.00 20.38     0.154 A 
HETATM    4  C1    D T1258       2.192  29.017   6.283  1.00 24.39     0.041 A 
HETATM    5  O17   D T1258       3.486  28.632   8.197  1.00 23.90    -0.188 OA
HETATM    6  C2    D T1258       1.382  29.875   5.514  1.00 24.16     0.060 A 
HETATM    7  C3    D T1258       1.075  31.171   5.983  1.00 22.08     0.014 A 
HETATM    8 CL14   D T1258       0.735  29.320   3.964  1.00 26.89    -0.082 Cl
HETATM    9  C4    D T1258       1.535  31.587   7.229  1.00 21.98     0.028 A 
ENDBRANCH   1   2
BRANCH   1  10
HETATM   10  C8    D T1258       2.057  31.237  10.229  1.00 26.64     0.111 A 
HETATM   11  C9    D T1258       1.594  32.517  10.729  1.00 26.93     0.081 A 
HETATM   12  C10   D T1258       0.824  32.568  11.845  1.00 30.17     0.025 A 
HETATM   13 CL16   D T1258       2.086  34.005   9.927  1.00 51.29    -0.080 Cl
HETATM   14  C11   D T1258       0.558  31.409  12.558  1.00 28.51     0.059 A 
HETATM   15  C12   D T1258       1.000  30.151  12.067  1.00 27.32     0.013 A 
HETATM   16 CL15   D T1258      -0.393  31.489  14.036  1.00 39.13    -0.082 Cl
HETATM   17  C13   D T1258       1.742  30.084  10.908  1.00 28.27     0.026 A 
ENDBRANCH   1  10
TORSDOF 2
ENDMDL
MODEL 8
REMARK VINA RESULT:    -7.271      2.151      2.389
REMARK INTER + INTRA:          -8.364
REMARK INTER:                  -7.862
REMARK INTRA:                  -0.502
REMARK UNBOUND:                -0.243
REMARK  2 active torsions:
REMARK  status: ('A' for Active; 'I' for Inactive)
REMARK    1  A    between atoms: C5_4  and  O7_13 
REMARK    2  A    between atoms: C8_10  and  O7_13 
ROOT
HETATM    1  O7    D T1258       2.613  31.468   9.346  1.00 25.09    -0.304 OA
ENDROOT
BRANCH   1   2
HETATM    2  C5    D T1258       2.013  31.489  10.561  1.00 24.92     0.125 A 
HETATM    3  C6    D T1258       1.672  32.756  11.177  1.00 20.38     0.154 A 
HETATM    4  C1    D T1258       1.059  32.775  12.392  1.00 24.39     0.041 A 
HETATM    5  O17   D T1258       1.984  33.908  10.562  1.00 23.90    -0.188 OA
HETATM    6  C2    D T1258       0.760  31.566  13.051  1.00 24.16     0.060 A 
HETATM    7  C3    D T1258       1.086  30.331  12.449  1.00 22.08     0.014 A 
HETATM    8 CL14   D T1258      -0.040  31.597  14.628  1.00 26.89    -0.082 Cl
HETATM    9  C4    D T1258       1.662  30.304  11.183  1.00 21.98     0.028 A 
ENDBRANCH   1   2
BRANCH   1  10
HETATM   10  C8    D T1258       1.908  31.116   8.252  1.00 26.64     0.111 A 
HETATM   11  C9    D T1258       2.097  29.807   7.659  1.00 26.93     0.081 A 
HETATM   12  C10   D T1258       1.428  29.475   6.527  1.00 30.17     0.025 A 
HETATM   13 CL16   D T1258       3.244  28.675   8.370  1.00 51.29    -0.080 Cl
HETATM   14  C11   D T1258       0.637  30.418   5.887  1.00 28.51     0.059 A 
HETATM   15  C12   D T1258       0.440  31.699   6.469  1.00 27.32     0.013 A 
HETATM   16 CL15   D T1258      -0.183  30.000   4.387  1.00 39.13    -0.082 Cl
HETATM   17  C13   D T1258       1.078  32.029   7.644  1.00 28.27     0.026 A 
ENDBRANCH   1  10
TORSDOF 2
ENDMDL
MODEL 9
REMARK VINA RESULT:    -7.252      1.860      6.076
REMARK INTER + INTRA:          -8.343
REMARK INTER:                  -8.010
REMARK INTRA:                  -0.333
REMARK UNBOUND:                -0.243
REMARK  2 active torsions:
REMARK  status: ('A' for Active; 'I' for Inactive)
REMARK    1  A    between atoms: C5_4  and  O7_13 
REMARK    2  A    between atoms: C8_10  and  O7_13 
ROOT
HETATM    1  O7    D T1258       2.329  32.677   9.364  1.00 25.09    -0.304 OA
ENDROOT
BRANCH   1   2
HETATM    2  C5    D T1258       1.747  32.100   8.285  1.00 24.92     0.125 A 
HETATM    3  C6    D T1258       2.541  31.800   7.109  1.00 20.38     0.154 A 
HETATM    4  C1    D T1258       1.959  31.210   6.031  1.00 24.39     0.041 A 
HETATM    5  O17   D T1258       3.843  32.127   7.076  1.00 23.90    -0.188 OA
HETATM    6  C2    D T1258       0.585  30.894   6.055  1.00 24.16     0.060 A 
HETATM    7  C3    D T1258      -0.188  31.180   7.201  1.00 22.08     0.014 A 
HETATM    8 CL14   D T1258      -0.166  30.123   4.651  1.00 26.89    -0.082 Cl
HETATM    9  C4    D T1258       0.414  31.733   8.328  1.00 21.98     0.028 A 
ENDBRANCH   1   2
BRANCH   1  10
HETATM   10  C8    D T1258       2.465  31.980  10.510  1.00 26.64     0.111 A 
HETATM   11  C9    D T1258       2.314  32.650  11.787  1.00 26.93     0.081 A 
HETATM   12  C10   D T1258       2.505  31.959  12.939  1.00 30.17     0.025 A 
HETATM   13 CL16   D T1258       1.951  34.372  11.840  1.00 51.29    -0.080 Cl
HETATM   14  C11   D T1258       2.933  30.641  12.894  1.00 28.51     0.059 A 
HETATM   15  C12   D T1258       3.072  29.977  11.646  1.00 27.32     0.013 A 
HETATM   16 CL15   D T1258       3.234  29.767  14.392  1.00 39.13    -0.082 Cl
HETATM   17  C13   D T1258       2.835  30.656  10.472  1.00 28.27     0.026 A 
ENDBRANCH   1  10
TORSDOF 2
ENDMDL
