MODEL 1
REMARK VINA RESULT:    -7.412      0.000      0.000
REMARK INTER + INTRA:          -8.798
REMARK INTER:                  -8.279
REMARK INTRA:                  -0.520
REMARK UNBOUND:                -0.520
REMARK  2 active torsions:
REMARK  status: ('A' for Active; 'I' for Inactive)
REMARK    1  A    between atoms: C5_4  and  O7_13 
REMARK    2  A    between atoms: C8_10  and  O7_13 
ROOT
HETATM    1  O7    D T1257       5.709   1.449  -7.723  1.00 58.14    -0.304 OA
ENDROOT
BRANCH   1   2
HETATM    2  C5    D T1257       5.752   1.613  -9.068  1.00 54.76     0.125 A 
HETATM    3  C6    D T1257       6.692   2.564  -9.663  1.00 52.65     0.154 A 
HETATM    4  C1    D T1257       6.723   2.730 -11.014  1.00 49.52     0.041 A 
HETATM    5  O17   D T1257       7.518   3.307  -8.861  1.00 50.16    -0.188 OA
HETATM    6  C2    D T1257       5.882   1.969 -11.830  1.00 49.27     0.060 A 
HETATM    7  C3    D T1257       4.989   1.040 -11.254  1.00 51.12     0.014 A 
HETATM    8 CL14   D T1257       5.938   2.165 -13.586  1.00 51.35    -0.082 Cl
HETATM    9  C4    D T1257       4.941   0.876  -9.868  1.00 53.80     0.028 A 
ENDBRANCH   1   2
BRANCH   1  10
HETATM   10  C8    D T1257       4.672   1.961  -7.007  1.00 62.04     0.111 A 
HETATM   11  C9    D T1257       3.636   1.072  -6.486  1.00 64.62     0.081 A 
HETATM   12  C10   D T1257       2.614   1.582  -5.753  1.00 65.99     0.025 A 
HETATM   13 CL16   D T1257       3.702  -0.675  -6.830  1.00 72.13    -0.080 Cl
HETATM   14  C11   D T1257       2.554   2.952  -5.496  1.00 67.33     0.059 A 
HETATM   15  C12   D T1257       3.563   3.817  -6.000  1.00 65.29     0.013 A 
HETATM   16 CL15   D T1257       1.211   3.618  -4.536  1.00 72.08    -0.082 Cl
HETATM   17  C13   D T1257       4.614   3.299  -6.749  1.00 62.19     0.026 A 
ENDBRANCH   1  10
TORSDOF 2
ENDMDL
MODEL 2
REMARK VINA RESULT:    -7.369      1.626      6.138
REMARK INTER + INTRA:          -8.750
REMARK INTER:                  -8.213
REMARK INTRA:                  -0.537
REMARK UNBOUND:                -0.520
REMARK  2 active torsions:
REMARK  status: ('A' for Active; 'I' for Inactive)
REMARK    1  A    between atoms: C5_4  and  O7_13 
REMARK    2  A    between atoms: C8_10  and  O7_13 
ROOT
HETATM    1  O7    D T1257       5.530   1.338  -7.387  1.00 58.14    -0.304 OA
ENDROOT
BRANCH   1   2
HETATM    2  C5    D T1257       4.497   1.866  -6.686  1.00 54.76     0.125 A 
HETATM    3  C6    D T1257       3.485   0.989  -6.094  1.00 52.65     0.154 A 
HETATM    4  C1    D T1257       2.445   1.528  -5.400  1.00 49.52     0.041 A 
HETATM    5  O17   D T1257       3.569  -0.367  -6.264  1.00 50.16    -0.188 OA
HETATM    6  C2    D T1257       2.366   2.912  -5.225  1.00 49.27     0.060 A 
HETATM    7  C3    D T1257       3.352   3.754  -5.783  1.00 51.12     0.014 A 
HETATM    8 CL14   D T1257       1.029   3.612  -4.302  1.00 51.35    -0.082 Cl
HETATM    9  C4    D T1257       4.413   3.209  -6.510  1.00 53.80     0.028 A 
ENDBRANCH   1   2
BRANCH   1  10
HETATM   10  C8    D T1257       5.595   1.506  -8.735  1.00 62.04     0.111 A 
HETATM   11  C9    D T1257       6.586   2.412  -9.311  1.00 64.62     0.081 A 
HETATM   12  C10   D T1257       6.664   2.561 -10.657  1.00 65.99     0.025 A 
HETATM   13 CL16   D T1257       7.676   3.335  -8.247  1.00 72.13    -0.080 Cl
HETATM   14  C11   D T1257       5.801   1.849 -11.490  1.00 67.33     0.059 A 
HETATM   15  C12   D T1257       4.838   0.965 -10.931  1.00 65.29     0.013 A 
HETATM   16 CL15   D T1257       5.904   2.048 -13.257  1.00 72.08    -0.082 Cl
HETATM   17  C13   D T1257       4.755   0.806  -9.553  1.00 62.19     0.026 A 
ENDBRANCH   1  10
TORSDOF 2
ENDMDL
MODEL 3
REMARK VINA RESULT:    -7.092      2.118      2.341
REMARK INTER + INTRA:          -8.441
REMARK INTER:                  -7.918
REMARK INTRA:                  -0.523
REMARK UNBOUND:                -0.520
REMARK  2 active torsions:
REMARK  status: ('A' for Active; 'I' for Inactive)
REMARK    1  A    between atoms: C5_4  and  O7_13 
REMARK    2  A    between atoms: C8_10  and  O7_13 
ROOT
HETATM    1  O7    D T1257       2.776   1.778  -7.942  1.00 58.14    -0.304 OA
ENDROOT
BRANCH   1   2
HETATM    2  C5    D T1257       3.584   1.680  -9.027  1.00 54.76     0.125 A 
HETATM    3  C6    D T1257       3.460   2.641 -10.124  1.00 52.65     0.154 A 
HETATM    4  C1    D T1257       4.268   2.530 -11.214  1.00 49.52     0.041 A 
HETATM    5  O17   D T1257       2.515   3.630 -10.068  1.00 50.16    -0.188 OA
HETATM    6  C2    D T1257       5.234   1.522 -11.267  1.00 49.27     0.060 A 
HETATM    7  C3    D T1257       5.362   0.608 -10.200  1.00 51.12     0.014 A 
HETATM    8 CL14   D T1257       6.302   1.392 -12.671  1.00 51.35    -0.082 Cl
HETATM    9  C4    D T1257       4.526   0.706  -9.085  1.00 53.80     0.028 A 
ENDBRANCH   1   2
BRANCH   1  10
HETATM   10  C8    D T1257       3.267   2.259  -6.768  1.00 62.04     0.111 A 
HETATM   11  C9    D T1257       3.466   1.357  -5.636  1.00 64.62     0.081 A 
HETATM   12  C10   D T1257       3.978   1.834  -4.474  1.00 65.99     0.025 A 
HETATM   13 CL16   D T1257       3.017  -0.362  -5.775  1.00 72.13    -0.080 Cl
HETATM   14  C11   D T1257       4.315   3.183  -4.360  1.00 67.33     0.059 A 
HETATM   15  C12   D T1257       4.125   4.061  -5.463  1.00 65.29     0.013 A 
HETATM   16 CL15   D T1257       4.984   3.806  -2.832  1.00 72.08    -0.082 Cl
HETATM   17  C13   D T1257       3.604   3.576  -6.657  1.00 62.19     0.026 A 
ENDBRANCH   1  10
TORSDOF 2
ENDMDL
MODEL 4
REMARK VINA RESULT:    -7.010      2.278      6.043
REMARK INTER + INTRA:          -8.350
REMARK INTER:                  -7.846
REMARK INTRA:                  -0.504
REMARK UNBOUND:                -0.520
REMARK  2 active torsions:
REMARK  status: ('A' for Active; 'I' for Inactive)
REMARK    1  A    between atoms: C5_4  and  O7_13 
REMARK    2  A    between atoms: C8_10  and  O7_13 
ROOT
HETATM    1  O7    D T1257       4.901   3.690  -7.697  1.00 58.14    -0.304 OA
ENDROOT
BRANCH   1   2
HETATM    2  C5    D T1257       4.457   2.822  -6.755  1.00 54.76     0.125 A 
HETATM    3  C6    D T1257       3.189   3.070  -6.067  1.00 52.65     0.154 A 
HETATM    4  C1    D T1257       2.754   2.199  -5.115  1.00 49.52     0.041 A 
HETATM    5  O17   D T1257       2.457   4.191  -6.358  1.00 50.16    -0.188 OA
HETATM    6  C2    D T1257       3.502   1.055  -4.822  1.00 49.27     0.060 A 
HETATM    7  C3    D T1257       4.715   0.810  -5.500  1.00 51.12     0.014 A 
HETATM    8 CL14   D T1257       2.926  -0.090  -3.604  1.00 51.35    -0.082 Cl
HETATM    9  C4    D T1257       5.175   1.708  -6.466  1.00 53.80     0.028 A 
ENDBRANCH   1   2
BRANCH   1  10
HETATM   10  C8    D T1257       5.031   3.285  -8.989  1.00 62.04     0.111 A 
HETATM   11  C9    D T1257       6.352   2.975  -9.528  1.00 64.62     0.081 A 
HETATM   12  C10   D T1257       6.477   2.549 -10.810  1.00 65.99     0.025 A 
HETATM   13 CL16   D T1257       7.801   3.176  -8.510  1.00 72.13    -0.080 Cl
HETATM   14  C11   D T1257       5.344   2.406 -11.612  1.00 67.33     0.059 A 
HETATM   15  C12   D T1257       4.057   2.704 -11.088  1.00 65.29     0.013 A 
HETATM   16 CL15   D T1257       5.512   1.848 -13.295  1.00 72.08    -0.082 Cl
HETATM   17  C13   D T1257       3.924   3.138  -9.774  1.00 62.19     0.026 A 
ENDBRANCH   1  10
TORSDOF 2
ENDMDL
MODEL 5
REMARK VINA RESULT:    -6.946      8.750     10.903
REMARK INTER + INTRA:          -8.278
REMARK INTER:                  -7.734
REMARK INTRA:                  -0.543
REMARK UNBOUND:                -0.520
REMARK  2 active torsions:
REMARK  status: ('A' for Active; 'I' for Inactive)
REMARK    1  A    between atoms: C5_4  and  O7_13 
REMARK    2  A    between atoms: C8_10  and  O7_13 
ROOT
HETATM    1  O7    D T1257       5.617   6.959   1.819  1.00 58.14    -0.304 OA
ENDROOT
BRANCH   1   2
HETATM    2  C5    D T1257       5.181   6.806   0.545  1.00 54.76     0.125 A 
HETATM    3  C6    D T1257       5.422   7.856  -0.446  1.00 52.65     0.154 A 
HETATM    4  C1    D T1257       4.971   7.698  -1.722  1.00 49.52     0.041 A 
HETATM    5  O17   D T1257       6.072   9.005  -0.084  1.00 50.16    -0.188 OA
HETATM    6  C2    D T1257       4.312   6.523  -2.089  1.00 49.27     0.060 A 
HETATM    7  C3    D T1257       4.096   5.505  -1.135  1.00 51.12     0.014 A 
HETATM    8 CL14   D T1257       3.749   6.306  -3.751  1.00 51.35    -0.082 Cl
HETATM    9  C4    D T1257       4.541   5.667   0.179  1.00 53.80     0.028 A 
ENDBRANCH   1   2
BRANCH   1  10
HETATM   10  C8    D T1257       6.623   6.175   2.293  1.00 62.04     0.111 A 
HETATM   11  C9    D T1257       6.347   5.180   3.326  1.00 64.62     0.081 A 
HETATM   12  C10   D T1257       7.346   4.383   3.782  1.00 65.99     0.025 A 
HETATM   13 CL16   D T1257       4.705   5.027   4.002  1.00 72.13    -0.080 Cl
HETATM   14  C11   D T1257       8.634   4.513   3.263  1.00 67.33     0.059 A 
HETATM   15  C12   D T1257       8.903   5.479   2.256  1.00 65.29     0.013 A 
HETATM   16 CL15   D T1257       9.945   3.467   3.865  1.00 72.08    -0.082 Cl
HETATM   17  C13   D T1257       7.883   6.296   1.783  1.00 62.19     0.026 A 
ENDBRANCH   1  10
TORSDOF 2
ENDMDL
MODEL 6
REMARK VINA RESULT:    -6.943      1.566      2.270
REMARK INTER + INTRA:          -8.275
REMARK INTER:                  -7.777
REMARK INTRA:                  -0.498
REMARK UNBOUND:                -0.520
REMARK  2 active torsions:
REMARK  status: ('A' for Active; 'I' for Inactive)
REMARK    1  A    between atoms: C5_4  and  O7_13 
REMARK    2  A    between atoms: C8_10  and  O7_13 
ROOT
HETATM    1  O7    D T1257       4.951   3.689  -7.950  1.00 58.14    -0.304 OA
ENDROOT
BRANCH   1   2
HETATM    2  C5    D T1257       5.094   3.259  -9.227  1.00 54.76     0.125 A 
HETATM    3  C6    D T1257       6.423   2.941  -9.752  1.00 52.65     0.154 A 
HETATM    4  C1    D T1257       6.559   2.519 -11.040  1.00 49.52     0.041 A 
HETATM    5  O17   D T1257       7.529   3.096  -8.959  1.00 50.16    -0.188 OA
HETATM    6  C2    D T1257       5.428   2.359 -11.844  1.00 49.27     0.060 A 
HETATM    7  C3    D T1257       4.146   2.651 -11.330  1.00 51.12     0.014 A 
HETATM    8 CL14   D T1257       5.600   1.788 -13.509  1.00 51.35    -0.082 Cl
HETATM    9  C4    D T1257       4.001   3.099 -10.015  1.00 53.80     0.028 A 
ENDBRANCH   1   2
BRANCH   1  10
HETATM   10  C8    D T1257       4.498   2.837  -6.991  1.00 62.04     0.111 A 
HETATM   11  C9    D T1257       3.198   3.065  -6.366  1.00 64.62     0.081 A 
HETATM   12  C10   D T1257       2.738   2.201  -5.427  1.00 65.99     0.025 A 
HETATM   13 CL16   D T1257       2.227   4.489  -6.820  1.00 72.13    -0.080 Cl
HETATM   14  C11   D T1257       3.505   1.095  -5.059  1.00 67.33     0.059 A 
HETATM   15  C12   D T1257       4.769   0.870  -5.670  1.00 65.29     0.013 A 
HETATM   16 CL15   D T1257       2.900  -0.036  -3.824  1.00 72.08    -0.082 Cl
HETATM   17  C13   D T1257       5.244   1.750  -6.635  1.00 62.19     0.026 A 
ENDBRANCH   1  10
TORSDOF 2
ENDMDL
MODEL 7
REMARK VINA RESULT:    -6.820      2.454      6.107
REMARK INTER + INTRA:          -8.137
REMARK INTER:                  -7.612
REMARK INTRA:                  -0.526
REMARK UNBOUND:                -0.520
REMARK  2 active torsions:
REMARK  status: ('A' for Active; 'I' for Inactive)
REMARK    1  A    between atoms: C5_4  and  O7_13 
REMARK    2  A    between atoms: C8_10  and  O7_13 
ROOT
HETATM    1  O7    D T1257       2.574   2.132  -6.760  1.00 58.14    -0.304 OA
ENDROOT
BRANCH   1   2
HETATM    2  C5    D T1257       3.077   2.713  -5.643  1.00 54.76     0.125 A 
HETATM    3  C6    D T1257       2.742   4.101  -5.323  1.00 52.65     0.154 A 
HETATM    4  C1    D T1257       3.259   4.681  -4.204  1.00 49.52     0.041 A 
HETATM    5  O17   D T1257       1.935   4.824  -6.161  1.00 50.16    -0.188 OA
HETATM    6  C2    D T1257       4.079   3.940  -3.350  1.00 49.27     0.060 A 
HETATM    7  C3    D T1257       4.387   2.596  -3.653  1.00 51.12     0.014 A 
HETATM    8 CL14   D T1257       4.732   4.683  -1.884  1.00 51.35    -0.082 Cl
HETATM    9  C4    D T1257       3.873   2.000  -4.807  1.00 53.80     0.028 A 
ENDBRANCH   1   2
BRANCH   1  10
HETATM   10  C8    D T1257       3.384   1.887  -7.825  1.00 62.04     0.111 A 
HETATM   11  C9    D T1257       3.818   0.523  -8.115  1.00 64.62     0.081 A 
HETATM   12  C10   D T1257       4.608   0.278  -9.191  1.00 65.99     0.025 A 
HETATM   13 CL16   D T1257       3.329  -0.815  -7.045  1.00 72.13    -0.080 Cl
HETATM   14  C11   D T1257       5.003   1.328 -10.020  1.00 67.33     0.059 A 
HETATM   15  C12   D T1257       4.579   2.656  -9.741  1.00 65.29     0.013 A 
HETATM   16 CL15   D T1257       6.041   1.005 -11.430  1.00 72.08    -0.082 Cl
HETATM   17  C13   D T1257       3.768   2.912  -8.642  1.00 62.19     0.026 A 
ENDBRANCH   1  10
TORSDOF 2
ENDMDL
MODEL 8
REMARK VINA RESULT:    -6.713      2.519      3.458
REMARK INTER + INTRA:          -8.018
REMARK INTER:                  -7.499
REMARK INTRA:                  -0.519
REMARK UNBOUND:                -0.520
REMARK  2 active torsions:
REMARK  status: ('A' for Active; 'I' for Inactive)
REMARK    1  A    between atoms: C5_4  and  O7_13 
REMARK    2  A    between atoms: C8_10  and  O7_13 
ROOT
HETATM    1  O7    D T1257       2.657   2.199  -6.862  1.00 58.14    -0.304 OA
ENDROOT
BRANCH   1   2
HETATM    2  C5    D T1257       3.447   1.971  -7.940  1.00 54.76     0.125 A 
HETATM    3  C6    D T1257       3.864   0.608  -8.271  1.00 52.65     0.154 A 
HETATM    4  C1    D T1257       4.665   0.388  -9.350  1.00 49.52     0.041 A 
HETATM    5  O17   D T1257       3.473  -0.440  -7.481  1.00 50.16    -0.188 OA
HETATM    6  C2    D T1257       5.058   1.459 -10.156  1.00 49.27     0.060 A 
HETATM    7  C3    D T1257       4.641   2.771  -9.844  1.00 51.12     0.014 A 
HETATM    8 CL14   D T1257       6.078   1.172 -11.572  1.00 51.35    -0.082 Cl
HETATM    9  C4    D T1257       3.832   3.005  -8.730  1.00 53.80     0.028 A 
ENDBRANCH   1   2
BRANCH   1  10
HETATM   10  C8    D T1257       3.187   2.741  -5.732  1.00 62.04     0.111 A 
HETATM   11  C9    D T1257       2.786   4.081  -5.308  1.00 64.62     0.081 A 
HETATM   12  C10   D T1257       3.298   4.610  -4.169  1.00 65.99     0.025 A 
HETATM   13 CL16   D T1257       1.643   5.025  -6.296  1.00 72.13    -0.080 Cl
HETATM   14  C11   D T1257       4.204   3.877  -3.403  1.00 67.33     0.059 A 
HETATM   15  C12   D T1257       4.592   2.572  -3.813  1.00 65.29     0.013 A 
HETATM   16 CL15   D T1257       4.876   4.576  -1.909  1.00 72.08    -0.082 Cl
HETATM   17  C13   D T1257       4.069   2.023  -4.978  1.00 62.19     0.026 A 
ENDBRANCH   1  10
TORSDOF 2
ENDMDL
MODEL 9
REMARK VINA RESULT:    -6.706      1.315      1.558
REMARK INTER + INTRA:          -8.010
REMARK INTER:                  -7.487
REMARK INTRA:                  -0.523
REMARK UNBOUND:                -0.520
REMARK  2 active torsions:
REMARK  status: ('A' for Active; 'I' for Inactive)
REMARK    1  A    between atoms: C5_4  and  O7_13 
REMARK    2  A    between atoms: C8_10  and  O7_13 
ROOT
HETATM    1  O7    D T1257       4.913   2.003  -6.540  1.00 58.14    -0.304 OA
ENDROOT
BRANCH   1   2
HETATM    2  C5    D T1257       4.893   1.956  -7.895  1.00 54.76     0.125 A 
HETATM    3  C6    D T1257       5.799   2.802  -8.673  1.00 52.65     0.154 A 
HETATM    4  C1    D T1257       5.766   2.756 -10.033  1.00 49.52     0.041 A 
HETATM    5  O17   D T1257       6.656   3.659  -8.034  1.00 50.16    -0.188 OA
HETATM    6  C2    D T1257       4.894   1.879 -10.681  1.00 49.27     0.060 A 
HETATM    7  C3    D T1257       4.033   1.051  -9.928  1.00 51.12     0.014 A 
HETATM    8 CL14   D T1257       4.868   1.800 -12.448  1.00 51.35    -0.082 Cl
HETATM    9  C4    D T1257       4.050   1.105  -8.532  1.00 53.80     0.028 A 
ENDBRANCH   1   2
BRANCH   1  10
HETATM   10  C8    D T1257       3.920   2.643  -5.866  1.00 62.04     0.111 A 
HETATM   11  C9    D T1257       2.928   1.872  -5.120  1.00 64.62     0.081 A 
HETATM   12  C10   D T1257       1.952   2.514  -4.430  1.00 65.99     0.025 A 
HETATM   13 CL16   D T1257       2.988   0.091  -5.134  1.00 72.13    -0.080 Cl
HETATM   14  C11   D T1257       1.897   3.908  -4.431  1.00 67.33     0.059 A 
HETATM   15  C12   D T1257       2.863   4.659  -5.154  1.00 65.29     0.013 A 
HETATM   16 CL15   D T1257       0.613   4.747  -3.526  1.00 72.08    -0.082 Cl
HETATM   17  C13   D T1257       3.867   4.007  -5.861  1.00 62.19     0.026 A 
ENDBRANCH   1  10
TORSDOF 2
ENDMDL
