MODEL 1
REMARK VINA RESULT:    -9.258      0.000      0.000
REMARK INTER + INTRA:         -12.593
REMARK INTER:                 -11.964
REMARK INTRA:                  -0.628
REMARK UNBOUND:                -0.628
REMARK  5 active torsions:
REMARK  status: ('A' for Active; 'I' for Inactive)
REMARK    1  A    between atoms: C17_7  and  C21_10 
REMARK    2  A    between atoms: C21_10  and  O27_12 
REMARK    3  A    between atoms: O27_12  and  C15_13 
REMARK    4  A    between atoms: C14_19  and  C16_20 
REMARK    5  A    between atoms: N26_23  and  C20_25 
ROOT
HETATM    1  C15   D T9000      -3.573   1.128  10.516  1.00 25.51     0.125 A 
HETATM    2  C4    D T9000      -3.558  -0.304  10.628  1.00 26.27     0.029 A 
HETATM    3  C19   D T9000      -4.601   1.678   9.680  1.00 24.04     0.173 A 
HETATM    4  N22   D T9000      -4.678   3.077   9.526  1.00 22.39    -0.078 NA
HETATM    5  N23   D T9000      -5.526   0.937   9.015  1.00 23.93    -0.228 NA
HETATM    6  C5    D T9000      -5.486  -0.425   9.142  1.00 26.12     0.100 A 
HETATM    7  C14   D T9000      -4.517  -1.112   9.939  1.00 28.08     0.024 A 
ENDROOT
BRANCH   1   8
HETATM    8  O27   D T9000      -2.688   2.002  11.169  1.00 26.96    -0.326 OA
BRANCH   8   9
HETATM    9  C21   D T9000      -1.258   2.186  10.866  1.00 29.02     0.145 C 
HETATM   10  C1    D T9000      -1.149   2.105   9.336  1.00 31.25     0.038 C 
BRANCH   9  11
HETATM   11  C17   D T9000      -0.298   1.138  11.550  1.00 31.05     0.029 A 
HETATM   12  C13   D T9000       0.185   1.367  12.909  1.00 30.66     0.057 A 
HETATM   13 CL     D T9000      -0.237   2.759  13.862  1.00 31.95    -0.083 Cl
HETATM   14  C3    D T9000       1.055   0.425  13.530  1.00 30.41     0.013 A 
HETATM   15  C2    D T9000       1.469  -0.748  12.851  1.00 31.69     0.031 A 
HETATM   16  C12   D T9000       1.027  -1.010  11.529  1.00 33.21     0.150 A 
HETATM   17  F     D T9000       1.448  -2.129  10.927  1.00 33.89    -0.203 F 
HETATM   18  C18   D T9000       0.143  -0.086  10.860  1.00 33.60     0.084 A 
HETATM   19 CL2    D T9000      -0.352  -0.498   9.225  1.00 45.49    -0.080 Cl
ENDBRANCH   9  11
ENDBRANCH   8   9
ENDBRANCH   1   8
BRANCH   7  20
HETATM   20  C16   D T9000      -4.477  -2.622  10.072  1.00 30.74     0.041 A 
HETATM   21  C6    D T9000      -5.453  -3.575   9.540  1.00 33.28     0.122 A 
HETATM   22  N24   D T9000      -5.093  -4.762   9.849  1.00 35.40    -0.168 NA
HETATM   23  N26   D T9000      -4.000  -4.731  10.521  1.00 35.93    -0.252 N 
HETATM   24  C7    D T9000      -3.525  -3.411  10.716  1.00 33.34     0.097 A 
BRANCH  23  25
HETATM   25  C20   D T9000      -3.361  -5.977  11.005  1.00 41.25     0.110 C 
HETATM   26  C8    D T9000      -2.239  -5.656  12.017  1.00 43.15     0.063 C 
HETATM   27  C10   D T9000      -1.596  -6.973  12.509  1.00 45.06     0.292 C 
HETATM   28  N25   D T9000      -1.108  -7.823  11.382  1.00 46.53     0.339 N 
HETATM   29  C11   D T9000      -2.165  -8.102  10.367  1.00 45.16     0.292 C 
HETATM   30  C9    D T9000      -2.818  -6.811   9.823  1.00 43.46     0.063 C 
ENDBRANCH  23  25
ENDBRANCH   7  20
TORSDOF 5
ENDMDL
MODEL 2
REMARK VINA RESULT:    -9.151      2.355      4.034
REMARK INTER + INTRA:         -12.454
REMARK INTER:                 -11.518
REMARK INTRA:                  -0.936
REMARK UNBOUND:                -0.628
REMARK  5 active torsions:
REMARK  status: ('A' for Active; 'I' for Inactive)
REMARK    1  A    between atoms: C17_7  and  C21_10 
REMARK    2  A    between atoms: C21_10  and  O27_12 
REMARK    3  A    between atoms: O27_12  and  C15_13 
REMARK    4  A    between atoms: C14_19  and  C16_20 
REMARK    5  A    between atoms: N26_23  and  C20_25 
ROOT
HETATM    1  C15   D T9000      -4.617  -2.297  10.219  1.00 25.51     0.125 A 
HETATM    2  C4    D T9000      -3.720  -3.271  10.777  1.00 26.27     0.029 A 
HETATM    3  C19   D T9000      -5.791  -2.822   9.583  1.00 24.04     0.173 A 
HETATM    4  N22   D T9000      -6.717  -1.924   9.017  1.00 22.39    -0.078 NA
HETATM    5  N23   D T9000      -6.084  -4.146   9.487  1.00 23.93    -0.228 NA
HETATM    6  C5    D T9000      -5.209  -5.049  10.028  1.00 26.12     0.100 A 
HETATM    7  C14   D T9000      -3.999  -4.672  10.690  1.00 28.08     0.024 A 
ENDROOT
BRANCH   1   8
HETATM    8  O27   D T9000      -4.438  -0.905  10.275  1.00 26.96    -0.326 OA
BRANCH   8   9
HETATM    9  C21   D T9000      -3.410  -0.186  11.046  1.00 29.02     0.145 C 
HETATM   10  C1    D T9000      -4.005   1.201  11.331  1.00 31.25     0.038 C 
BRANCH   9  11
HETATM   11  C17   D T9000      -2.014  -0.055  10.324  1.00 31.05     0.029 A 
HETATM   12  C13   D T9000      -1.886   0.772   9.126  1.00 30.66     0.057 A 
HETATM   13 CL     D T9000      -3.206   1.653   8.415  1.00 31.95    -0.083 Cl
HETATM   14  C3    D T9000      -0.628   0.891   8.467  1.00 30.41     0.013 A 
HETATM   15  C2    D T9000       0.520   0.218   8.953  1.00 31.69     0.031 A 
HETATM   16  C12   D T9000       0.442  -0.597  10.111  1.00 33.21     0.150 A 
HETATM   17  F     D T9000       1.552  -1.217  10.531  1.00 33.89    -0.203 F 
HETATM   18  C18   D T9000      -0.810  -0.747  10.813  1.00 33.60     0.084 A 
HETATM   19 CL2    D T9000      -0.808  -1.775  12.239  1.00 45.49    -0.080 Cl
ENDBRANCH   9  11
ENDBRANCH   8   9
ENDBRANCH   1   8
BRANCH   7  20
HETATM   20  C16   D T9000      -3.033  -5.680  11.284  1.00 30.74     0.041 A 
HETATM   21  C6    D T9000      -1.593  -5.503  11.479  1.00 33.28     0.122 A 
HETATM   22  N24   D T9000      -1.107  -6.563  12.004  1.00 35.40    -0.168 NA
HETATM   23  N26   D T9000      -2.036  -7.429  12.188  1.00 35.93    -0.252 N 
HETATM   24  C7    D T9000      -3.302  -6.961  11.762  1.00 33.34     0.097 A 
BRANCH  23  25
HETATM   25  C20   D T9000      -1.742  -8.753  12.787  1.00 41.25     0.110 C 
HETATM   26  C8    D T9000      -0.964  -9.640  11.791  1.00 43.15     0.063 C 
HETATM   27  C10   D T9000      -0.667 -11.010  12.445  1.00 45.06     0.292 C 
HETATM   28  N25   D T9000      -1.903 -11.680  12.947  1.00 46.53     0.339 N 
HETATM   29  C11   D T9000      -2.695 -10.819  13.872  1.00 45.16     0.292 C 
HETATM   30  C9    D T9000      -3.042  -9.448  13.249  1.00 43.46     0.063 C 
ENDBRANCH  23  25
ENDBRANCH   7  20
TORSDOF 5
ENDMDL
MODEL 3
REMARK VINA RESULT:    -9.070      1.448      2.305
REMARK INTER + INTRA:         -12.349
REMARK INTER:                 -11.303
REMARK INTRA:                  -1.046
REMARK UNBOUND:                -0.628
REMARK  5 active torsions:
REMARK  status: ('A' for Active; 'I' for Inactive)
REMARK    1  A    between atoms: C17_7  and  C21_10 
REMARK    2  A    between atoms: C21_10  and  O27_12 
REMARK    3  A    between atoms: O27_12  and  C15_13 
REMARK    4  A    between atoms: C14_19  and  C16_20 
REMARK    5  A    between atoms: N26_23  and  C20_25 
ROOT
HETATM    1  C15   D T9000      -3.042   0.463  10.354  1.00 25.51     0.125 A 
HETATM    2  C4    D T9000      -2.917  -0.954  10.558  1.00 26.27     0.029 A 
HETATM    3  C19   D T9000      -4.383   0.971  10.304  1.00 24.04     0.173 A 
HETATM    4  N22   D T9000      -4.582   2.352  10.110  1.00 22.39    -0.078 NA
HETATM    5  N23   D T9000      -5.498   0.204  10.434  1.00 23.93    -0.228 NA
HETATM    6  C5    D T9000      -5.346  -1.143  10.627  1.00 26.12     0.100 A 
HETATM    7  C14   D T9000      -4.072  -1.788  10.696  1.00 28.08     0.024 A 
ENDROOT
BRANCH   1   8
HETATM    8  O27   D T9000      -1.970   1.361  10.229  1.00 26.96    -0.326 OA
BRANCH   8   9
HETATM    9  C21   D T9000      -0.788   1.440  11.106  1.00 29.02     0.145 C 
HETATM   10  C1    D T9000      -0.187   2.832  10.861  1.00 31.25     0.038 C 
BRANCH   9  11
HETATM   11  C17   D T9000       0.291   0.317  10.861  1.00 31.05     0.029 A 
HETATM   12  C13   D T9000       0.585  -0.130   9.502  1.00 30.66     0.057 A 
HETATM   13 CL     D T9000      -0.194   0.509   8.085  1.00 31.95    -0.083 Cl
HETATM   14  C3    D T9000       1.557  -1.148   9.276  1.00 30.41     0.013 A 
HETATM   15  C2    D T9000       2.257  -1.745  10.353  1.00 31.69     0.031 A 
HETATM   16  C12   D T9000       2.001  -1.344  11.689  1.00 33.21     0.150 A 
HETATM   17  F     D T9000       2.684  -1.940  12.675  1.00 33.89    -0.203 F 
HETATM   18  C18   D T9000       1.027  -0.316  11.968  1.00 33.60     0.084 A 
HETATM   19 CL2    D T9000       0.782   0.115  13.654  1.00 45.49    -0.080 Cl
ENDBRANCH   9  11
ENDBRANCH   8   9
ENDBRANCH   1   8
BRANCH   7  20
HETATM   20  C16   D T9000      -3.912  -3.282  10.907  1.00 30.74     0.041 A 
HETATM   21  C6    D T9000      -4.821  -4.333  10.448  1.00 33.28     0.122 A 
HETATM   22  N24   D T9000      -4.364  -5.471  10.809  1.00 35.40    -0.168 NA
HETATM   23  N26   D T9000      -3.264  -5.320  11.453  1.00 35.93    -0.252 N 
HETATM   24  C7    D T9000      -2.889  -3.960  11.568  1.00 33.34     0.097 A 
BRANCH  23  25
HETATM   25  C20   D T9000      -2.520  -6.486  11.985  1.00 41.25     0.110 C 
HETATM   26  C8    D T9000      -1.309  -6.816  11.086  1.00 43.15     0.063 C 
HETATM   27  C10   D T9000      -0.550  -8.031  11.669  1.00 45.06     0.292 C 
HETATM   28  N25   D T9000      -1.439  -9.213  11.869  1.00 46.53     0.339 N 
HETATM   29  C11   D T9000      -2.642  -8.903  12.693  1.00 45.16     0.292 C 
HETATM   30  C9    D T9000      -3.450  -7.711  12.132  1.00 43.46     0.063 C 
ENDBRANCH  23  25
ENDBRANCH   7  20
TORSDOF 5
ENDMDL
MODEL 4
REMARK VINA RESULT:    -8.980      4.385      6.854
REMARK INTER + INTRA:         -12.233
REMARK INTER:                 -11.684
REMARK INTRA:                  -0.549
REMARK UNBOUND:                -0.628
REMARK  5 active torsions:
REMARK  status: ('A' for Active; 'I' for Inactive)
REMARK    1  A    between atoms: C17_7  and  C21_10 
REMARK    2  A    between atoms: C21_10  and  O27_12 
REMARK    3  A    between atoms: O27_12  and  C15_13 
REMARK    4  A    between atoms: C14_19  and  C16_20 
REMARK    5  A    between atoms: N26_23  and  C20_25 
ROOT
HETATM    1  C15   D T9000      -1.123  -0.449  11.082  1.00 25.51     0.125 A 
HETATM    2  C4    D T9000      -0.260  -1.524  10.675  1.00 26.27     0.029 A 
HETATM    3  C19   D T9000      -0.532   0.858  11.086  1.00 24.04     0.173 A 
HETATM    4  N22   D T9000      -1.320   1.960  11.472  1.00 22.39    -0.078 NA
HETATM    5  N23   D T9000       0.756   1.118  10.736  1.00 23.93    -0.228 NA
HETATM    6  C5    D T9000       1.552   0.074  10.353  1.00 26.12     0.100 A 
HETATM    7  C14   D T9000       1.100  -1.282  10.303  1.00 28.08     0.024 A 
ENDROOT
BRANCH   1   8
HETATM    8  O27   D T9000      -2.473  -0.586  11.443  1.00 26.96    -0.326 OA
BRANCH   8   9
HETATM    9  C21   D T9000      -3.639  -0.338  10.577  1.00 29.02     0.145 C 
HETATM   10  C1    D T9000      -4.575   0.564  11.396  1.00 31.25     0.038 C 
BRANCH   9  11
HETATM   11  C17   D T9000      -4.395  -1.637  10.099  1.00 31.05     0.029 A 
HETATM   12  C13   D T9000      -5.350  -1.562   8.995  1.00 30.66     0.057 A 
HETATM   13 CL     D T9000      -5.725  -0.096   8.140  1.00 31.95    -0.083 Cl
HETATM   14  C3    D T9000      -6.038  -2.732   8.562  1.00 30.41     0.013 A 
HETATM   15  C2    D T9000      -5.815  -3.986   9.184  1.00 31.69     0.031 A 
HETATM   16  C12   D T9000      -4.899  -4.104  10.260  1.00 33.21     0.150 A 
HETATM   17  F     D T9000      -4.725  -5.308  10.819  1.00 33.89    -0.203 F 
HETATM   18  C18   D T9000      -4.177  -2.948  10.733  1.00 33.60     0.084 A 
HETATM   19 CL2    D T9000      -3.063  -3.194  12.069  1.00 45.49    -0.080 Cl
ENDBRANCH   9  11
ENDBRANCH   8   9
ENDBRANCH   1   8
BRANCH   7  20
HETATM   20  C16   D T9000       1.991  -2.435   9.880  1.00 30.74     0.041 A 
HETATM   21  C6    D T9000       1.609  -3.576   9.046  1.00 33.28     0.122 A 
HETATM   22  N24   D T9000       2.619  -4.347   8.901  1.00 35.40    -0.168 NA
HETATM   23  N26   D T9000       3.631  -3.871   9.531  1.00 35.93    -0.252 N 
HETATM   24  C7    D T9000       3.333  -2.652  10.187  1.00 33.34     0.097 A 
BRANCH  23  25
HETATM   25  C20   D T9000       4.936  -4.572   9.526  1.00 41.25     0.110 C 
HETATM   26  C8    D T9000       4.976  -5.655  10.626  1.00 43.15     0.063 C 
HETATM   27  C10   D T9000       6.346  -6.373  10.593  1.00 45.06     0.292 C 
HETATM   28  N25   D T9000       7.490  -5.420  10.703  1.00 46.53     0.339 N 
HETATM   29  C11   D T9000       7.442  -4.336   9.680  1.00 45.16     0.292 C 
HETATM   30  C9    D T9000       6.100  -3.569   9.694  1.00 43.46     0.063 C 
ENDBRANCH  23  25
ENDBRANCH   7  20
TORSDOF 5
ENDMDL
MODEL 5
REMARK VINA RESULT:    -8.848      1.619      1.799
REMARK INTER + INTRA:         -12.063
REMARK INTER:                 -11.470
REMARK INTRA:                  -0.593
REMARK UNBOUND:                -0.628
REMARK  5 active torsions:
REMARK  status: ('A' for Active; 'I' for Inactive)
REMARK    1  A    between atoms: C17_7  and  C21_10 
REMARK    2  A    between atoms: C21_10  and  O27_12 
REMARK    3  A    between atoms: O27_12  and  C15_13 
REMARK    4  A    between atoms: C14_19  and  C16_20 
REMARK    5  A    between atoms: N26_23  and  C20_25 
ROOT
HETATM    1  C15   D T9000      -3.369   0.463  10.521  1.00 25.51     0.125 A 
HETATM    2  C4    D T9000      -3.299  -0.970  10.599  1.00 26.27     0.029 A 
HETATM    3  C19   D T9000      -4.630   1.006  10.104  1.00 24.04     0.173 A 
HETATM    4  N22   D T9000      -4.771   2.404  10.008  1.00 22.39    -0.078 NA
HETATM    5  N23   D T9000      -5.720   0.257   9.791  1.00 23.93    -0.228 NA
HETATM    6  C5    D T9000      -5.623  -1.106   9.875  1.00 26.12     0.100 A 
HETATM    7  C14   D T9000      -4.429  -1.785  10.274  1.00 28.08     0.024 A 
ENDROOT
BRANCH   1   8
HETATM    8  O27   D T9000      -2.322   1.344  10.839  1.00 26.96    -0.326 OA
BRANCH   8   9
HETATM    9  C21   D T9000      -1.349   1.923   9.896  1.00 29.02     0.145 C 
HETATM   10  C1    D T9000      -1.622   1.234   8.550  1.00 31.25     0.038 C 
BRANCH   9  11
HETATM   11  C17   D T9000       0.161   1.749  10.315  1.00 31.05     0.029 A 
HETATM   12  C13   D T9000       0.992   2.925  10.558  1.00 30.66     0.057 A 
HETATM   13 CL     D T9000       0.418   4.560  10.416  1.00 31.95    -0.083 Cl
HETATM   14  C3    D T9000       2.359   2.773  10.934  1.00 30.41     0.013 A 
HETATM   15  C2    D T9000       2.940   1.489  11.080  1.00 31.69     0.031 A 
HETATM   16  C12   D T9000       2.171   0.319  10.852  1.00 33.21     0.150 A 
HETATM   17  F     D T9000       2.763  -0.872  10.998  1.00 33.89    -0.203 F 
HETATM   18  C18   D T9000       0.782   0.423  10.471  1.00 33.60     0.084 A 
HETATM   19 CL2    D T9000      -0.089  -1.081  10.213  1.00 45.49    -0.080 Cl
ENDBRANCH   9  11
ENDBRANCH   8   9
ENDBRANCH   1   8
BRANCH   7  20
HETATM   20  C16   D T9000      -4.328  -3.296  10.362  1.00 30.74     0.041 A 
HETATM   21  C6    D T9000      -5.267  -4.271   9.803  1.00 33.28     0.122 A 
HETATM   22  N24   D T9000      -4.859  -5.452  10.075  1.00 35.40    -0.168 NA
HETATM   23  N26   D T9000      -3.765  -5.396  10.745  1.00 35.93    -0.252 N 
HETATM   24  C7    D T9000      -3.343  -4.065  10.979  1.00 33.34     0.097 A 
BRANCH  23  25
HETATM   25  C20   D T9000      -3.075  -6.630  11.190  1.00 41.25     0.110 C 
HETATM   26  C8    D T9000      -3.936  -7.394  12.220  1.00 43.15     0.063 C 
HETATM   27  C10   D T9000      -3.194  -8.677  12.661  1.00 45.06     0.292 C 
HETATM   28  N25   D T9000      -1.823  -8.392  13.177  1.00 46.53     0.339 N 
HETATM   29  C11   D T9000      -0.992  -7.611  12.216  1.00 45.16     0.292 C 
HETATM   30  C9    D T9000      -1.681  -6.302  11.768  1.00 43.46     0.063 C 
ENDBRANCH  23  25
ENDBRANCH   7  20
TORSDOF 5
ENDMDL
MODEL 6
REMARK VINA RESULT:    -8.830      2.040      2.559
REMARK INTER + INTRA:         -12.039
REMARK INTER:                 -11.504
REMARK INTRA:                  -0.536
REMARK UNBOUND:                -0.628
REMARK  5 active torsions:
REMARK  status: ('A' for Active; 'I' for Inactive)
REMARK    1  A    between atoms: C17_7  and  C21_10 
REMARK    2  A    between atoms: C21_10  and  O27_12 
REMARK    3  A    between atoms: O27_12  and  C15_13 
REMARK    4  A    between atoms: C14_19  and  C16_20 
REMARK    5  A    between atoms: N26_23  and  C20_25 
ROOT
HETATM    1  C15   D T9000      -3.151   0.378  10.616  1.00 25.51     0.125 A 
HETATM    2  C4    D T9000      -3.140  -1.052  10.761  1.00 26.27     0.029 A 
HETATM    3  C19   D T9000      -4.391   0.951  10.177  1.00 24.04     0.173 A 
HETATM    4  N22   D T9000      -4.476   2.348  10.016  1.00 22.39    -0.078 NA
HETATM    5  N23   D T9000      -5.512   0.233   9.904  1.00 23.93    -0.228 NA
HETATM    6  C5    D T9000      -5.470  -1.127  10.051  1.00 26.12     0.100 A 
HETATM    7  C14   D T9000      -4.304  -1.835  10.478  1.00 28.08     0.024 A 
ENDROOT
BRANCH   1   8
HETATM    8  O27   D T9000      -2.068   1.229  10.889  1.00 26.96    -0.326 OA
BRANCH   8   9
HETATM    9  C21   D T9000      -1.096   1.750   9.912  1.00 29.02     0.145 C 
HETATM   10  C1    D T9000      -1.288   0.897   8.648  1.00 31.25     0.038 C 
BRANCH   9  11
HETATM   11  C17   D T9000       0.406   1.709  10.388  1.00 31.05     0.029 A 
HETATM   12  C13   D T9000       1.072   0.426  10.598  1.00 30.66     0.057 A 
HETATM   13 CL     D T9000       0.302  -1.114  10.350  1.00 31.95    -0.083 Cl
HETATM   14  C3    D T9000       2.429   0.384  11.031  1.00 30.41     0.013 A 
HETATM   15  C2    D T9000       3.160   1.574  11.268  1.00 31.69     0.031 A 
HETATM   16  C12   D T9000       2.553   2.842  11.079  1.00 33.21     0.150 A 
HETATM   17  F     D T9000       3.282   3.939  11.319  1.00 33.89    -0.203 F 
HETATM   18  C18   D T9000       1.182   2.935  10.639  1.00 33.60     0.084 A 
HETATM   19 CL2    D T9000       0.518   4.550  10.432  1.00 45.49    -0.080 Cl
ENDBRANCH   9  11
ENDBRANCH   8   9
ENDBRANCH   1   8
BRANCH   7  20
HETATM   20  C16   D T9000      -4.264  -3.343  10.636  1.00 30.74     0.041 A 
HETATM   21  C6    D T9000      -5.357  -4.281  10.375  1.00 33.28     0.122 A 
HETATM   22  N24   D T9000      -4.958  -5.470  10.619  1.00 35.40    -0.168 NA
HETATM   23  N26   D T9000      -3.736  -5.454  11.012  1.00 35.93    -0.252 N 
HETATM   24  C7    D T9000      -3.202  -4.143  11.055  1.00 33.34     0.097 A 
BRANCH  23  25
HETATM   25  C20   D T9000      -3.026  -6.706  11.362  1.00 41.25     0.110 C 
HETATM   26  C8    D T9000      -3.890  -7.578  12.299  1.00 43.15     0.063 C 
HETATM   27  C10   D T9000      -3.127  -8.879  12.641  1.00 45.06     0.292 C 
HETATM   28  N25   D T9000      -1.775  -8.610  13.214  1.00 46.53     0.339 N 
HETATM   29  C11   D T9000      -0.942  -7.728  12.347  1.00 45.16     0.292 C 
HETATM   30  C9    D T9000      -1.653  -6.400  12.001  1.00 43.46     0.063 C 
ENDBRANCH  23  25
ENDBRANCH   7  20
TORSDOF 5
ENDMDL
MODEL 7
REMARK VINA RESULT:    -8.809      4.818      9.170
REMARK INTER + INTRA:         -12.012
REMARK INTER:                 -11.344
REMARK INTRA:                  -0.667
REMARK UNBOUND:                -0.628
REMARK  5 active torsions:
REMARK  status: ('A' for Active; 'I' for Inactive)
REMARK    1  A    between atoms: C17_7  and  C21_10 
REMARK    2  A    between atoms: C21_10  and  O27_12 
REMARK    3  A    between atoms: O27_12  and  C15_13 
REMARK    4  A    between atoms: C14_19  and  C16_20 
REMARK    5  A    between atoms: N26_23  and  C20_25 
ROOT
HETATM    1  C15   D T9000      -0.066  -2.121  10.262  1.00 25.51     0.125 A 
HETATM    2  C4    D T9000       0.303  -0.733  10.215  1.00 26.27     0.029 A 
HETATM    3  C19   D T9000       1.017  -3.058  10.190  1.00 24.04     0.173 A 
HETATM    4  N22   D T9000       0.730  -4.437  10.234  1.00 22.39    -0.078 NA
HETATM    5  N23   D T9000       2.327  -2.709  10.083  1.00 23.93    -0.228 NA
HETATM    6  C5    D T9000       2.647  -1.379  10.040  1.00 26.12     0.100 A 
HETATM    7  C14   D T9000       1.672  -0.334  10.100  1.00 28.08     0.024 A 
ENDROOT
BRANCH   1   8
HETATM    8  O27   D T9000      -1.378  -2.607  10.395  1.00 26.96    -0.326 OA
BRANCH   8   9
HETATM    9  C21   D T9000      -2.415  -2.087  11.303  1.00 29.02     0.145 C 
HETATM   10  C1    D T9000      -2.713  -3.231  12.284  1.00 31.25     0.038 C 
BRANCH   9  11
HETATM   11  C17   D T9000      -3.737  -1.608  10.590  1.00 31.05     0.029 A 
HETATM   12  C13   D T9000      -4.660  -2.590  10.025  1.00 30.66     0.057 A 
HETATM   13 CL     D T9000      -4.399  -4.308  10.086  1.00 31.95    -0.083 Cl
HETATM   14  C3    D T9000      -5.855  -2.161   9.377  1.00 30.41     0.013 A 
HETATM   15  C2    D T9000      -6.175  -0.786   9.264  1.00 31.69     0.031 A 
HETATM   16  C12   D T9000      -5.306   0.202   9.795  1.00 33.21     0.150 A 
HETATM   17  F     D T9000      -5.648   1.489   9.662  1.00 33.89    -0.203 F 
HETATM   18  C18   D T9000      -4.086  -0.183  10.463  1.00 33.60     0.084 A 
HETATM   19 CL2    D T9000      -3.077   1.112  11.090  1.00 45.49    -0.080 Cl
ENDBRANCH   9  11
ENDBRANCH   8   9
ENDBRANCH   1   8
BRANCH   7  20
HETATM   20  C16   D T9000       2.034   1.138  10.049  1.00 30.74     0.041 A 
HETATM   21  C6    D T9000       1.242   2.254  10.570  1.00 33.28     0.122 A 
HETATM   22  N24   D T9000       1.862   3.350  10.346  1.00 35.40    -0.168 NA
HETATM   23  N26   D T9000       2.969   3.114   9.741  1.00 35.93    -0.252 N 
HETATM   24  C7    D T9000       3.172   1.733   9.506  1.00 33.34     0.097 A 
BRANCH  23  25
HETATM   25  C20   D T9000       3.885   4.216   9.362  1.00 41.25     0.110 C 
HETATM   26  C8    D T9000       4.380   4.037   7.910  1.00 43.15     0.063 C 
HETATM   27  C10   D T9000       5.328   5.202   7.541  1.00 45.06     0.292 C 
HETATM   28  N25   D T9000       6.458   5.342   8.506  1.00 46.53     0.339 N 
HETATM   29  C11   D T9000       6.002   5.466   9.921  1.00 45.16     0.292 C 
HETATM   30  C9    D T9000       5.074   4.305  10.345  1.00 43.46     0.063 C 
ENDBRANCH  23  25
ENDBRANCH   7  20
TORSDOF 5
ENDMDL
MODEL 8
REMARK VINA RESULT:    -8.646      3.830      6.360
REMARK INTER + INTRA:         -11.802
REMARK INTER:                 -10.937
REMARK INTRA:                  -0.865
REMARK UNBOUND:                -0.628
REMARK  5 active torsions:
REMARK  status: ('A' for Active; 'I' for Inactive)
REMARK    1  A    between atoms: C17_7  and  C21_10 
REMARK    2  A    between atoms: C21_10  and  O27_12 
REMARK    3  A    between atoms: O27_12  and  C15_13 
REMARK    4  A    between atoms: C14_19  and  C16_20 
REMARK    5  A    between atoms: N26_23  and  C20_25 
ROOT
HETATM    1  C15   D T9000      -3.981  -2.810  10.968  1.00 25.51     0.125 A 
HETATM    2  C4    D T9000      -2.562  -2.635  11.108  1.00 26.27     0.029 A 
HETATM    3  C19   D T9000      -4.422  -4.150  10.702  1.00 24.04     0.173 A 
HETATM    4  N22   D T9000      -5.801  -4.397  10.556  1.00 22.39    -0.078 NA
HETATM    5  N23   D T9000      -3.591  -5.219  10.582  1.00 23.93    -0.228 NA
HETATM    6  C5    D T9000      -2.244  -5.020  10.721  1.00 26.12     0.100 A 
HETATM    7  C14   D T9000      -1.663  -3.741  10.985  1.00 28.08     0.024 A 
ENDROOT
BRANCH   1   8
HETATM    8  O27   D T9000      -4.940  -1.791  11.093  1.00 26.96    -0.326 OA
BRANCH   8   9
HETATM    9  C21   D T9000      -4.678  -0.380  11.425  1.00 29.02     0.145 C 
HETATM   10  C1    D T9000      -5.765   0.012  12.438  1.00 31.25     0.038 C 
BRANCH   9  11
HETATM   11  C17   D T9000      -4.688   0.601  10.191  1.00 31.05     0.029 A 
HETATM   12  C13   D T9000      -5.681   0.433   9.132  1.00 30.66     0.057 A 
HETATM   13 CL     D T9000      -6.895  -0.812   9.134  1.00 31.95    -0.083 Cl
HETATM   14  C3    D T9000      -5.692   1.316   8.013  1.00 30.41     0.013 A 
HETATM   15  C2    D T9000      -4.751   2.368   7.900  1.00 31.69     0.031 A 
HETATM   16  C12   D T9000      -3.768   2.567   8.903  1.00 33.21     0.150 A 
HETATM   17  F     D T9000      -2.897   3.572   8.752  1.00 33.89    -0.203 F 
HETATM   18  C18   D T9000      -3.718   1.700  10.056  1.00 33.60     0.084 A 
HETATM   19 CL2    D T9000      -2.466   2.026  11.246  1.00 45.49    -0.080 Cl
ENDBRANCH   9  11
ENDBRANCH   8   9
ENDBRANCH   1   8
BRANCH   7  20
HETATM   20  C16   D T9000      -0.168  -3.527  11.135  1.00 30.74     0.041 A 
HETATM   21  C6    D T9000       0.493  -2.452  11.877  1.00 33.28     0.122 A 
HETATM   22  N24   D T9000       1.760  -2.593  11.780  1.00 35.40    -0.168 NA
HETATM   23  N26   D T9000       2.036  -3.624  11.068  1.00 35.93    -0.252 N 
HETATM   24  C7    D T9000       0.874  -4.290  10.609  1.00 33.34     0.097 A 
BRANCH  23  25
HETATM   25  C20   D T9000       3.440  -4.017  10.798  1.00 41.25     0.110 C 
HETATM   26  C8    D T9000       3.546  -4.766   9.452  1.00 43.15     0.063 C 
HETATM   27  C10   D T9000       5.020  -5.157   9.194  1.00 45.06     0.292 C 
HETATM   28  N25   D T9000       5.604  -5.943  10.321  1.00 46.53     0.339 N 
HETATM   29  C11   D T9000       5.466  -5.259  11.639  1.00 45.16     0.292 C 
HETATM   30  C9    D T9000       4.003  -4.874  11.954  1.00 43.46     0.063 C 
ENDBRANCH  23  25
ENDBRANCH   7  20
TORSDOF 5
ENDMDL
MODEL 9
REMARK VINA RESULT:    -8.635      5.128      9.213
REMARK INTER + INTRA:         -11.787
REMARK INTER:                 -11.045
REMARK INTRA:                  -0.743
REMARK UNBOUND:                -0.628
REMARK  5 active torsions:
REMARK  status: ('A' for Active; 'I' for Inactive)
REMARK    1  A    between atoms: C17_7  and  C21_10 
REMARK    2  A    between atoms: C21_10  and  O27_12 
REMARK    3  A    between atoms: O27_12  and  C15_13 
REMARK    4  A    between atoms: C14_19  and  C16_20 
REMARK    5  A    between atoms: N26_23  and  C20_25 
ROOT
HETATM    1  C15   D T9000       0.202  -1.717   9.864  1.00 25.51     0.125 A 
HETATM    2  C4    D T9000       0.769  -0.397   9.835  1.00 26.27     0.029 A 
HETATM    3  C19   D T9000       1.118  -2.796   9.631  1.00 24.04     0.173 A 
HETATM    4  N22   D T9000       0.632  -4.118   9.649  1.00 22.39    -0.078 NA
HETATM    5  N23   D T9000       2.447  -2.634   9.394  1.00 23.93    -0.228 NA
HETATM    6  C5    D T9000       2.957  -1.365   9.372  1.00 26.12     0.100 A 
HETATM    7  C14   D T9000       2.163  -0.195   9.585  1.00 28.08     0.024 A 
ENDROOT
BRANCH   1   8
HETATM    8  O27   D T9000      -1.147  -2.014  10.121  1.00 26.96    -0.326 OA
BRANCH   8   9
HETATM    9  C21   D T9000      -1.988  -1.417  11.173  1.00 29.02     0.145 C 
HETATM   10  C1    D T9000      -2.570  -2.604  11.957  1.00 31.25     0.038 C 
BRANCH   9  11
HETATM   11  C17   D T9000      -3.142  -0.481  10.644  1.00 31.05     0.029 A 
HETATM   12  C13   D T9000      -3.017   0.970  10.761  1.00 30.66     0.057 A 
HETATM   13 CL     D T9000      -1.642   1.768  11.464  1.00 31.95    -0.083 Cl
HETATM   14  C3    D T9000      -4.058   1.820  10.287  1.00 30.41     0.013 A 
HETATM   15  C2    D T9000      -5.229   1.285   9.695  1.00 31.69     0.031 A 
HETATM   16  C12   D T9000      -5.394  -0.118   9.564  1.00 33.21     0.150 A 
HETATM   17  F     D T9000      -6.518  -0.578   9.002  1.00 33.89    -0.203 F 
HETATM   18  C18   D T9000      -4.366  -1.019  10.027  1.00 33.60     0.084 A 
HETATM   19 CL2    D T9000      -4.659  -2.739   9.818  1.00 45.49    -0.080 Cl
ENDBRANCH   9  11
ENDBRANCH   8   9
ENDBRANCH   1   8
BRANCH   7  20
HETATM   20  C16   D T9000       2.736   1.210   9.556  1.00 30.74     0.041 A 
HETATM   21  C6    D T9000       2.168   2.401  10.191  1.00 33.28     0.122 A 
HETATM   22  N24   D T9000       2.923   3.405   9.952  1.00 35.40    -0.168 NA
HETATM   23  N26   D T9000       3.926   3.042   9.238  1.00 35.93    -0.252 N 
HETATM   24  C7    D T9000       3.899   1.660   8.933  1.00 33.34     0.097 A 
BRANCH  23  25
HETATM   25  C20   D T9000       4.960   4.016   8.818  1.00 41.25     0.110 C 
HETATM   26  C8    D T9000       5.376   4.913  10.004  1.00 43.15     0.063 C 
HETATM   27  C10   D T9000       6.460   5.914   9.538  1.00 45.06     0.292 C 
HETATM   28  N25   D T9000       6.023   6.714   8.356  1.00 46.53     0.339 N 
HETATM   29  C11   D T9000       5.569   5.866   7.217  1.00 45.16     0.292 C 
HETATM   30  C9    D T9000       4.464   4.867   7.628  1.00 43.46     0.063 C 
ENDBRANCH  23  25
ENDBRANCH   7  20
TORSDOF 5
ENDMDL
