MODEL 1
REMARK VINA RESULT:    -7.853      0.000      0.000
REMARK INTER + INTRA:         -10.853
REMARK INTER:                 -10.148
REMARK INTRA:                  -0.706
REMARK UNBOUND:                -0.706
REMARK  5 active torsions:
REMARK  status: ('A' for Active; 'I' for Inactive)
REMARK    1  A    between atoms: C17_7  and  C21_10 
REMARK    2  A    between atoms: C21_10  and  O27_12 
REMARK    3  A    between atoms: O27_12  and  C15_13 
REMARK    4  A    between atoms: C14_19  and  C16_20 
REMARK    5  A    between atoms: N26_23  and  C20_25 
ROOT
HETATM    1  C15   D T9000      -4.515  -5.599  -6.282  1.00 25.51     0.125 A 
HETATM    2  C4    D T9000      -5.288  -4.457  -6.689  1.00 26.27     0.029 A 
HETATM    3  C19   D T9000      -3.344  -5.313  -5.502  1.00 24.04     0.173 A 
HETATM    4  N22   D T9000      -2.540  -6.383  -5.065  1.00 22.39    -0.078 NA
HETATM    5  N23   D T9000      -2.948  -4.062  -5.146  1.00 23.93    -0.228 NA
HETATM    6  C5    D T9000      -3.706  -2.996  -5.549  1.00 26.12     0.100 A 
HETATM    7  C14   D T9000      -4.895  -3.130  -6.330  1.00 28.08     0.024 A 
ENDROOT
BRANCH   1   8
HETATM    8  O27   D T9000      -4.832  -6.937  -6.567  1.00 26.96    -0.326 OA
BRANCH   8   9
HETATM    9  C21   D T9000      -6.181  -7.530  -6.591  1.00 29.02     0.145 C 
HETATM   10  C1    D T9000      -6.566  -7.735  -5.118  1.00 31.25     0.038 C 
BRANCH   9  11
HETATM   11  C17   D T9000      -6.292  -8.884  -7.389  1.00 31.05     0.029 A 
HETATM   12  C13   D T9000      -7.570  -9.284  -7.976  1.00 30.66     0.057 A 
HETATM   13 CL     D T9000      -9.025  -8.342  -7.854  1.00 31.95    -0.083 Cl
HETATM   14  C3    D T9000      -7.676 -10.510  -8.695  1.00 30.41     0.013 A 
HETATM   15  C2    D T9000      -6.558 -11.364  -8.858  1.00 31.69     0.031 A 
HETATM   16  C12   D T9000      -5.299 -11.016  -8.305  1.00 33.21     0.150 A 
HETATM   17  F     D T9000      -4.271 -11.856  -8.482  1.00 33.89    -0.203 F 
HETATM   18  C18   D T9000      -5.141  -9.784  -7.570  1.00 33.60     0.084 A 
HETATM   19 CL2    D T9000      -3.543  -9.440  -6.923  1.00 45.49    -0.080 Cl
ENDBRANCH   9  11
ENDBRANCH   8   9
ENDBRANCH   1   8
BRANCH   7  20
HETATM   20  C16   D T9000      -5.729  -1.943  -6.777  1.00 30.74     0.041 A 
HETATM   21  C6    D T9000      -5.415  -1.009  -7.859  1.00 33.28     0.122 A 
HETATM   22  N24   D T9000      -6.346  -0.137  -7.945  1.00 35.40    -0.168 NA
HETATM   23  N26   D T9000      -7.245  -0.365  -7.060  1.00 35.93    -0.252 N 
HETATM   24  C7    D T9000      -6.946  -1.497  -6.265  1.00 33.34     0.097 A 
BRANCH  23  25
HETATM   25  C20   D T9000      -8.442   0.502  -6.943  1.00 41.25     0.110 C 
HETATM   26  C8    D T9000      -8.028   1.968  -6.685  1.00 43.15     0.063 C 
HETATM   27  C10   D T9000      -9.295   2.848  -6.572  1.00 45.06     0.292 C 
HETATM   28  N25   D T9000     -10.248   2.344  -5.540  1.00 46.53     0.339 N 
HETATM   29  C11   D T9000     -10.621   0.914  -5.742  1.00 45.16     0.292 C 
HETATM   30  C9    D T9000      -9.385  -0.010  -5.831  1.00 43.46     0.063 C 
ENDBRANCH  23  25
ENDBRANCH   7  20
TORSDOF 5
ENDMDL
MODEL 2
REMARK VINA RESULT:    -7.788      1.050      2.185
REMARK INTER + INTRA:         -10.769
REMARK INTER:                 -10.104
REMARK INTRA:                  -0.665
REMARK UNBOUND:                -0.706
REMARK  5 active torsions:
REMARK  status: ('A' for Active; 'I' for Inactive)
REMARK    1  A    between atoms: C17_7  and  C21_10 
REMARK    2  A    between atoms: C21_10  and  O27_12 
REMARK    3  A    between atoms: O27_12  and  C15_13 
REMARK    4  A    between atoms: C14_19  and  C16_20 
REMARK    5  A    between atoms: N26_23  and  C20_25 
ROOT
HETATM    1  C15   D T9000      -4.559  -5.188  -6.203  1.00 25.51     0.125 A 
HETATM    2  C4    D T9000      -5.376  -4.070  -6.591  1.00 26.27     0.029 A 
HETATM    3  C19   D T9000      -3.426  -4.876  -5.379  1.00 24.04     0.173 A 
HETATM    4  N22   D T9000      -2.583  -5.923  -4.957  1.00 22.39    -0.078 NA
HETATM    5  N23   D T9000      -3.100  -3.622  -4.966  1.00 23.93    -0.228 NA
HETATM    6  C5    D T9000      -3.898  -2.579  -5.353  1.00 26.12     0.100 A 
HETATM    7  C14   D T9000      -5.057  -2.740  -6.173  1.00 28.08     0.024 A 
ENDROOT
BRANCH   1   8
HETATM    8  O27   D T9000      -4.803  -6.528  -6.545  1.00 26.96    -0.326 OA
BRANCH   8   9
HETATM    9  C21   D T9000      -6.111  -7.207  -6.539  1.00 29.02     0.145 C 
HETATM   10  C1    D T9000      -6.479  -7.378  -5.058  1.00 31.25     0.038 C 
BRANCH   9  11
HETATM   11  C17   D T9000      -6.135  -8.597  -7.282  1.00 31.05     0.029 A 
HETATM   12  C13   D T9000      -4.930  -9.424  -7.325  1.00 30.66     0.057 A 
HETATM   13 CL     D T9000      -3.422  -8.971  -6.591  1.00 31.95    -0.083 Cl
HETATM   14  C3    D T9000      -4.945 -10.679  -8.000  1.00 30.41     0.013 A 
HETATM   15  C2    D T9000      -6.117 -11.154  -8.639  1.00 31.69     0.031 A 
HETATM   16  C12   D T9000      -7.309 -10.385  -8.623  1.00 33.21     0.150 A 
HETATM   17  F     D T9000      -8.391 -10.873  -9.243  1.00 33.89    -0.203 F 
HETATM   18  C18   D T9000      -7.343  -9.108  -7.952  1.00 33.60     0.084 A 
HETATM   19 CL2    D T9000      -8.865  -8.229  -7.985  1.00 45.49    -0.080 Cl
ENDBRANCH   9  11
ENDBRANCH   8   9
ENDBRANCH   1   8
BRANCH   7  20
HETATM   20  C16   D T9000      -5.935  -1.578  -6.601  1.00 30.74     0.041 A 
HETATM   21  C6    D T9000      -5.907  -0.887  -7.891  1.00 33.28     0.122 A 
HETATM   22  N24   D T9000      -6.787   0.041  -7.890  1.00 35.40    -0.168 NA
HETATM   23  N26   D T9000      -7.402   0.062  -6.765  1.00 35.93    -0.252 N 
HETATM   24  C7    D T9000      -6.934  -0.932  -5.874  1.00 33.34     0.097 A 
BRANCH  23  25
HETATM   25  C20   D T9000      -8.478   1.047  -6.499  1.00 41.25     0.110 C 
HETATM   26  C8    D T9000      -9.740   0.711  -7.323  1.00 43.15     0.063 C 
HETATM   27  C10   D T9000     -10.844   1.751  -7.022  1.00 45.06     0.292 C 
HETATM   28  N25   D T9000     -10.384   3.152  -7.249  1.00 46.53     0.339 N 
HETATM   29  C11   D T9000      -9.135   3.482  -6.500  1.00 45.16     0.292 C 
HETATM   30  C9    D T9000      -7.992   2.484  -6.793  1.00 43.46     0.063 C 
ENDBRANCH  23  25
ENDBRANCH   7  20
TORSDOF 5
ENDMDL
MODEL 3
REMARK VINA RESULT:    -7.713      4.298      9.393
REMARK INTER + INTRA:         -10.673
REMARK INTER:                  -9.594
REMARK INTRA:                  -1.079
REMARK UNBOUND:                -0.706
REMARK  5 active torsions:
REMARK  status: ('A' for Active; 'I' for Inactive)
REMARK    1  A    between atoms: C17_7  and  C21_10 
REMARK    2  A    between atoms: C21_10  and  O27_12 
REMARK    3  A    between atoms: O27_12  and  C15_13 
REMARK    4  A    between atoms: C14_19  and  C16_20 
REMARK    5  A    between atoms: N26_23  and  C20_25 
ROOT
HETATM    1  C15   D T9000      -9.119  -3.050  -8.044  1.00 25.51     0.125 A 
HETATM    2  C4    D T9000      -8.313  -4.211  -7.779  1.00 26.27     0.029 A 
HETATM    3  C19   D T9000     -10.488  -3.307  -8.392  1.00 24.04     0.173 A 
HETATM    4  N22   D T9000     -11.338  -2.217  -8.661  1.00 22.39    -0.078 NA
HETATM    5  N23   D T9000     -11.035  -4.549  -8.480  1.00 23.93    -0.228 NA
HETATM    6  C5    D T9000     -10.242  -5.634  -8.221  1.00 26.12     0.100 A 
HETATM    7  C14   D T9000      -8.861  -5.529  -7.865  1.00 28.08     0.024 A 
ENDROOT
BRANCH   1   8
HETATM    8  O27   D T9000      -8.676  -1.720  -7.964  1.00 26.96    -0.326 OA
BRANCH   8   9
HETATM    9  C21   D T9000      -8.233  -1.018  -6.746  1.00 29.02     0.145 C 
HETATM   10  C1    D T9000      -8.420   0.477  -7.042  1.00 31.25     0.038 C 
BRANCH   9  11
HETATM   11  C17   D T9000      -6.747  -1.319  -6.316  1.00 31.05     0.029 A 
HETATM   12  C13   D T9000      -6.460  -1.808  -4.968  1.00 30.66     0.057 A 
HETATM   13 CL     D T9000      -7.681  -2.093  -3.765  1.00 31.95    -0.083 Cl
HETATM   14  C3    D T9000      -5.117  -2.078  -4.574  1.00 30.41     0.013 A 
HETATM   15  C2    D T9000      -4.036  -1.881  -5.468  1.00 31.69     0.031 A 
HETATM   16  C12   D T9000      -4.268  -1.407  -6.785  1.00 33.21     0.150 A 
HETATM   17  F     D T9000      -3.215  -1.233  -7.594  1.00 33.89    -0.203 F 
HETATM   18  C18   D T9000      -5.610  -1.122  -7.231  1.00 33.60     0.084 A 
HETATM   19 CL2    D T9000      -5.797  -0.539  -8.879  1.00 45.49    -0.080 Cl
ENDBRANCH   9  11
ENDBRANCH   8   9
ENDBRANCH   1   8
BRANCH   7  20
HETATM   20  C16   D T9000      -7.986  -6.736  -7.584  1.00 30.74     0.041 A 
HETATM   21  C6    D T9000      -6.804  -6.781  -6.723  1.00 33.28     0.122 A 
HETATM   22  N24   D T9000      -6.323  -7.966  -6.729  1.00 35.40    -0.168 NA
HETATM   23  N26   D T9000      -7.032  -8.724  -7.483  1.00 35.93    -0.252 N 
HETATM   24  C7    D T9000      -8.118  -8.035  -8.075  1.00 33.34     0.097 A 
BRANCH  23  25
HETATM   25  C20   D T9000      -6.692 -10.155  -7.667  1.00 41.25     0.110 C 
HETATM   26  C8    D T9000      -7.024 -10.961  -6.393  1.00 43.15     0.063 C 
HETATM   27  C10   D T9000      -6.663 -12.448  -6.616  1.00 45.06     0.292 C 
HETATM   28  N25   D T9000      -5.245 -12.633  -7.043  1.00 46.53     0.339 N 
HETATM   29  C11   D T9000      -4.890 -11.822  -8.244  1.00 45.16     0.292 C 
HETATM   30  C9    D T9000      -5.206 -10.321  -8.056  1.00 43.46     0.063 C 
ENDBRANCH  23  25
ENDBRANCH   7  20
TORSDOF 5
ENDMDL
MODEL 4
REMARK VINA RESULT:    -7.699      3.941      8.395
REMARK INTER + INTRA:         -10.656
REMARK INTER:                  -9.633
REMARK INTRA:                  -1.023
REMARK UNBOUND:                -0.706
REMARK  5 active torsions:
REMARK  status: ('A' for Active; 'I' for Inactive)
REMARK    1  A    between atoms: C17_7  and  C21_10 
REMARK    2  A    between atoms: C21_10  and  O27_12 
REMARK    3  A    between atoms: O27_12  and  C15_13 
REMARK    4  A    between atoms: C14_19  and  C16_20 
REMARK    5  A    between atoms: N26_23  and  C20_25 
ROOT
HETATM    1  C15   D T9000      -5.670  -2.035  -5.680  1.00 25.51     0.125 A 
HETATM    2  C4    D T9000      -5.823  -3.439  -5.949  1.00 26.27     0.029 A 
HETATM    3  C19   D T9000      -4.331  -1.595  -5.404  1.00 24.04     0.173 A 
HETATM    4  N22   D T9000      -4.105  -0.232  -5.136  1.00 22.39    -0.078 NA
HETATM    5  N23   D T9000      -3.245  -2.413  -5.386  1.00 23.93    -0.228 NA
HETATM    6  C5    D T9000      -3.424  -3.745  -5.646  1.00 26.12     0.100 A 
HETATM    7  C14   D T9000      -4.699  -4.323  -5.935  1.00 28.08     0.024 A 
ENDROOT
BRANCH   1   8
HETATM    8  O27   D T9000      -6.707  -1.089  -5.692  1.00 26.96    -0.326 OA
BRANCH   8   9
HETATM    9  C21   D T9000      -7.350  -0.512  -6.887  1.00 29.02     0.145 C 
HETATM   10  C1    D T9000      -7.568   0.972  -6.559  1.00 31.25     0.038 C 
BRANCH   9  11
HETATM   11  C17   D T9000      -8.708  -1.197  -7.300  1.00 31.05     0.029 A 
HETATM   12  C13   D T9000      -9.085  -1.280  -8.710  1.00 30.66     0.057 A 
HETATM   13 CL     D T9000      -8.111  -0.660 -10.008  1.00 31.95    -0.083 Cl
HETATM   14  C3    D T9000     -10.314  -1.895  -9.088  1.00 30.41     0.013 A 
HETATM   15  C2    D T9000     -11.193  -2.435  -8.117  1.00 31.69     0.031 A 
HETATM   16  C12   D T9000     -10.868  -2.376  -6.738  1.00 33.21     0.150 A 
HETATM   17  F     D T9000     -11.731  -2.897  -5.857  1.00 33.89    -0.203 F 
HETATM   18  C18   D T9000      -9.634  -1.765  -6.306  1.00 33.60     0.084 A 
HETATM   19 CL2    D T9000      -9.319  -1.739  -4.577  1.00 45.49    -0.080 Cl
ENDBRANCH   9  11
ENDBRANCH   8   9
ENDBRANCH   1   8
BRANCH   7  20
HETATM   20  C16   D T9000      -4.891  -5.801  -6.218  1.00 30.74     0.041 A 
HETATM   21  C6    D T9000      -3.856  -6.836  -6.215  1.00 33.28     0.122 A 
HETATM   22  N24   D T9000      -4.387  -7.964  -6.499  1.00 35.40    -0.168 NA
HETATM   23  N26   D T9000      -5.647  -7.820  -6.693  1.00 35.93    -0.252 N 
HETATM   24  C7    D T9000      -6.068  -6.478  -6.536  1.00 33.34     0.097 A 
BRANCH  23  25
HETATM   25  C20   D T9000      -6.506  -8.977  -7.038  1.00 41.25     0.110 C 
HETATM   26  C8    D T9000      -5.686 -10.067  -7.762  1.00 43.15     0.063 C 
HETATM   27  C10   D T9000      -6.606 -11.262  -8.105  1.00 45.06     0.292 C 
HETATM   28  N25   D T9000      -7.806 -10.849  -8.891  1.00 46.53     0.339 N 
HETATM   29  C11   D T9000      -8.586  -9.761  -8.232  1.00 45.16     0.292 C 
HETATM   30  C9    D T9000      -7.711  -8.531  -7.896  1.00 43.46     0.063 C 
ENDBRANCH  23  25
ENDBRANCH   7  20
TORSDOF 5
ENDMDL
MODEL 5
REMARK VINA RESULT:    -7.636      4.050      9.045
REMARK INTER + INTRA:         -10.573
REMARK INTER:                  -9.485
REMARK INTRA:                  -1.088
REMARK UNBOUND:                -0.706
REMARK  5 active torsions:
REMARK  status: ('A' for Active; 'I' for Inactive)
REMARK    1  A    between atoms: C17_7  and  C21_10 
REMARK    2  A    between atoms: C21_10  and  O27_12 
REMARK    3  A    between atoms: O27_12  and  C15_13 
REMARK    4  A    between atoms: C14_19  and  C16_20 
REMARK    5  A    between atoms: N26_23  and  C20_25 
ROOT
HETATM    1  C15   D T9000      -4.269  -4.297  -6.472  1.00 25.51     0.125 A 
HETATM    2  C4    D T9000      -4.815  -5.571  -6.853  1.00 26.27     0.029 A 
HETATM    3  C19   D T9000      -3.213  -4.336  -5.500  1.00 24.04     0.173 A 
HETATM    4  N22   D T9000      -2.628  -3.125  -5.083  1.00 22.39    -0.078 NA
HETATM    5  N23   D T9000      -2.725  -5.477  -4.945  1.00 23.93    -0.228 NA
HETATM    6  C5    D T9000      -3.266  -6.674  -5.329  1.00 26.12     0.100 A 
HETATM    7  C14   D T9000      -4.323  -6.787  -6.285  1.00 28.08     0.024 A 
ENDROOT
BRANCH   1   8
HETATM    8  O27   D T9000      -4.671  -3.055  -6.990  1.00 26.96    -0.326 OA
BRANCH   8   9
HETATM    9  C21   D T9000      -6.035  -2.680  -7.403  1.00 29.02     0.145 C 
HETATM   10  C1    D T9000      -5.967  -1.182  -7.735  1.00 31.25     0.038 C 
BRANCH   9  11
HETATM   11  C17   D T9000      -7.151  -2.960  -6.325  1.00 31.05     0.029 A 
HETATM   12  C13   D T9000      -8.374  -3.666  -6.706  1.00 30.66     0.057 A 
HETATM   13 CL     D T9000      -8.697  -4.238  -8.314  1.00 31.95    -0.083 Cl
HETATM   14  C3    D T9000      -9.387  -3.918  -5.736  1.00 30.41     0.013 A 
HETATM   15  C2    D T9000      -9.238  -3.496  -4.392  1.00 31.69     0.031 A 
HETATM   16  C12   D T9000      -8.069  -2.808  -3.979  1.00 33.21     0.150 A 
HETATM   17  F     D T9000      -7.973  -2.426  -2.699  1.00 33.89    -0.203 F 
HETATM   18  C18   D T9000      -7.014  -2.531  -4.924  1.00 33.60     0.084 A 
HETATM   19 CL2    D T9000      -5.604  -1.673  -4.318  1.00 45.49    -0.080 Cl
ENDBRANCH   9  11
ENDBRANCH   8   9
ENDBRANCH   1   8
BRANCH   7  20
HETATM   20  C16   D T9000      -4.920  -8.118  -6.702  1.00 30.74     0.041 A 
HETATM   21  C6    D T9000      -6.339  -8.480  -6.707  1.00 33.28     0.122 A 
HETATM   22  N24   D T9000      -6.464  -9.684  -7.119  1.00 35.40    -0.168 NA
HETATM   23  N26   D T9000      -5.312 -10.178  -7.392  1.00 35.93    -0.252 N 
HETATM   24  C7    D T9000      -4.262  -9.258  -7.162  1.00 33.34     0.097 A 
BRANCH  23  25
HETATM   25  C20   D T9000      -5.174 -11.566  -7.893  1.00 41.25     0.110 C 
HETATM   26  C8    D T9000      -6.119 -11.810  -9.089  1.00 43.15     0.063 C 
HETATM   27  C10   D T9000      -5.949 -13.263  -9.592  1.00 45.06     0.292 C 
HETATM   28  N25   D T9000      -6.147 -14.268  -8.507  1.00 46.53     0.339 N 
HETATM   29  C11   D T9000      -5.277 -14.020  -7.320  1.00 45.16     0.292 C 
HETATM   30  C9    D T9000      -5.436 -12.586  -6.763  1.00 43.46     0.063 C 
ENDBRANCH  23  25
ENDBRANCH   7  20
TORSDOF 5
ENDMDL
MODEL 6
REMARK VINA RESULT:    -7.479      3.853      9.007
REMARK INTER + INTRA:         -10.370
REMARK INTER:                  -9.369
REMARK INTRA:                  -1.001
REMARK UNBOUND:                -0.706
REMARK  5 active torsions:
REMARK  status: ('A' for Active; 'I' for Inactive)
REMARK    1  A    between atoms: C17_7  and  C21_10 
REMARK    2  A    between atoms: C21_10  and  O27_12 
REMARK    3  A    between atoms: O27_12  and  C15_13 
REMARK    4  A    between atoms: C14_19  and  C16_20 
REMARK    5  A    between atoms: N26_23  and  C20_25 
ROOT
HETATM    1  C15   D T9000      -4.368  -4.195  -6.396  1.00 25.51     0.125 A 
HETATM    2  C4    D T9000      -4.907  -5.470  -6.783  1.00 26.27     0.029 A 
HETATM    3  C19   D T9000      -3.284  -4.235  -5.456  1.00 24.04     0.173 A 
HETATM    4  N22   D T9000      -2.704  -3.023  -5.034  1.00 22.39    -0.078 NA
HETATM    5  N23   D T9000      -2.764  -5.378  -4.935  1.00 23.93    -0.228 NA
HETATM    6  C5    D T9000      -3.299  -6.577  -5.324  1.00 26.12     0.100 A 
HETATM    7  C14   D T9000      -4.382  -6.689  -6.251  1.00 28.08     0.024 A 
ENDROOT
BRANCH   1   8
HETATM    8  O27   D T9000      -4.802  -2.950  -6.880  1.00 26.96    -0.326 OA
BRANCH   8   9
HETATM    9  C21   D T9000      -6.165  -2.613  -7.328  1.00 29.02     0.145 C 
HETATM   10  C1    D T9000      -6.145  -1.103  -7.606  1.00 31.25     0.038 C 
BRANCH   9  11
HETATM   11  C17   D T9000      -7.305  -2.975  -6.302  1.00 31.05     0.029 A 
HETATM   12  C13   D T9000      -7.183  -2.572  -4.901  1.00 30.66     0.057 A 
HETATM   13 CL     D T9000      -5.826  -1.694  -4.265  1.00 31.95    -0.083 Cl
HETATM   14  C3    D T9000      -8.209  -2.901  -3.969  1.00 30.41     0.013 A 
HETATM   15  C2    D T9000      -9.363  -3.618  -4.370  1.00 31.69     0.031 A 
HETATM   16  C12   D T9000      -9.523  -4.029  -5.718  1.00 33.21     0.150 A 
HETATM   17  F     D T9000     -10.629  -4.708  -6.050  1.00 33.89    -0.203 F 
HETATM   18  C18   D T9000      -8.512  -3.719  -6.700  1.00 33.60     0.084 A 
HETATM   19 CL2    D T9000      -8.800  -4.269  -8.344  1.00 45.49    -0.080 Cl
ENDBRANCH   9  11
ENDBRANCH   8   9
ENDBRANCH   1   8
BRANCH   7  20
HETATM   20  C16   D T9000      -4.972  -8.021  -6.674  1.00 30.74     0.041 A 
HETATM   21  C6    D T9000      -6.390  -8.387  -6.689  1.00 33.28     0.122 A 
HETATM   22  N24   D T9000      -6.509  -9.590  -7.104  1.00 35.40    -0.168 NA
HETATM   23  N26   D T9000      -5.354 -10.080  -7.369  1.00 35.93    -0.252 N 
HETATM   24  C7    D T9000      -4.307  -9.159  -7.130  1.00 33.34     0.097 A 
BRANCH  23  25
HETATM   25  C20   D T9000      -5.208 -11.468  -7.870  1.00 41.25     0.110 C 
HETATM   26  C8    D T9000      -6.099 -11.695  -9.111  1.00 43.15     0.063 C 
HETATM   27  C10   D T9000      -5.922 -13.147  -9.613  1.00 45.06     0.292 C 
HETATM   28  N25   D T9000      -6.182 -14.155  -8.543  1.00 46.53     0.339 N 
HETATM   29  C11   D T9000      -5.366 -13.923  -7.316  1.00 45.16     0.292 C 
HETATM   30  C9    D T9000      -5.534 -12.491  -6.759  1.00 43.46     0.063 C 
ENDBRANCH  23  25
ENDBRANCH   7  20
TORSDOF 5
ENDMDL
MODEL 7
REMARK VINA RESULT:    -7.477      4.183      9.234
REMARK INTER + INTRA:         -10.368
REMARK INTER:                  -9.411
REMARK INTRA:                  -0.958
REMARK UNBOUND:                -0.706
REMARK  5 active torsions:
REMARK  status: ('A' for Active; 'I' for Inactive)
REMARK    1  A    between atoms: C17_7  and  C21_10 
REMARK    2  A    between atoms: C21_10  and  O27_12 
REMARK    3  A    between atoms: O27_12  and  C15_13 
REMARK    4  A    between atoms: C14_19  and  C16_20 
REMARK    5  A    between atoms: N26_23  and  C20_25 
ROOT
HETATM    1  C15   D T9000      -9.150  -2.936  -7.977  1.00 25.51     0.125 A 
HETATM    2  C4    D T9000      -8.309  -4.067  -7.695  1.00 26.27     0.029 A 
HETATM    3  C19   D T9000     -10.508  -3.240  -8.329  1.00 24.04     0.173 A 
HETATM    4  N22   D T9000     -11.391  -2.181  -8.615  1.00 22.39    -0.078 NA
HETATM    5  N23   D T9000     -11.015  -4.500  -8.407  1.00 23.93    -0.228 NA
HETATM    6  C5    D T9000     -10.189  -5.556  -8.133  1.00 26.12     0.100 A 
HETATM    7  C14   D T9000      -8.814  -5.403  -7.770  1.00 28.08     0.024 A 
ENDROOT
BRANCH   1   8
HETATM    8  O27   D T9000      -8.751  -1.591  -7.909  1.00 26.96    -0.326 OA
BRANCH   8   9
HETATM    9  C21   D T9000      -8.054  -0.942  -6.784  1.00 29.02     0.145 C 
HETATM   10  C1    D T9000      -8.208   0.567  -7.021  1.00 31.25     0.038 C 
BRANCH   9  11
HETATM   11  C17   D T9000      -6.533  -1.330  -6.639  1.00 31.05     0.029 A 
HETATM   12  C13   D T9000      -5.603  -1.063  -7.735  1.00 30.66     0.057 A 
HETATM   13 CL     D T9000      -6.067  -0.322  -9.236  1.00 31.95    -0.083 Cl
HETATM   14  C3    D T9000      -4.227  -1.416  -7.610  1.00 30.41     0.013 A 
HETATM   15  C2    D T9000      -3.731  -2.029  -6.433  1.00 31.69     0.031 A 
HETATM   16  C12   D T9000      -4.598  -2.307  -5.346  1.00 33.21     0.150 A 
HETATM   17  F     D T9000      -4.085  -2.890  -4.255  1.00 33.89    -0.203 F 
HETATM   18  C18   D T9000      -5.998  -1.967  -5.424  1.00 33.60     0.084 A 
HETATM   19 CL2    D T9000      -6.992  -2.350  -4.026  1.00 45.49    -0.080 Cl
ENDBRANCH   9  11
ENDBRANCH   8   9
ENDBRANCH   1   8
BRANCH   7  20
HETATM   20  C16   D T9000      -7.903  -6.579  -7.472  1.00 30.74     0.041 A 
HETATM   21  C6    D T9000      -6.677  -6.557  -6.672  1.00 33.28     0.122 A 
HETATM   22  N24   D T9000      -6.175  -7.732  -6.640  1.00 35.40    -0.168 NA
HETATM   23  N26   D T9000      -6.906  -8.541  -7.316  1.00 35.93    -0.252 N 
HETATM   24  C7    D T9000      -8.033  -7.904  -7.886  1.00 33.34     0.097 A 
BRANCH  23  25
HETATM   25  C20   D T9000      -6.548  -9.974  -7.442  1.00 41.25     0.110 C 
HETATM   26  C8    D T9000      -5.016 -10.147  -7.533  1.00 43.15     0.063 C 
HETATM   27  C10   D T9000      -4.673 -11.650  -7.658  1.00 45.06     0.292 C 
HETATM   28  N25   D T9000      -5.379 -12.302  -8.800  1.00 46.53     0.339 N 
HETATM   29  C11   D T9000      -6.858 -12.104  -8.757  1.00 45.16     0.292 C 
HETATM   30  C9    D T9000      -7.250 -10.611  -8.662  1.00 43.46     0.063 C 
ENDBRANCH  23  25
ENDBRANCH   7  20
TORSDOF 5
ENDMDL
MODEL 8
REMARK VINA RESULT:    -7.392      4.330      9.302
REMARK INTER + INTRA:         -10.258
REMARK INTER:                  -9.485
REMARK INTRA:                  -0.773
REMARK UNBOUND:                -0.706
REMARK  5 active torsions:
REMARK  status: ('A' for Active; 'I' for Inactive)
REMARK    1  A    between atoms: C17_7  and  C21_10 
REMARK    2  A    between atoms: C21_10  and  O27_12 
REMARK    3  A    between atoms: O27_12  and  C15_13 
REMARK    4  A    between atoms: C14_19  and  C16_20 
REMARK    5  A    between atoms: N26_23  and  C20_25 
ROOT
HETATM    1  C15   D T9000      -5.682  -2.239  -5.935  1.00 25.51     0.125 A 
HETATM    2  C4    D T9000      -5.725  -3.652  -6.195  1.00 26.27     0.029 A 
HETATM    3  C19   D T9000      -4.437  -1.735  -5.430  1.00 24.04     0.173 A 
HETATM    4  N22   D T9000      -4.321  -0.358  -5.157  1.00 22.39    -0.078 NA
HETATM    5  N23   D T9000      -3.339  -2.502  -5.195  1.00 23.93    -0.228 NA
HETATM    6  C5    D T9000      -3.412  -3.844  -5.452  1.00 26.12     0.100 A 
HETATM    7  C14   D T9000      -4.587  -4.484  -5.955  1.00 28.08     0.024 A 
ENDROOT
BRANCH   1   8
HETATM    8  O27   D T9000      -6.738  -1.340  -6.159  1.00 26.96    -0.326 OA
BRANCH   8   9
HETATM    9  C21   D T9000      -8.161  -1.688  -6.327  1.00 29.02     0.145 C 
HETATM   10  C1    D T9000      -8.369  -1.849  -7.839  1.00 31.25     0.038 C 
BRANCH   9  11
HETATM   11  C17   D T9000      -9.171  -0.632  -5.736  1.00 31.05     0.029 A 
HETATM   12  C13   D T9000     -10.130  -1.034  -4.707  1.00 30.66     0.057 A 
HETATM   13 CL     D T9000     -10.239  -2.645  -4.067  1.00 31.95    -0.083 Cl
HETATM   14  C3    D T9000     -11.048  -0.084  -4.173  1.00 30.41     0.013 A 
HETATM   15  C2    D T9000     -11.056   1.260  -4.619  1.00 31.69     0.031 A 
HETATM   16  C12   D T9000     -10.144   1.694  -5.615  1.00 33.21     0.150 A 
HETATM   17  F     D T9000     -10.190   2.973  -6.008  1.00 33.89    -0.203 F 
HETATM   18  C18   D T9000      -9.194   0.770  -6.185  1.00 33.60     0.084 A 
HETATM   19 CL2    D T9000      -8.105   1.400  -7.413  1.00 45.49    -0.080 Cl
ENDBRANCH   9  11
ENDBRANCH   8   9
ENDBRANCH   1   8
BRANCH   7  20
HETATM   20  C16   D T9000      -4.662  -5.974  -6.235  1.00 30.74     0.041 A 
HETATM   21  C6    D T9000      -3.553  -6.929  -6.202  1.00 33.28     0.122 A 
HETATM   22  N24   D T9000      -3.993  -8.094  -6.492  1.00 35.40    -0.168 NA
HETATM   23  N26   D T9000      -5.255  -8.044  -6.715  1.00 35.93    -0.252 N 
HETATM   24  C7    D T9000      -5.778  -6.737  -6.575  1.00 33.34     0.097 A 
BRANCH  23  25
HETATM   25  C20   D T9000      -6.018  -9.264  -7.073  1.00 41.25     0.110 C 
HETATM   26  C8    D T9000      -5.117 -10.267  -7.826  1.00 43.15     0.063 C 
HETATM   27  C10   D T9000      -5.938 -11.529  -8.182  1.00 45.06     0.292 C 
HETATM   28  N25   D T9000      -7.178 -11.206  -8.946  1.00 46.53     0.339 N 
HETATM   29  C11   D T9000      -8.038 -10.199  -8.258  1.00 45.16     0.292 C 
HETATM   30  C9    D T9000      -7.267  -8.906  -7.909  1.00 43.46     0.063 C 
ENDBRANCH  23  25
ENDBRANCH   7  20
TORSDOF 5
ENDMDL
MODEL 9
REMARK VINA RESULT:    -7.181      4.638     10.518
REMARK INTER + INTRA:          -9.986
REMARK INTER:                  -9.092
REMARK INTRA:                  -0.894
REMARK UNBOUND:                -0.706
REMARK  5 active torsions:
REMARK  status: ('A' for Active; 'I' for Inactive)
REMARK    1  A    between atoms: C17_7  and  C21_10 
REMARK    2  A    between atoms: C21_10  and  O27_12 
REMARK    3  A    between atoms: O27_12  and  C15_13 
REMARK    4  A    between atoms: C14_19  and  C16_20 
REMARK    5  A    between atoms: N26_23  and  C20_25 
ROOT
HETATM    1  C15   D T9000      -7.949  -6.683  -7.612  1.00 25.51     0.125 A 
HETATM    2  C4    D T9000      -7.055  -7.806  -7.528  1.00 26.27     0.029 A 
HETATM    3  C19   D T9000      -9.309  -6.992  -7.951  1.00 24.04     0.173 A 
HETATM    4  N22   D T9000     -10.242  -5.942  -8.047  1.00 22.39    -0.078 NA
HETATM    5  N23   D T9000      -9.772  -8.249  -8.189  1.00 23.93    -0.228 NA
HETATM    6  C5    D T9000      -8.896  -9.296  -8.102  1.00 26.12     0.100 A 
HETATM    7  C14   D T9000      -7.513  -9.138  -7.774  1.00 28.08     0.024 A 
ENDROOT
BRANCH   1   8
HETATM    8  O27   D T9000      -7.597  -5.346  -7.366  1.00 26.96    -0.326 OA
BRANCH   8   9
HETATM    9  C21   D T9000      -6.770  -4.849  -6.251  1.00 29.02     0.145 C 
HETATM   10  C1    D T9000      -7.765  -4.417  -5.164  1.00 31.25     0.038 C 
BRANCH   9  11
HETATM   11  C17   D T9000      -5.804  -3.662  -6.625  1.00 31.05     0.029 A 
HETATM   12  C13   D T9000      -4.384  -3.740  -6.282  1.00 30.66     0.057 A 
HETATM   13 CL     D T9000      -3.661  -5.092  -5.465  1.00 31.95    -0.083 Cl
HETATM   14  C3    D T9000      -3.507  -2.667  -6.614  1.00 30.41     0.013 A 
HETATM   15  C2    D T9000      -3.982  -1.509  -7.278  1.00 31.69     0.031 A 
HETATM   16  C12   D T9000      -5.351  -1.391  -7.629  1.00 33.21     0.150 A 
HETATM   17  F     D T9000      -5.755  -0.278  -8.254  1.00 33.89    -0.203 F 
HETATM   18  C18   D T9000      -6.278  -2.452  -7.316  1.00 33.60     0.084 A 
HETATM   19 CL2    D T9000      -7.954  -2.214  -7.791  1.00 45.49    -0.080 Cl
ENDBRANCH   9  11
ENDBRANCH   8   9
ENDBRANCH   1   8
BRANCH   7  20
HETATM   20  C16   D T9000      -6.546 -10.304  -7.683  1.00 30.74     0.041 A 
HETATM   21  C6    D T9000      -5.108 -10.274  -7.953  1.00 33.28     0.122 A 
HETATM   22  N24   D T9000      -4.622 -11.442  -7.774  1.00 35.40    -0.168 NA
HETATM   23  N26   D T9000      -5.549 -12.255  -7.420  1.00 35.93    -0.252 N 
HETATM   24  C7    D T9000      -6.814 -11.626  -7.331  1.00 33.34     0.097 A 
BRANCH  23  25
HETATM   25  C20   D T9000      -5.254 -13.682  -7.148  1.00 41.25     0.110 C 
HETATM   26  C8    D T9000      -5.614 -14.555  -8.370  1.00 43.15     0.063 C 
HETATM   27  C10   D T9000      -5.291 -16.035  -8.058  1.00 45.06     0.292 C 
HETATM   28  N25   D T9000      -5.959 -16.513  -6.812  1.00 46.53     0.339 N 
HETATM   29  C11   D T9000      -5.664 -15.653  -5.629  1.00 45.16     0.292 C 
HETATM   30  C9    D T9000      -5.999 -14.166  -5.884  1.00 43.46     0.063 C 
ENDBRANCH  23  25
ENDBRANCH   7  20
TORSDOF 5
ENDMDL
