MODEL 1
REMARK VINA RESULT:    -8.737      0.000      0.000
REMARK INTER + INTRA:         -12.152
REMARK INTER:                 -11.290
REMARK INTRA:                  -0.862
REMARK UNBOUND:                -0.862
REMARK  5 active torsions:
REMARK  status: ('A' for Active; 'I' for Inactive)
REMARK    1  A    between atoms: C17_7  and  C21_10 
REMARK    2  A    between atoms: C21_10  and  O27_12 
REMARK    3  A    between atoms: O27_12  and  C15_13 
REMARK    4  A    between atoms: C14_19  and  C16_20 
REMARK    5  A    between atoms: N26_23  and  C20_25 
ROOT
HETATM    1  C15   D T9000     -14.613   5.961  -0.909  1.00 25.51     0.125 A 
HETATM    2  C4    D T9000     -14.130   5.191  -2.023  1.00 26.27     0.029 A 
HETATM    3  C19   D T9000     -13.880   7.159  -0.613  1.00 24.04     0.173 A 
HETATM    4  N22   D T9000     -14.298   7.965   0.464  1.00 22.39    -0.078 NA
HETATM    5  N23   D T9000     -12.791   7.583  -1.311  1.00 23.93    -0.228 NA
HETATM    6  C5    D T9000     -12.357   6.829  -2.366  1.00 26.12     0.100 A 
HETATM    7  C14   D T9000     -12.987   5.612  -2.773  1.00 28.08     0.024 A 
ENDROOT
BRANCH   1   8
HETATM    8  O27   D T9000     -15.736   5.641  -0.128  1.00 26.96    -0.326 OA
BRANCH   8   9
HETATM    9  C21   D T9000     -17.140   5.642  -0.575  1.00 29.02     0.145 C 
HETATM   10  C1    D T9000     -17.671   7.047  -0.254  1.00 31.25     0.038 C 
BRANCH   9  11
HETATM   11  C17   D T9000     -18.045   4.539   0.096  1.00 31.05     0.029 A 
HETATM   12  C13   D T9000     -18.798   3.605  -0.740  1.00 30.66     0.057 A 
HETATM   13 CL     D T9000     -18.766   3.623  -2.478  1.00 31.95    -0.083 Cl
HETATM   14  C3    D T9000     -19.621   2.608  -0.139  1.00 30.41     0.013 A 
HETATM   15  C2    D T9000     -19.729   2.497   1.269  1.00 31.69     0.031 A 
HETATM   16  C12   D T9000     -19.017   3.383   2.118  1.00 33.21     0.150 A 
HETATM   17  F     D T9000     -19.152   3.242   3.442  1.00 33.89    -0.203 F 
HETATM   18  C18   D T9000     -18.170   4.407   1.557  1.00 33.60     0.084 A 
HETATM   19 CL2    D T9000     -17.327   5.455   2.689  1.00 45.49    -0.080 Cl
ENDBRANCH   9  11
ENDBRANCH   8   9
ENDBRANCH   1   8
BRANCH   7  20
HETATM   20  C16   D T9000     -12.497   4.778  -3.943  1.00 30.74     0.041 A 
HETATM   21  C6    D T9000     -13.320   4.010  -4.878  1.00 33.28     0.122 A 
HETATM   22  N24   D T9000     -12.562   3.434  -5.731  1.00 35.40    -0.168 NA
HETATM   23  N26   D T9000     -11.333   3.717  -5.489  1.00 35.93    -0.252 N 
HETATM   24  C7    D T9000     -11.186   4.569  -4.369  1.00 33.34     0.097 A 
BRANCH  23  25
HETATM   25  C20   D T9000     -10.242   3.175  -6.333  1.00 41.25     0.110 C 
HETATM   26  C8    D T9000     -10.768   2.046  -7.246  1.00 43.15     0.063 C 
HETATM   27  C10   D T9000      -9.610   1.505  -8.116  1.00 45.06     0.292 C 
HETATM   28  N25   D T9000      -8.442   1.066  -7.299  1.00 46.53     0.339 N 
HETATM   29  C11   D T9000      -7.949   2.127  -6.373  1.00 45.16     0.292 C 
HETATM   30  C9    D T9000      -9.068   2.679  -5.460  1.00 43.46     0.063 C 
ENDBRANCH  23  25
ENDBRANCH   7  20
TORSDOF 5
ENDMDL
MODEL 2
REMARK VINA RESULT:    -8.416      3.363      4.963
REMARK INTER + INTRA:         -11.738
REMARK INTER:                 -11.072
REMARK INTRA:                  -0.666
REMARK UNBOUND:                -0.862
REMARK  5 active torsions:
REMARK  status: ('A' for Active; 'I' for Inactive)
REMARK    1  A    between atoms: C17_7  and  C21_10 
REMARK    2  A    between atoms: C21_10  and  O27_12 
REMARK    3  A    between atoms: O27_12  and  C15_13 
REMARK    4  A    between atoms: C14_19  and  C16_20 
REMARK    5  A    between atoms: N26_23  and  C20_25 
ROOT
HETATM    1  C15   D T9000     -11.789   4.948  -3.763  1.00 25.51     0.125 A 
HETATM    2  C4    D T9000     -12.018   3.915  -4.736  1.00 26.27     0.029 A 
HETATM    3  C19   D T9000     -10.460   5.490  -3.729  1.00 24.04     0.173 A 
HETATM    4  N22   D T9000     -10.163   6.509  -2.802  1.00 22.39    -0.078 NA
HETATM    5  N23   D T9000      -9.447   5.086  -4.542  1.00 23.93    -0.228 NA
HETATM    6  C5    D T9000      -9.697   4.101  -5.458  1.00 26.12     0.100 A 
HETATM    7  C14   D T9000     -10.971   3.469  -5.603  1.00 28.08     0.024 A 
ENDROOT
BRANCH   1   8
HETATM    8  O27   D T9000     -12.756   5.465  -2.885  1.00 26.96    -0.326 OA
BRANCH   8   9
HETATM    9  C21   D T9000     -14.016   4.811  -2.489  1.00 29.02     0.145 C 
HETATM   10  C1    D T9000     -15.064   5.291  -3.505  1.00 31.25     0.038 C 
BRANCH   9  11
HETATM   11  C17   D T9000     -14.485   5.122  -1.017  1.00 31.05     0.029 A 
HETATM   12  C13   D T9000     -15.291   4.145  -0.286  1.00 30.66     0.057 A 
HETATM   13 CL     D T9000     -15.784   2.614  -0.944  1.00 31.95    -0.083 Cl
HETATM   14  C3    D T9000     -15.721   4.423   1.044  1.00 30.41     0.013 A 
HETATM   15  C2    D T9000     -15.382   5.639   1.687  1.00 31.69     0.031 A 
HETATM   16  C12   D T9000     -14.604   6.616   1.014  1.00 33.21     0.150 A 
HETATM   17  F     D T9000     -14.311   7.752   1.659  1.00 33.89    -0.203 F 
HETATM   18  C18   D T9000     -14.143   6.380  -0.333  1.00 33.60     0.084 A 
HETATM   19 CL2    D T9000     -13.184   7.648  -1.082  1.00 45.49    -0.080 Cl
ENDBRANCH   9  11
ENDBRANCH   8   9
ENDBRANCH   1   8
BRANCH   7  20
HETATM   20  C16   D T9000     -11.240   2.374  -6.618  1.00 30.74     0.041 A 
HETATM   21  C6    D T9000     -10.358   1.953  -7.708  1.00 33.28     0.122 A 
HETATM   22  N24   D T9000     -10.916   1.005  -8.359  1.00 35.40    -0.168 NA
HETATM   23  N26   D T9000     -12.061   0.733  -7.845  1.00 35.93    -0.252 N 
HETATM   24  C7    D T9000     -12.360   1.551  -6.730  1.00 33.34     0.097 A 
BRANCH  23  25
HETATM   25  C20   D T9000     -12.921  -0.333  -8.411  1.00 41.25     0.110 C 
HETATM   26  C8    D T9000     -13.211  -1.419  -7.353  1.00 43.15     0.063 C 
HETATM   27  C10   D T9000     -14.113  -2.513  -7.970  1.00 45.06     0.292 C 
HETATM   28  N25   D T9000     -13.535  -3.088  -9.220  1.00 46.53     0.339 N 
HETATM   29  C11   D T9000     -13.201  -2.049 -10.237  1.00 45.16     0.292 C 
HETATM   30  C9    D T9000     -12.275  -0.947  -9.673  1.00 43.46     0.063 C 
ENDBRANCH  23  25
ENDBRANCH   7  20
TORSDOF 5
ENDMDL
MODEL 3
REMARK VINA RESULT:    -8.355      1.916      2.715
REMARK INTER + INTRA:         -11.659
REMARK INTER:                 -10.674
REMARK INTRA:                  -0.985
REMARK UNBOUND:                -0.862
REMARK  5 active torsions:
REMARK  status: ('A' for Active; 'I' for Inactive)
REMARK    1  A    between atoms: C17_7  and  C21_10 
REMARK    2  A    between atoms: C21_10  and  O27_12 
REMARK    3  A    between atoms: O27_12  and  C15_13 
REMARK    4  A    between atoms: C14_19  and  C16_20 
REMARK    5  A    between atoms: N26_23  and  C20_25 
ROOT
HETATM    1  C15   D T9000     -15.187   5.082   0.608  1.00 25.51     0.125 A 
HETATM    2  C4    D T9000     -14.771   4.364  -0.566  1.00 26.27     0.029 A 
HETATM    3  C19   D T9000     -14.719   6.436   0.710  1.00 24.04     0.173 A 
HETATM    4  N22   D T9000     -15.089   7.202   1.833  1.00 22.39    -0.078 NA
HETATM    5  N23   D T9000     -13.932   7.046  -0.217  1.00 23.93    -0.228 NA
HETATM    6  C5    D T9000     -13.554   6.336  -1.323  1.00 26.12     0.100 A 
HETATM    7  C14   D T9000     -13.943   4.980  -1.556  1.00 28.08     0.024 A 
ENDROOT
BRANCH   1   8
HETATM    8  O27   D T9000     -16.015   4.571   1.621  1.00 26.96    -0.326 OA
BRANCH   8   9
HETATM    9  C21   D T9000     -17.395   4.994   1.917  1.00 29.02     0.145 C 
HETATM   10  C1    D T9000     -17.934   3.960   2.917  1.00 31.25     0.038 C 
BRANCH   9  11
HETATM   11  C17   D T9000     -18.338   5.093   0.658  1.00 31.05     0.029 A 
HETATM   12  C13   D T9000     -19.023   6.350   0.357  1.00 30.66     0.057 A 
HETATM   13 CL     D T9000     -18.866   7.789   1.317  1.00 31.95    -0.083 Cl
HETATM   14  C3    D T9000     -19.879   6.444  -0.779  1.00 30.41     0.013 A 
HETATM   15  C2    D T9000     -20.087   5.336  -1.636  1.00 31.69     0.031 A 
HETATM   16  C12   D T9000     -19.445   4.097  -1.380  1.00 33.21     0.150 A 
HETATM   17  F     D T9000     -19.673   3.076  -2.215  1.00 33.89    -0.203 F 
HETATM   18  C18   D T9000     -18.567   3.953  -0.244  1.00 33.60     0.084 A 
HETATM   19 CL2    D T9000     -17.815   2.381  -0.011  1.00 45.49    -0.080 Cl
ENDBRANCH   9  11
ENDBRANCH   8   9
ENDBRANCH   1   8
BRANCH   7  20
HETATM   20  C16   D T9000     -13.516   4.197  -2.784  1.00 30.74     0.041 A 
HETATM   21  C6    D T9000     -14.056   2.914  -3.237  1.00 33.28     0.122 A 
HETATM   22  N24   D T9000     -13.454   2.558  -4.307  1.00 35.40    -0.168 NA
HETATM   23  N26   D T9000     -12.578   3.438  -4.632  1.00 35.93    -0.252 N 
HETATM   24  C7    D T9000     -12.541   4.523  -3.725  1.00 33.34     0.097 A 
BRANCH  23  25
HETATM   25  C20   D T9000     -11.735   3.270  -5.840  1.00 41.25     0.110 C 
HETATM   26  C8    D T9000     -12.198   2.048  -6.662  1.00 43.15     0.063 C 
HETATM   27  C10   D T9000     -11.304   1.901  -7.916  1.00 45.06     0.292 C 
HETATM   28  N25   D T9000      -9.854   1.832  -7.575  1.00 46.53     0.339 N 
HETATM   29  C11   D T9000      -9.397   2.979  -6.738  1.00 45.16     0.292 C 
HETATM   30  C9    D T9000     -10.244   3.147  -5.455  1.00 43.46     0.063 C 
ENDBRANCH  23  25
ENDBRANCH   7  20
TORSDOF 5
ENDMDL
MODEL 4
REMARK VINA RESULT:    -8.257      3.947      6.325
REMARK INTER + INTRA:         -11.532
REMARK INTER:                 -10.853
REMARK INTRA:                  -0.679
REMARK UNBOUND:                -0.862
REMARK  5 active torsions:
REMARK  status: ('A' for Active; 'I' for Inactive)
REMARK    1  A    between atoms: C17_7  and  C21_10 
REMARK    2  A    between atoms: C21_10  and  O27_12 
REMARK    3  A    between atoms: O27_12  and  C15_13 
REMARK    4  A    between atoms: C14_19  and  C16_20 
REMARK    5  A    between atoms: N26_23  and  C20_25 
ROOT
HETATM    1  C15   D T9000     -11.553   3.775  -5.179  1.00 25.51     0.125 A 
HETATM    2  C4    D T9000     -12.211   2.757  -5.952  1.00 26.27     0.029 A 
HETATM    3  C19   D T9000     -10.160   3.972  -5.466  1.00 24.04     0.173 A 
HETATM    4  N22   D T9000      -9.451   4.955  -4.749  1.00 22.39    -0.078 NA
HETATM    5  N23   D T9000      -9.462   3.268  -6.397  1.00 23.93    -0.228 NA
HETATM    6  C5    D T9000     -10.117   2.306  -7.116  1.00 26.12     0.100 A 
HETATM    7  C14   D T9000     -11.502   2.000  -6.937  1.00 28.08     0.024 A 
ENDROOT
BRANCH   1   8
HETATM    8  O27   D T9000     -12.168   4.581  -4.209  1.00 26.96    -0.326 OA
BRANCH   8   9
HETATM    9  C21   D T9000     -13.569   4.495  -3.761  1.00 29.02     0.145 C 
HETATM   10  C1    D T9000     -14.382   5.280  -4.802  1.00 31.25     0.038 C 
BRANCH   9  11
HETATM   11  C17   D T9000     -13.834   5.055  -2.312  1.00 31.05     0.029 A 
HETATM   12  C13   D T9000     -13.361   6.390  -1.947  1.00 30.66     0.057 A 
HETATM   13 CL     D T9000     -12.501   7.440  -3.033  1.00 31.95    -0.083 Cl
HETATM   14  C3    D T9000     -13.594   6.900  -0.636  1.00 30.41     0.013 A 
HETATM   15  C2    D T9000     -14.283   6.135   0.337  1.00 31.69     0.031 A 
HETATM   16  C12   D T9000     -14.757   4.835   0.027  1.00 33.21     0.150 A 
HETATM   17  F     D T9000     -15.400   4.148   0.979  1.00 33.89    -0.203 F 
HETATM   18  C18   D T9000     -14.547   4.276  -1.286  1.00 33.60     0.084 A 
HETATM   19 CL2    D T9000     -15.173   2.659  -1.576  1.00 45.49    -0.080 Cl
ENDBRANCH   9  11
ENDBRANCH   8   9
ENDBRANCH   1   8
BRANCH   7  20
HETATM   20  C16   D T9000     -12.221   0.929  -7.736  1.00 30.74     0.041 A 
HETATM   21  C6    D T9000     -13.652   0.621  -7.700  1.00 33.28     0.122 A 
HETATM   22  N24   D T9000     -13.896  -0.343  -8.505  1.00 35.40    -0.168 NA
HETATM   23  N26   D T9000     -12.811  -0.722  -9.078  1.00 35.93    -0.252 N 
HETATM   24  C7    D T9000     -11.688   0.028  -8.656  1.00 33.34     0.097 A 
BRANCH  23  25
HETATM   25  C20   D T9000     -12.812  -1.828 -10.064  1.00 41.25     0.110 C 
HETATM   26  C8    D T9000     -11.630  -1.685 -11.046  1.00 43.15     0.063 C 
HETATM   27  C10   D T9000     -11.654  -2.855 -12.058  1.00 45.06     0.292 C 
HETATM   28  N25   D T9000     -12.963  -2.966 -12.766  1.00 46.53     0.339 N 
HETATM   29  C11   D T9000     -14.123  -3.056 -11.833  1.00 45.16     0.292 C 
HETATM   30  C9    D T9000     -14.158  -1.888 -10.821  1.00 43.46     0.063 C 
ENDBRANCH  23  25
ENDBRANCH   7  20
TORSDOF 5
ENDMDL
MODEL 5
REMARK VINA RESULT:    -8.222      2.880      4.603
REMARK INTER + INTRA:         -11.486
REMARK INTER:                 -10.825
REMARK INTRA:                  -0.662
REMARK UNBOUND:                -0.862
REMARK  5 active torsions:
REMARK  status: ('A' for Active; 'I' for Inactive)
REMARK    1  A    between atoms: C17_7  and  C21_10 
REMARK    2  A    between atoms: C21_10  and  O27_12 
REMARK    3  A    between atoms: O27_12  and  C15_13 
REMARK    4  A    between atoms: C14_19  and  C16_20 
REMARK    5  A    between atoms: N26_23  and  C20_25 
ROOT
HETATM    1  C15   D T9000     -12.323   5.455  -3.480  1.00 25.51     0.125 A 
HETATM    2  C4    D T9000     -12.429   4.400  -4.452  1.00 26.27     0.029 A 
HETATM    3  C19   D T9000     -11.004   5.985  -3.276  1.00 24.04     0.173 A 
HETATM    4  N22   D T9000     -10.824   7.022  -2.341  1.00 22.39    -0.078 NA
HETATM    5  N23   D T9000      -9.895   5.551  -3.933  1.00 23.93    -0.228 NA
HETATM    6  C5    D T9000     -10.029   4.546  -4.851  1.00 26.12     0.100 A 
HETATM    7  C14   D T9000     -11.279   3.923  -5.156  1.00 28.08     0.024 A 
ENDROOT
BRANCH   1   8
HETATM    8  O27   D T9000     -13.394   6.003  -2.757  1.00 26.96    -0.326 OA
BRANCH   8   9
HETATM    9  C21   D T9000     -13.701   5.764  -1.335  1.00 29.02     0.145 C 
HETATM   10  C1    D T9000     -13.202   4.342  -1.041  1.00 31.25     0.038 C 
BRANCH   9  11
HETATM   11  C17   D T9000     -15.225   5.907  -0.957  1.00 31.05     0.029 A 
HETATM   12  C13   D T9000     -15.639   6.882   0.051  1.00 30.66     0.057 A 
HETATM   13 CL     D T9000     -14.536   7.931   0.889  1.00 31.95    -0.083 Cl
HETATM   14  C3    D T9000     -17.015   7.013   0.399  1.00 30.41     0.013 A 
HETATM   15  C2    D T9000     -18.007   6.211  -0.216  1.00 31.69     0.031 A 
HETATM   16  C12   D T9000     -17.650   5.251  -1.197  1.00 33.21     0.150 A 
HETATM   17  F     D T9000     -18.621   4.513  -1.749  1.00 33.89    -0.203 F 
HETATM   18  C18   D T9000     -16.271   5.083  -1.585  1.00 33.60     0.084 A 
HETATM   19 CL2    D T9000     -15.927   3.870  -2.810  1.00 45.49    -0.080 Cl
ENDBRANCH   9  11
ENDBRANCH   8   9
ENDBRANCH   1   8
BRANCH   7  20
HETATM   20  C16   D T9000     -11.420   2.807  -6.173  1.00 30.74     0.041 A 
HETATM   21  C6    D T9000     -10.419   2.381  -7.152  1.00 33.28     0.122 A 
HETATM   22  N24   D T9000     -10.889   1.412  -7.842  1.00 35.40    -0.168 NA
HETATM   23  N26   D T9000     -12.079   1.131  -7.451  1.00 35.93    -0.252 N 
HETATM   24  C7    D T9000     -12.509   1.964  -6.391  1.00 33.34     0.097 A 
BRANCH  23  25
HETATM   25  C20   D T9000     -12.857   0.042  -8.086  1.00 41.25     0.110 C 
HETATM   26  C8    D T9000     -13.178  -1.068  -7.062  1.00 43.15     0.063 C 
HETATM   27  C10   D T9000     -13.993  -2.187  -7.752  1.00 45.06     0.292 C 
HETATM   28  N25   D T9000     -13.309  -2.723  -8.965  1.00 46.53     0.339 N 
HETATM   29  C11   D T9000     -12.946  -1.659  -9.946  1.00 45.16     0.292 C 
HETATM   30  C9    D T9000     -12.103  -0.531  -9.307  1.00 43.46     0.063 C 
ENDBRANCH  23  25
ENDBRANCH   7  20
TORSDOF 5
ENDMDL
MODEL 6
REMARK VINA RESULT:    -8.212      4.146      6.427
REMARK INTER + INTRA:         -11.474
REMARK INTER:                 -10.755
REMARK INTRA:                  -0.719
REMARK UNBOUND:                -0.862
REMARK  5 active torsions:
REMARK  status: ('A' for Active; 'I' for Inactive)
REMARK    1  A    between atoms: C17_7  and  C21_10 
REMARK    2  A    between atoms: C21_10  and  O27_12 
REMARK    3  A    between atoms: O27_12  and  C15_13 
REMARK    4  A    between atoms: C14_19  and  C16_20 
REMARK    5  A    between atoms: N26_23  and  C20_25 
ROOT
HETATM    1  C15   D T9000     -11.597   3.827  -5.223  1.00 25.51     0.125 A 
HETATM    2  C4    D T9000     -12.220   2.808  -6.022  1.00 26.27     0.029 A 
HETATM    3  C19   D T9000     -10.183   3.989  -5.410  1.00 24.04     0.173 A 
HETATM    4  N22   D T9000      -9.505   4.971  -4.662  1.00 22.39    -0.078 NA
HETATM    5  N23   D T9000      -9.435   3.250  -6.273  1.00 23.93    -0.228 NA
HETATM    6  C5    D T9000     -10.058   2.288  -7.020  1.00 26.12     0.100 A 
HETATM    7  C14   D T9000     -11.459   2.015  -6.937  1.00 28.08     0.024 A 
ENDROOT
BRANCH   1   8
HETATM    8  O27   D T9000     -12.263   4.667  -4.315  1.00 26.96    -0.326 OA
BRANCH   8   9
HETATM    9  C21   D T9000     -13.602   4.447  -3.742  1.00 29.02     0.145 C 
HETATM   10  C1    D T9000     -14.588   5.015  -4.774  1.00 31.25     0.038 C 
BRANCH   9  11
HETATM   11  C17   D T9000     -13.832   5.111  -2.331  1.00 31.05     0.029 A 
HETATM   12  C13   D T9000     -14.525   4.369  -1.279  1.00 30.66     0.057 A 
HETATM   13 CL     D T9000     -15.133   2.754  -1.477  1.00 31.95    -0.083 Cl
HETATM   14  C3    D T9000     -14.738   4.966  -0.002  1.00 30.41     0.013 A 
HETATM   15  C2    D T9000     -14.289   6.280   0.278  1.00 31.69     0.031 A 
HETATM   16  C12   D T9000     -13.614   7.037  -0.714  1.00 33.21     0.150 A 
HETATM   17  F     D T9000     -13.210   8.275  -0.405  1.00 33.89    -0.203 F 
HETATM   18  C18   D T9000     -13.372   6.475  -2.020  1.00 33.60     0.084 A 
HETATM   19 CL2    D T9000     -12.526   7.488  -3.182  1.00 45.49    -0.080 Cl
ENDBRANCH   9  11
ENDBRANCH   8   9
ENDBRANCH   1   8
BRANCH   7  20
HETATM   20  C16   D T9000     -12.143   0.944  -7.766  1.00 30.74     0.041 A 
HETATM   21  C6    D T9000     -13.577   0.658  -7.819  1.00 33.28     0.122 A 
HETATM   22  N24   D T9000     -13.784  -0.314  -8.623  1.00 35.40    -0.168 NA
HETATM   23  N26   D T9000     -12.671  -0.718  -9.120  1.00 35.93    -0.252 N 
HETATM   24  C7    D T9000     -11.565   0.020  -8.636  1.00 33.34     0.097 A 
BRANCH  23  25
HETATM   25  C20   D T9000     -12.627  -1.840 -10.087  1.00 41.25     0.110 C 
HETATM   26  C8    D T9000     -11.527  -1.604 -11.145  1.00 43.15     0.063 C 
HETATM   27  C10   D T9000     -11.501  -2.791 -12.136  1.00 45.06     0.292 C 
HETATM   28  N25   D T9000     -12.834  -3.041 -12.758  1.00 46.53     0.339 N 
HETATM   29  C11   D T9000     -13.921  -3.222 -11.752  1.00 45.16     0.292 C 
HETATM   30  C9    D T9000     -14.005  -2.042 -10.756  1.00 43.46     0.063 C 
ENDBRANCH  23  25
ENDBRANCH   7  20
TORSDOF 5
ENDMDL
MODEL 7
REMARK VINA RESULT:    -8.115      4.480      9.159
REMARK INTER + INTRA:         -11.349
REMARK INTER:                 -11.300
REMARK INTRA:                  -0.049
REMARK UNBOUND:                -0.862
REMARK  5 active torsions:
REMARK  status: ('A' for Active; 'I' for Inactive)
REMARK    1  A    between atoms: C17_7  and  C21_10 
REMARK    2  A    between atoms: C21_10  and  O27_12 
REMARK    3  A    between atoms: O27_12  and  C15_13 
REMARK    4  A    between atoms: C14_19  and  C16_20 
REMARK    5  A    between atoms: N26_23  and  C20_25 
ROOT
HETATM    1  C15   D T9000     -11.629   3.861  -5.123  1.00 25.51     0.125 A 
HETATM    2  C4    D T9000     -12.438   4.429  -4.079  1.00 26.27     0.029 A 
HETATM    3  C19   D T9000     -10.253   4.270  -5.139  1.00 24.04     0.173 A 
HETATM    4  N22   D T9000      -9.400   3.752  -6.133  1.00 22.39    -0.078 NA
HETATM    5  N23   D T9000      -9.701   5.137  -4.247  1.00 23.93    -0.228 NA
HETATM    6  C5    D T9000     -10.497   5.659  -3.265  1.00 26.12     0.100 A 
HETATM    7  C14   D T9000     -11.885   5.343  -3.128  1.00 28.08     0.024 A 
ENDROOT
BRANCH   1   8
HETATM    8  O27   D T9000     -12.076   2.942  -6.086  1.00 26.96    -0.326 OA
BRANCH   8   9
HETATM    9  C21   D T9000     -13.256   2.067  -5.978  1.00 29.02     0.145 C 
HETATM   10  C1    D T9000     -13.136   1.385  -4.606  1.00 31.25     0.038 C 
BRANCH   9  11
HETATM   11  C17   D T9000     -13.387   0.992  -7.123  1.00 31.05     0.029 A 
HETATM   12  C13   D T9000     -14.631   0.239  -7.280  1.00 30.66     0.057 A 
HETATM   13 CL     D T9000     -16.023   0.453  -6.263  1.00 31.95    -0.083 Cl
HETATM   14  C3    D T9000     -14.753  -0.736  -8.312  1.00 30.41     0.013 A 
HETATM   15  C2    D T9000     -13.684  -1.000  -9.203  1.00 31.69     0.031 A 
HETATM   16  C12   D T9000     -12.458  -0.295  -9.086  1.00 33.21     0.150 A 
HETATM   17  F     D T9000     -11.475  -0.580  -9.949  1.00 33.89    -0.203 F 
HETATM   18  C18   D T9000     -12.287   0.703  -8.059  1.00 33.60     0.084 A 
HETATM   19 CL2    D T9000     -10.734   1.525  -7.994  1.00 45.49    -0.080 Cl
ENDBRANCH   9  11
ENDBRANCH   8   9
ENDBRANCH   1   8
BRANCH   7  20
HETATM   20  C16   D T9000     -12.762   5.930  -2.038  1.00 30.74     0.041 A 
HETATM   21  C6    D T9000     -12.784   7.322  -1.585  1.00 33.28     0.122 A 
HETATM   22  N24   D T9000     -13.648   7.446  -0.650  1.00 35.40    -0.168 NA
HETATM   23  N26   D T9000     -14.211   6.316  -0.418  1.00 35.93    -0.252 N 
HETATM   24  C7    D T9000     -13.715   5.285  -1.251  1.00 33.34     0.097 A 
BRANCH  23  25
HETATM   25  C20   D T9000     -15.256   6.180   0.624  1.00 41.25     0.110 C 
HETATM   26  C8    D T9000     -15.576   4.692   0.885  1.00 43.15     0.063 C 
HETATM   27  C10   D T9000     -16.664   4.582   1.978  1.00 45.06     0.292 C 
HETATM   28  N25   D T9000     -17.887   5.369   1.644  1.00 46.53     0.339 N 
HETATM   29  C11   D T9000     -17.592   6.800   1.339  1.00 45.16     0.292 C 
HETATM   30  C9    D T9000     -16.529   6.960   0.228  1.00 43.46     0.063 C 
ENDBRANCH  23  25
ENDBRANCH   7  20
TORSDOF 5
ENDMDL
MODEL 8
REMARK VINA RESULT:    -8.092      1.676      2.627
REMARK INTER + INTRA:         -11.319
REMARK INTER:                 -10.506
REMARK INTRA:                  -0.813
REMARK UNBOUND:                -0.862
REMARK  5 active torsions:
REMARK  status: ('A' for Active; 'I' for Inactive)
REMARK    1  A    between atoms: C17_7  and  C21_10 
REMARK    2  A    between atoms: C21_10  and  O27_12 
REMARK    3  A    between atoms: O27_12  and  C15_13 
REMARK    4  A    between atoms: C14_19  and  C16_20 
REMARK    5  A    between atoms: N26_23  and  C20_25 
ROOT
HETATM    1  C15   D T9000     -14.529   5.971  -0.962  1.00 25.51     0.125 A 
HETATM    2  C4    D T9000     -13.885   5.261  -2.034  1.00 26.27     0.029 A 
HETATM    3  C19   D T9000     -13.903   7.201  -0.565  1.00 24.04     0.173 A 
HETATM    4  N22   D T9000     -14.480   7.952   0.478  1.00 22.39    -0.078 NA
HETATM    5  N23   D T9000     -12.774   7.704  -1.132  1.00 23.93    -0.228 NA
HETATM    6  C5    D T9000     -12.186   7.005  -2.150  1.00 26.12     0.100 A 
HETATM    7  C14   D T9000     -12.696   5.766  -2.649  1.00 28.08     0.024 A 
ENDROOT
BRANCH   1   8
HETATM    8  O27   D T9000     -15.707   5.568  -0.313  1.00 26.96    -0.326 OA
BRANCH   8   9
HETATM    9  C21   D T9000     -17.065   5.577  -0.883  1.00 29.02     0.145 C 
HETATM   10  C1    D T9000     -17.835   6.644  -0.091  1.00 31.25     0.038 C 
BRANCH   9  11
HETATM   11  C17   D T9000     -17.815   4.191  -0.823  1.00 31.05     0.029 A 
HETATM   12  C13   D T9000     -18.108   3.575   0.470  1.00 30.66     0.057 A 
HETATM   13 CL     D T9000     -17.678   4.285   1.997  1.00 31.95    -0.083 Cl
HETATM   14  C3    D T9000     -18.782   2.321   0.530  1.00 30.41     0.013 A 
HETATM   15  C2    D T9000     -19.182   1.645  -0.649  1.00 31.69     0.031 A 
HETATM   16  C12   D T9000     -18.915   2.205  -1.925  1.00 33.21     0.150 A 
HETATM   17  F     D T9000     -19.309   1.530  -3.011  1.00 33.89    -0.203 F 
HETATM   18  C18   D T9000     -18.238   3.474  -2.037  1.00 33.60     0.084 A 
HETATM   19 CL2    D T9000     -17.955   4.087  -3.660  1.00 45.49    -0.080 Cl
ENDBRANCH   9  11
ENDBRANCH   8   9
ENDBRANCH   1   8
BRANCH   7  20
HETATM   20  C16   D T9000     -12.037   4.994  -3.776  1.00 30.74     0.041 A 
HETATM   21  C6    D T9000     -10.610   4.966  -4.102  1.00 33.28     0.122 A 
HETATM   22  N24   D T9000     -10.424   4.209  -5.115  1.00 35.40    -0.168 NA
HETATM   23  N26   D T9000     -11.544   3.723  -5.512  1.00 35.93    -0.252 N 
HETATM   24  C7    D T9000     -12.633   4.162  -4.723  1.00 33.34     0.097 A 
BRANCH  23  25
HETATM   25  C20   D T9000     -11.612   2.808  -6.676  1.00 41.25     0.110 C 
HETATM   26  C8    D T9000     -12.620   1.668  -6.415  1.00 43.15     0.063 C 
HETATM   27  C10   D T9000     -12.673   0.734  -7.647  1.00 45.06     0.292 C 
HETATM   28  N25   D T9000     -11.327   0.217  -8.026  1.00 46.53     0.339 N 
HETATM   29  C11   D T9000     -10.324   1.302  -8.234  1.00 45.16     0.292 C 
HETATM   30  C9    D T9000     -10.214   2.245  -7.014  1.00 43.46     0.063 C 
ENDBRANCH  23  25
ENDBRANCH   7  20
TORSDOF 5
ENDMDL
MODEL 9
REMARK VINA RESULT:    -8.049      4.251      9.388
REMARK INTER + INTRA:         -11.264
REMARK INTER:                 -11.449
REMARK INTRA:                   0.185
REMARK UNBOUND:                -0.862
REMARK  5 active torsions:
REMARK  status: ('A' for Active; 'I' for Inactive)
REMARK    1  A    between atoms: C17_7  and  C21_10 
REMARK    2  A    between atoms: C21_10  and  O27_12 
REMARK    3  A    between atoms: O27_12  and  C15_13 
REMARK    4  A    between atoms: C14_19  and  C16_20 
REMARK    5  A    between atoms: N26_23  and  C20_25 
ROOT
HETATM    1  C15   D T9000     -12.483   5.061  -3.333  1.00 25.51     0.125 A 
HETATM    2  C4    D T9000     -13.776   4.895  -2.728  1.00 26.27     0.029 A 
HETATM    3  C19   D T9000     -11.666   6.106  -2.781  1.00 24.04     0.173 A 
HETATM    4  N22   D T9000     -10.384   6.325  -3.323  1.00 22.39    -0.078 NA
HETATM    5  N23   D T9000     -12.045   6.913  -1.754  1.00 23.93    -0.228 NA
HETATM    6  C5    D T9000     -13.282   6.729  -1.200  1.00 26.12     0.100 A 
HETATM    7  C14   D T9000     -14.202   5.730  -1.647  1.00 28.08     0.024 A 
ENDROOT
BRANCH   1   8
HETATM    8  O27   D T9000     -11.970   4.279  -4.380  1.00 26.96    -0.326 OA
BRANCH   8   9
HETATM    9  C21   D T9000     -12.684   3.215  -5.107  1.00 29.02     0.145 C 
HETATM   10  C1    D T9000     -13.138   2.217  -4.031  1.00 31.25     0.038 C 
BRANCH   9  11
HETATM   11  C17   D T9000     -11.832   2.488  -6.215  1.00 31.05     0.029 A 
HETATM   12  C13   D T9000     -10.396   2.744  -6.318  1.00 30.66     0.057 A 
HETATM   13 CL     D T9000      -9.531   3.827  -5.270  1.00 31.95    -0.083 Cl
HETATM   14  C3    D T9000      -9.621   2.091  -7.321  1.00 30.41     0.013 A 
HETATM   15  C2    D T9000     -10.216   1.186  -8.235  1.00 31.69     0.031 A 
HETATM   16  C12   D T9000     -11.606   0.910  -8.173  1.00 33.21     0.150 A 
HETATM   17  F     D T9000     -12.124   0.051  -9.059  1.00 33.89    -0.203 F 
HETATM   18  C18   D T9000     -12.431   1.544  -7.174  1.00 33.60     0.084 A 
HETATM   19 CL2    D T9000     -14.142   1.137  -7.175  1.00 45.49    -0.080 Cl
ENDBRANCH   9  11
ENDBRANCH   8   9
ENDBRANCH   1   8
BRANCH   7  20
HETATM   20  C16   D T9000     -15.574   5.534  -1.030  1.00 30.74     0.041 A 
HETATM   21  C6    D T9000     -16.416   6.564  -0.421  1.00 33.28     0.122 A 
HETATM   22  N24   D T9000     -17.502   6.030  -0.007  1.00 35.40    -0.168 NA
HETATM   23  N26   D T9000     -17.497   4.771  -0.261  1.00 35.93    -0.252 N 
HETATM   24  C7    D T9000     -16.312   4.357  -0.913  1.00 33.34     0.097 A 
BRANCH  23  25
HETATM   25  C20   D T9000     -18.642   3.910   0.116  1.00 41.25     0.110 C 
HETATM   26  C8    D T9000     -18.970   4.065   1.618  1.00 43.15     0.063 C 
HETATM   27  C10   D T9000     -20.170   3.159   1.980  1.00 45.06     0.292 C 
HETATM   28  N25   D T9000     -19.942   1.734   1.599  1.00 46.53     0.339 N 
HETATM   29  C11   D T9000     -19.575   1.568   0.163  1.00 45.16     0.292 C 
HETATM   30  C9    D T9000     -18.359   2.433  -0.239  1.00 43.46     0.063 C 
ENDBRANCH  23  25
ENDBRANCH   7  20
TORSDOF 5
ENDMDL
