MODEL 1
REMARK VINA RESULT:    -8.408      0.000      0.000
REMARK INTER + INTRA:         -11.785
REMARK INTER:                 -10.866
REMARK INTRA:                  -0.920
REMARK UNBOUND:                -0.920
REMARK  5 active torsions:
REMARK  status: ('A' for Active; 'I' for Inactive)
REMARK    1  A    between atoms: C17_7  and  C21_10 
REMARK    2  A    between atoms: C21_10  and  O27_12 
REMARK    3  A    between atoms: O27_12  and  C15_13 
REMARK    4  A    between atoms: C14_19  and  C16_20 
REMARK    5  A    between atoms: N26_23  and  C20_25 
ROOT
HETATM    1  C15   D T9000      -3.707   2.416  13.352  1.00 25.51     0.125 A 
HETATM    2  C4    D T9000      -2.732   1.585  14.004  1.00 26.27     0.029 A 
HETATM    3  C19   D T9000      -5.054   1.921  13.361  1.00 24.04     0.173 A 
HETATM    4  N22   D T9000      -6.064   2.684  12.743  1.00 22.39    -0.078 NA
HETATM    5  N23   D T9000      -5.436   0.749  13.935  1.00 23.93    -0.228 NA
HETATM    6  C5    D T9000      -4.485  -0.019  14.548  1.00 26.12     0.100 A 
HETATM    7  C14   D T9000      -3.103   0.346  14.615  1.00 28.08     0.024 A 
ENDROOT
BRANCH   1   8
HETATM    8  O27   D T9000      -3.442   3.655  12.745  1.00 26.96    -0.326 OA
BRANCH   8   9
HETATM    9  C21   D T9000      -2.259   4.503  12.972  1.00 29.02     0.145 C 
HETATM   10  C1    D T9000      -2.776   5.949  12.918  1.00 31.25     0.038 C 
BRANCH   9  11
HETATM   11  C17   D T9000      -1.087   4.292  11.940  1.00 31.05     0.029 A 
HETATM   12  C13   D T9000      -1.276   4.649  10.535  1.00 30.66     0.057 A 
HETATM   13 CL     D T9000      -2.750   5.313   9.898  1.00 31.95    -0.083 Cl
HETATM   14  C3    D T9000      -0.219   4.457   9.599  1.00 30.41     0.013 A 
HETATM   15  C2    D T9000       1.029   3.921  10.000  1.00 31.69     0.031 A 
HETATM   16  C12   D T9000       1.255   3.559  11.353  1.00 33.21     0.150 A 
HETATM   17  F     D T9000       2.450   3.052  11.686  1.00 33.89    -0.203 F 
HETATM   18  C18   D T9000       0.217   3.737  12.339  1.00 33.60     0.084 A 
HETATM   19 CL2    D T9000       0.593   3.260  13.988  1.00 45.49    -0.080 Cl
ENDBRANCH   9  11
ENDBRANCH   8   9
ENDBRANCH   1   8
BRANCH   7  20
HETATM   20  C16   D T9000      -2.053  -0.512  15.293  1.00 30.74     0.041 A 
HETATM   21  C6    D T9000      -0.603  -0.436  15.105  1.00 33.28     0.122 A 
HETATM   22  N24   D T9000      -0.036  -1.315  15.839  1.00 35.40    -0.168 NA
HETATM   23  N26   D T9000      -0.920  -1.974  16.499  1.00 35.93    -0.252 N 
HETATM   24  C7    D T9000      -2.236  -1.537  16.221  1.00 33.34     0.097 A 
BRANCH  23  25
HETATM   25  C20   D T9000      -0.529  -3.058  17.431  1.00 41.25     0.110 C 
HETATM   26  C8    D T9000       0.718  -3.802  16.907  1.00 43.15     0.063 C 
HETATM   27  C10   D T9000       1.105  -4.923  17.901  1.00 45.06     0.292 C 
HETATM   28  N25   D T9000      -0.029  -5.854  18.178  1.00 46.53     0.339 N 
HETATM   29  C11   D T9000      -1.260  -5.148  18.636  1.00 45.16     0.292 C 
HETATM   30  C9    D T9000      -1.703  -4.036  17.657  1.00 43.46     0.063 C 
ENDBRANCH  23  25
ENDBRANCH   7  20
TORSDOF 5
ENDMDL
MODEL 2
REMARK VINA RESULT:    -8.206      2.047      2.732
REMARK INTER + INTRA:         -11.524
REMARK INTER:                 -10.685
REMARK INTRA:                  -0.839
REMARK UNBOUND:                -0.920
REMARK  5 active torsions:
REMARK  status: ('A' for Active; 'I' for Inactive)
REMARK    1  A    between atoms: C17_7  and  C21_10 
REMARK    2  A    between atoms: C21_10  and  O27_12 
REMARK    3  A    between atoms: O27_12  and  C15_13 
REMARK    4  A    between atoms: C14_19  and  C16_20 
REMARK    5  A    between atoms: N26_23  and  C20_25 
ROOT
HETATM    1  C15   D T9000      -1.997   2.002  14.254  1.00 25.51     0.125 A 
HETATM    2  C4    D T9000      -1.477   0.821  14.889  1.00 26.27     0.029 A 
HETATM    3  C19   D T9000      -3.423   2.047  14.095  1.00 24.04     0.173 A 
HETATM    4  N22   D T9000      -4.004   3.175  13.483  1.00 22.39    -0.078 NA
HETATM    5  N23   D T9000      -4.271   1.065  14.500  1.00 23.93    -0.228 NA
HETATM    6  C5    D T9000      -3.745  -0.045  15.101  1.00 26.12     0.100 A 
HETATM    7  C14   D T9000      -2.345  -0.230  15.325  1.00 28.08     0.024 A 
ENDROOT
BRANCH   1   8
HETATM    8  O27   D T9000      -1.228   3.091  13.814  1.00 26.96    -0.326 OA
BRANCH   8   9
HETATM    9  C21   D T9000       0.170   3.045  13.354  1.00 29.02     0.145 C 
HETATM   10  C1    D T9000       0.998   3.655  14.495  1.00 31.25     0.038 C 
BRANCH   9  11
HETATM   11  C17   D T9000       0.445   3.804  12.000  1.00 31.05     0.029 A 
HETATM   12  C13   D T9000       1.224   3.158  10.945  1.00 30.66     0.057 A 
HETATM   13 CL     D T9000       1.891   1.559  11.078  1.00 31.95    -0.083 Cl
HETATM   14  C3    D T9000       1.477   3.842   9.720  1.00 30.41     0.013 A 
HETATM   15  C2    D T9000       0.986   5.151   9.496  1.00 31.69     0.031 A 
HETATM   16  C12   D T9000       0.227   5.816  10.493  1.00 33.21     0.150 A 
HETATM   17  F     D T9000      -0.213   7.056  10.238  1.00 33.89    -0.203 F 
HETATM   18  C18   D T9000      -0.057   5.165  11.748  1.00 33.60     0.084 A 
HETATM   19 CL2    D T9000      -1.005   6.069  12.920  1.00 45.49    -0.080 Cl
ENDBRANCH   9  11
ENDBRANCH   8   9
ENDBRANCH   1   8
BRANCH   7  20
HETATM   20  C16   D T9000      -1.768  -1.466  15.989  1.00 30.74     0.041 A 
HETATM   21  C6    D T9000      -0.370  -1.901  15.967  1.00 33.28     0.122 A 
HETATM   22  N24   D T9000      -0.258  -2.987  16.633  1.00 35.40    -0.168 NA
HETATM   23  N26   D T9000      -1.402  -3.337  17.100  1.00 35.93    -0.252 N 
HETATM   24  C7    D T9000      -2.429  -2.432  16.745  1.00 33.34     0.097 A 
BRANCH  23  25
HETATM   25  C20   D T9000      -1.552  -4.567  17.914  1.00 41.25     0.110 C 
HETATM   26  C8    D T9000      -3.036  -4.807  18.266  1.00 43.15     0.063 C 
HETATM   27  C10   D T9000      -3.163  -6.097  19.111  1.00 45.06     0.292 C 
HETATM   28  N25   D T9000      -2.295  -6.071  20.325  1.00 46.53     0.339 N 
HETATM   29  C11   D T9000      -0.865  -5.788  20.009  1.00 45.16     0.292 C 
HETATM   30  C9    D T9000      -0.685  -4.490  19.190  1.00 43.46     0.063 C 
ENDBRANCH  23  25
ENDBRANCH   7  20
TORSDOF 5
ENDMDL
MODEL 3
REMARK VINA RESULT:    -8.082      0.976      2.137
REMARK INTER + INTRA:         -11.364
REMARK INTER:                 -10.419
REMARK INTRA:                  -0.945
REMARK UNBOUND:                -0.920
REMARK  5 active torsions:
REMARK  status: ('A' for Active; 'I' for Inactive)
REMARK    1  A    between atoms: C17_7  and  C21_10 
REMARK    2  A    between atoms: C21_10  and  O27_12 
REMARK    3  A    between atoms: O27_12  and  C15_13 
REMARK    4  A    between atoms: C14_19  and  C16_20 
REMARK    5  A    between atoms: N26_23  and  C20_25 
ROOT
HETATM    1  C15   D T9000      -3.682   2.280  13.432  1.00 25.51     0.125 A 
HETATM    2  C4    D T9000      -2.730   1.412  14.070  1.00 26.27     0.029 A 
HETATM    3  C19   D T9000      -5.046   1.835  13.456  1.00 24.04     0.173 A 
HETATM    4  N22   D T9000      -6.035   2.636  12.852  1.00 22.39    -0.078 NA
HETATM    5  N23   D T9000      -5.464   0.676  14.031  1.00 23.93    -0.228 NA
HETATM    6  C5    D T9000      -4.534  -0.128  14.631  1.00 26.12     0.100 A 
HETATM    7  C14   D T9000      -3.140   0.186  14.683  1.00 28.08     0.024 A 
ENDROOT
BRANCH   1   8
HETATM    8  O27   D T9000      -3.379   3.510  12.825  1.00 26.96    -0.326 OA
BRANCH   8   9
HETATM    9  C21   D T9000      -2.267   4.409  13.181  1.00 29.02     0.145 C 
HETATM   10  C1    D T9000      -2.835   5.831  13.059  1.00 31.25     0.038 C 
BRANCH   9  11
HETATM   11  C17   D T9000      -0.976   4.247  12.293  1.00 31.05     0.029 A 
HETATM   12  C13   D T9000       0.252   3.713  12.877  1.00 30.66     0.057 A 
HETATM   13 CL     D T9000       0.398   3.226  14.539  1.00 31.95    -0.083 Cl
HETATM   14  C3    D T9000       1.423   3.568  12.078  1.00 30.41     0.013 A 
HETATM   15  C2    D T9000       1.427   3.934  10.709  1.00 31.69     0.031 A 
HETATM   16  C12   D T9000       0.257   4.458  10.101  1.00 33.21     0.150 A 
HETATM   17  F     D T9000       0.309   4.794   8.805  1.00 33.89    -0.203 F 
HETATM   18  C18   D T9000      -0.953   4.622  10.868  1.00 33.60     0.084 A 
HETATM   19 CL2    D T9000      -2.350   5.277  10.027  1.00 45.49    -0.080 Cl
ENDBRANCH   9  11
ENDBRANCH   8   9
ENDBRANCH   1   8
BRANCH   7  20
HETATM   20  C16   D T9000      -2.113  -0.713  15.346  1.00 30.74     0.041 A 
HETATM   21  C6    D T9000      -0.657  -0.571  15.291  1.00 33.28     0.122 A 
HETATM   22  N24   D T9000      -0.116  -1.511  15.967  1.00 35.40    -0.168 NA
HETATM   23  N26   D T9000      -1.023  -2.268  16.471  1.00 35.93    -0.252 N 
HETATM   24  C7    D T9000      -2.329  -1.843  16.134  1.00 33.34     0.097 A 
BRANCH  23  25
HETATM   25  C20   D T9000      -0.666  -3.440  17.305  1.00 41.25     0.110 C 
HETATM   26  C8    D T9000      -1.935  -4.196  17.753  1.00 43.15     0.063 C 
HETATM   27  C10   D T9000      -1.531  -5.415  18.617  1.00 45.06     0.292 C 
HETATM   28  N25   D T9000      -0.669  -5.032  19.773  1.00 46.53     0.339 N 
HETATM   29  C11   D T9000       0.538  -4.256  19.365  1.00 45.16     0.292 C 
HETATM   30  C9    D T9000       0.181  -3.009  18.523  1.00 43.46     0.063 C 
ENDBRANCH  23  25
ENDBRANCH   7  20
TORSDOF 5
ENDMDL
MODEL 4
REMARK VINA RESULT:    -7.907      4.882      7.208
REMARK INTER + INTRA:         -11.137
REMARK INTER:                 -10.741
REMARK INTRA:                  -0.397
REMARK UNBOUND:                -0.920
REMARK  5 active torsions:
REMARK  status: ('A' for Active; 'I' for Inactive)
REMARK    1  A    between atoms: C17_7  and  C21_10 
REMARK    2  A    between atoms: C21_10  and  O27_12 
REMARK    3  A    between atoms: O27_12  and  C15_13 
REMARK    4  A    between atoms: C14_19  and  C16_20 
REMARK    5  A    between atoms: N26_23  and  C20_25 
ROOT
HETATM    1  C15   D T9000       0.309   4.077  11.900  1.00 25.51     0.125 A 
HETATM    2  C4    D T9000       1.198   2.952  12.002  1.00 26.27     0.029 A 
HETATM    3  C19   D T9000       0.567   4.979  10.814  1.00 24.04     0.173 A 
HETATM    4  N22   D T9000      -0.267   6.103  10.650  1.00 22.39    -0.078 NA
HETATM    5  N23   D T9000       1.573   4.825   9.913  1.00 23.93    -0.228 NA
HETATM    6  C5    D T9000       2.401   3.744  10.036  1.00 26.12     0.100 A 
HETATM    7  C14   D T9000       2.266   2.764  11.069  1.00 28.08     0.024 A 
ENDROOT
BRANCH   1   8
HETATM    8  O27   D T9000      -0.777   4.331  12.753  1.00 26.96    -0.326 OA
BRANCH   8   9
HETATM    9  C21   D T9000      -2.203   4.305  12.383  1.00 29.02     0.145 C 
HETATM   10  C1    D T9000      -2.795   5.610  12.939  1.00 31.25     0.038 C 
BRANCH   9  11
HETATM   11  C17   D T9000      -3.003   3.058  12.922  1.00 31.05     0.029 A 
HETATM   12  C13   D T9000      -4.286   2.698  12.323  1.00 30.66     0.057 A 
HETATM   13 CL     D T9000      -5.021   3.575  11.015  1.00 31.95    -0.083 Cl
HETATM   14  C3    D T9000      -5.013   1.573  12.809  1.00 30.41     0.013 A 
HETATM   15  C2    D T9000      -4.516   0.782  13.874  1.00 31.69     0.031 A 
HETATM   16  C12   D T9000      -3.275   1.096  14.485  1.00 33.21     0.150 A 
HETATM   17  F     D T9000      -2.846   0.322  15.491  1.00 33.89    -0.203 F 
HETATM   18  C18   D T9000      -2.501   2.224  14.027  1.00 33.60     0.084 A 
HETATM   19 CL2    D T9000      -0.977   2.532  14.846  1.00 45.49    -0.080 Cl
ENDBRANCH   9  11
ENDBRANCH   8   9
ENDBRANCH   1   8
BRANCH   7  20
HETATM   20  C16   D T9000       3.192   1.569  11.202  1.00 30.74     0.041 A 
HETATM   21  C6    D T9000       3.334   0.697  12.370  1.00 33.28     0.122 A 
HETATM   22  N24   D T9000       4.208  -0.202  12.119  1.00 35.40    -0.168 NA
HETATM   23  N26   D T9000       4.671  -0.046  10.931  1.00 35.93    -0.252 N 
HETATM   24  C7    D T9000       4.086   1.056  10.264  1.00 33.34     0.097 A 
BRANCH  23  25
HETATM   25  C20   D T9000       5.703  -0.959  10.385  1.00 41.25     0.110 C 
HETATM   26  C8    D T9000       5.884  -2.186  11.305  1.00 43.15     0.063 C 
HETATM   27  C10   D T9000       6.962  -3.123  10.709  1.00 45.06     0.292 C 
HETATM   28  N25   D T9000       8.252  -2.416  10.455  1.00 46.53     0.339 N 
HETATM   29  C11   D T9000       8.090  -1.198   9.610  1.00 45.16     0.292 C 
HETATM   30  C9    D T9000       7.042  -0.217  10.183  1.00 43.46     0.063 C 
ENDBRANCH  23  25
ENDBRANCH   7  20
TORSDOF 5
ENDMDL
MODEL 5
REMARK VINA RESULT:    -7.857      1.897      2.323
REMARK INTER + INTRA:         -11.073
REMARK INTER:                 -10.332
REMARK INTRA:                  -0.742
REMARK UNBOUND:                -0.920
REMARK  5 active torsions:
REMARK  status: ('A' for Active; 'I' for Inactive)
REMARK    1  A    between atoms: C17_7  and  C21_10 
REMARK    2  A    between atoms: C21_10  and  O27_12 
REMARK    3  A    between atoms: O27_12  and  C15_13 
REMARK    4  A    between atoms: C14_19  and  C16_20 
REMARK    5  A    between atoms: N26_23  and  C20_25 
ROOT
HETATM    1  C15   D T9000      -1.938   1.670  14.319  1.00 25.51     0.125 A 
HETATM    2  C4    D T9000      -1.365   0.506  14.938  1.00 26.27     0.029 A 
HETATM    3  C19   D T9000      -3.370   1.757  14.360  1.00 24.04     0.173 A 
HETATM    4  N22   D T9000      -4.002   2.872  13.776  1.00 22.39    -0.078 NA
HETATM    5  N23   D T9000      -4.178   0.826  14.934  1.00 23.93    -0.228 NA
HETATM    6  C5    D T9000      -3.602  -0.270  15.515  1.00 26.12     0.100 A 
HETATM    7  C14   D T9000      -2.189  -0.491  15.549  1.00 28.08     0.024 A 
ENDROOT
BRANCH   1   8
HETATM    8  O27   D T9000      -1.211   2.709  13.716  1.00 26.96    -0.326 OA
BRANCH   8   9
HETATM    9  C21   D T9000       0.238   2.722  13.451  1.00 29.02     0.145 C 
HETATM   10  C1    D T9000       0.872   3.413  14.668  1.00 31.25     0.038 C 
BRANCH   9  11
HETATM   11  C17   D T9000       0.659   3.449  12.117  1.00 31.05     0.029 A 
HETATM   12  C13   D T9000       0.170   4.796  11.832  1.00 30.66     0.057 A 
HETATM   13 CL     D T9000      -0.876   5.688  12.895  1.00 31.95    -0.083 Cl
HETATM   14  C3    D T9000       0.546   5.455  10.626  1.00 30.41     0.013 A 
HETATM   15  C2    D T9000       1.395   4.828   9.680  1.00 31.69     0.031 A 
HETATM   16  C12   D T9000       1.890   3.520   9.915  1.00 33.21     0.150 A 
HETATM   17  F     D T9000       2.686   2.965   8.991  1.00 33.89    -0.203 F 
HETATM   18  C18   D T9000       1.540   2.813  11.122  1.00 33.60     0.084 A 
HETATM   19 CL2    D T9000       2.204   1.198  11.324  1.00 45.49    -0.080 Cl
ENDBRANCH   9  11
ENDBRANCH   8   9
ENDBRANCH   1   8
BRANCH   7  20
HETATM   20  C16   D T9000      -1.558  -1.711  16.192  1.00 30.74     0.041 A 
HETATM   21  C6    D T9000      -0.140  -2.077  16.173  1.00 33.28     0.122 A 
HETATM   22  N24   D T9000       0.022  -3.170  16.817  1.00 35.40    -0.168 NA
HETATM   23  N26   D T9000      -1.107  -3.586  17.267  1.00 35.93    -0.252 N 
HETATM   24  C7    D T9000      -2.176  -2.725  16.922  1.00 33.34     0.097 A 
BRANCH  23  25
HETATM   25  C20   D T9000      -1.203  -4.838  18.053  1.00 41.25     0.110 C 
HETATM   26  C8    D T9000      -0.160  -5.867  17.567  1.00 43.15     0.063 C 
HETATM   27  C10   D T9000      -0.280  -7.160  18.408  1.00 45.06     0.292 C 
HETATM   28  N25   D T9000      -1.664  -7.718  18.399  1.00 46.53     0.339 N 
HETATM   29  C11   D T9000      -2.694  -6.723  18.817  1.00 45.16     0.292 C 
HETATM   30  C9    D T9000      -2.631  -5.422  17.983  1.00 43.46     0.063 C 
ENDBRANCH  23  25
ENDBRANCH   7  20
TORSDOF 5
ENDMDL
MODEL 6
REMARK VINA RESULT:    -7.703      2.070      2.892
REMARK INTER + INTRA:         -10.874
REMARK INTER:                 -10.050
REMARK INTRA:                  -0.824
REMARK UNBOUND:                -0.920
REMARK  5 active torsions:
REMARK  status: ('A' for Active; 'I' for Inactive)
REMARK    1  A    between atoms: C17_7  and  C21_10 
REMARK    2  A    between atoms: C21_10  and  O27_12 
REMARK    3  A    between atoms: O27_12  and  C15_13 
REMARK    4  A    between atoms: C14_19  and  C16_20 
REMARK    5  A    between atoms: N26_23  and  C20_25 
ROOT
HETATM    1  C15   D T9000      -1.722   1.713  14.452  1.00 25.51     0.125 A 
HETATM    2  C4    D T9000      -1.141   0.536  15.037  1.00 26.27     0.029 A 
HETATM    3  C19   D T9000      -3.157   1.748  14.416  1.00 24.04     0.173 A 
HETATM    4  N22   D T9000      -3.796   2.873  13.858  1.00 22.39    -0.078 NA
HETATM    5  N23   D T9000      -3.960   0.759  14.890  1.00 23.93    -0.228 NA
HETATM    6  C5    D T9000      -3.376  -0.348  15.441  1.00 26.12     0.100 A 
HETATM    7  C14   D T9000      -1.960  -0.522  15.544  1.00 28.08     0.024 A 
ENDROOT
BRANCH   1   8
HETATM    8  O27   D T9000      -1.002   2.810  13.950  1.00 26.96    -0.326 OA
BRANCH   8   9
HETATM    9  C21   D T9000       0.401   2.803  13.503  1.00 29.02     0.145 C 
HETATM   10  C1    D T9000       1.186   3.532  14.604  1.00 31.25     0.038 C 
BRANCH   9  11
HETATM   11  C17   D T9000       0.652   3.478  12.101  1.00 31.05     0.029 A 
HETATM   12  C13   D T9000       1.478   2.804  11.102  1.00 30.66     0.057 A 
HETATM   13 CL     D T9000       2.231   1.258  11.355  1.00 31.95    -0.083 Cl
HETATM   14  C3    D T9000       1.709   3.413   9.834  1.00 30.41     0.013 A 
HETATM   15  C2    D T9000       1.150   4.674   9.512  1.00 31.69     0.031 A 
HETATM   16  C12   D T9000       0.343   5.364  10.453  1.00 33.21     0.150 A 
HETATM   17  F     D T9000      -0.162   6.556  10.106  1.00 33.89    -0.203 F 
HETATM   18  C18   D T9000       0.078   4.788  11.749  1.00 33.60     0.084 A 
HETATM   19 CL2    D T9000      -0.933   5.718  12.845  1.00 45.49    -0.080 Cl
ENDBRANCH   9  11
ENDBRANCH   8   9
ENDBRANCH   1   8
BRANCH   7  20
HETATM   20  C16   D T9000      -1.320  -1.754  16.154  1.00 30.74     0.041 A 
HETATM   21  C6    D T9000      -2.005  -2.840  16.858  1.00 33.28     0.122 A 
HETATM   22  N24   D T9000      -1.143  -3.707  17.234  1.00 35.40    -0.168 NA
HETATM   23  N26   D T9000       0.034  -3.343  16.872  1.00 35.93    -0.252 N 
HETATM   24  C7    D T9000       0.028  -2.111  16.176  1.00 33.34     0.097 A 
BRANCH  23  25
HETATM   25  C20   D T9000       1.222  -4.173  17.183  1.00 41.25     0.110 C 
HETATM   26  C8    D T9000       1.140  -5.533  16.458  1.00 43.15     0.063 C 
HETATM   27  C10   D T9000       2.393  -6.375  16.798  1.00 45.06     0.292 C 
HETATM   28  N25   D T9000       2.590  -6.534  18.269  1.00 46.53     0.339 N 
HETATM   29  C11   D T9000       2.621  -5.231  18.994  1.00 45.16     0.292 C 
HETATM   30  C9    D T9000       1.372  -4.366  18.708  1.00 43.46     0.063 C 
ENDBRANCH  23  25
ENDBRANCH   7  20
TORSDOF 5
ENDMDL
MODEL 7
REMARK VINA RESULT:    -7.347      4.992      7.714
REMARK INTER + INTRA:         -10.414
REMARK INTER:                 -10.149
REMARK INTRA:                  -0.264
REMARK UNBOUND:                -0.920
REMARK  5 active torsions:
REMARK  status: ('A' for Active; 'I' for Inactive)
REMARK    1  A    between atoms: C17_7  and  C21_10 
REMARK    2  A    between atoms: C21_10  and  O27_12 
REMARK    3  A    between atoms: O27_12  and  C15_13 
REMARK    4  A    between atoms: C14_19  and  C16_20 
REMARK    5  A    between atoms: N26_23  and  C20_25 
ROOT
HETATM    1  C15   D T9000       0.447   4.432  11.839  1.00 25.51     0.125 A 
HETATM    2  C4    D T9000       1.350   3.321  11.711  1.00 26.27     0.029 A 
HETATM    3  C19   D T9000       0.637   5.501  10.900  1.00 24.04     0.173 A 
HETATM    4  N22   D T9000      -0.214   6.622  10.964  1.00 22.39    -0.078 NA
HETATM    5  N23   D T9000       1.593   5.511   9.934  1.00 23.93    -0.228 NA
HETATM    6  C5    D T9000       2.437   4.439   9.838  1.00 26.12     0.100 A 
HETATM    7  C14   D T9000       2.367   3.304  10.705  1.00 28.08     0.024 A 
ENDROOT
BRANCH   1   8
HETATM    8  O27   D T9000      -0.593   4.528  12.777  1.00 26.96    -0.326 OA
BRANCH   8   9
HETATM    9  C21   D T9000      -2.015   4.227  12.540  1.00 29.02     0.145 C 
HETATM   10  C1    D T9000      -2.776   5.502  12.936  1.00 31.25     0.038 C 
BRANCH   9  11
HETATM   11  C17   D T9000      -2.568   2.981  13.330  1.00 31.05     0.029 A 
HETATM   12  C13   D T9000      -1.764   2.369  14.386  1.00 30.66     0.057 A 
HETATM   13 CL     D T9000      -0.188   2.935  14.850  1.00 31.95    -0.083 Cl
HETATM   14  C3    D T9000      -2.259   1.240  15.101  1.00 30.41     0.013 A 
HETATM   15  C2    D T9000      -3.531   0.688  14.811  1.00 31.69     0.031 A 
HETATM   16  C12   D T9000      -4.344   1.249  13.794  1.00 33.21     0.150 A 
HETATM   17  F     D T9000      -5.538   0.690  13.552  1.00 33.89    -0.203 F 
HETATM   18  C18   D T9000      -3.888   2.393  13.043  1.00 33.60     0.084 A 
HETATM   19 CL2    D T9000      -4.966   3.017  11.804  1.00 45.49    -0.080 Cl
ENDBRANCH   9  11
ENDBRANCH   8   9
ENDBRANCH   1   8
BRANCH   7  20
HETATM   20  C16   D T9000       3.309   2.120  10.594  1.00 30.74     0.041 A 
HETATM   21  C6    D T9000       2.934   0.715  10.422  1.00 33.28     0.122 A 
HETATM   22  N24   D T9000       3.993  -0.000  10.371  1.00 35.40    -0.168 NA
HETATM   23  N26   D T9000       5.032   0.745  10.487  1.00 35.93    -0.252 N 
HETATM   24  C7    D T9000       4.703   2.112  10.634  1.00 33.34     0.097 A 
BRANCH  23  25
HETATM   25  C20   D T9000       6.396   0.165  10.460  1.00 41.25     0.110 C 
HETATM   26  C8    D T9000       6.331  -1.376  10.391  1.00 43.15     0.063 C 
HETATM   27  C10   D T9000       7.767  -1.952  10.359  1.00 45.06     0.292 C 
HETATM   28  N25   D T9000       8.596  -1.476  11.505  1.00 46.53     0.339 N 
HETATM   29  C11   D T9000       8.629   0.011  11.620  1.00 45.16     0.292 C 
HETATM   30  C9    D T9000       7.214   0.630  11.685  1.00 43.46     0.063 C 
ENDBRANCH  23  25
ENDBRANCH   7  20
TORSDOF 5
ENDMDL
MODEL 8
REMARK VINA RESULT:    -7.234      4.084      7.557
REMARK INTER + INTRA:         -10.268
REMARK INTER:                  -9.760
REMARK INTRA:                  -0.508
REMARK UNBOUND:                -0.920
REMARK  5 active torsions:
REMARK  status: ('A' for Active; 'I' for Inactive)
REMARK    1  A    between atoms: C17_7  and  C21_10 
REMARK    2  A    between atoms: C21_10  and  O27_12 
REMARK    3  A    between atoms: O27_12  and  C15_13 
REMARK    4  A    between atoms: C14_19  and  C16_20 
REMARK    5  A    between atoms: N26_23  and  C20_25 
ROOT
HETATM    1  C15   D T9000       3.102   4.667  11.421  1.00 25.51     0.125 A 
HETATM    2  C4    D T9000       1.802   4.403  11.975  1.00 26.27     0.029 A 
HETATM    3  C19   D T9000       3.155   5.689  10.415  1.00 24.04     0.173 A 
HETATM    4  N22   D T9000       4.397   6.004   9.830  1.00 22.39    -0.078 NA
HETATM    5  N23   D T9000       2.076   6.390   9.977  1.00 23.93    -0.228 NA
HETATM    6  C5    D T9000       0.852   6.115  10.524  1.00 26.12     0.100 A 
HETATM    7  C14   D T9000       0.647   5.124  11.534  1.00 28.08     0.024 A 
ENDROOT
BRANCH   1   8
HETATM    8  O27   D T9000       4.292   4.028  11.806  1.00 26.96    -0.326 OA
BRANCH   8   9
HETATM    9  C21   D T9000       4.527   2.575  11.857  1.00 29.02     0.145 C 
HETATM   10  C1    D T9000       4.269   2.067  10.430  1.00 31.25     0.038 C 
BRANCH   9  11
HETATM   11  C17   D T9000       3.630   1.797  12.894  1.00 31.05     0.029 A 
HETATM   12  C13   D T9000       4.026   1.733  14.299  1.00 30.66     0.057 A 
HETATM   13 CL     D T9000       5.462   2.477  14.933  1.00 31.95    -0.083 Cl
HETATM   14  C3    D T9000       3.219   1.028  15.240  1.00 30.41     0.013 A 
HETATM   15  C2    D T9000       2.025   0.378  14.841  1.00 31.69     0.031 A 
HETATM   16  C12   D T9000       1.604   0.414  13.487  1.00 33.21     0.150 A 
HETATM   17  F     D T9000       0.470  -0.218  13.155  1.00 33.89    -0.203 F 
HETATM   18  C18   D T9000       2.385   1.116  12.498  1.00 33.60     0.084 A 
HETATM   19 CL2    D T9000       1.782   1.105  10.848  1.00 45.49    -0.080 Cl
ENDBRANCH   9  11
ENDBRANCH   8   9
ENDBRANCH   1   8
BRANCH   7  20
HETATM   20  C16   D T9000      -0.713   4.822  12.133  1.00 30.74     0.041 A 
HETATM   21  C6    D T9000      -1.805   5.773  12.352  1.00 33.28     0.122 A 
HETATM   22  N24   D T9000      -2.798   5.161  12.876  1.00 35.40    -0.168 NA
HETATM   23  N26   D T9000      -2.513   3.919  13.038  1.00 35.93    -0.252 N 
HETATM   24  C7    D T9000      -1.207   3.602  12.594  1.00 33.34     0.097 A 
BRANCH  23  25
HETATM   25  C20   D T9000      -3.494   2.979  13.629  1.00 41.25     0.110 C 
HETATM   26  C8    D T9000      -2.771   1.813  14.338  1.00 43.15     0.063 C 
HETATM   27  C10   D T9000      -3.819   0.852  14.949  1.00 45.06     0.292 C 
HETATM   28  N25   D T9000      -4.806   0.370  13.939  1.00 46.53     0.339 N 
HETATM   29  C11   D T9000      -5.478   1.482  13.206  1.00 45.16     0.292 C 
HETATM   30  C9    D T9000      -4.469   2.453  12.552  1.00 43.46     0.063 C 
ENDBRANCH  23  25
ENDBRANCH   7  20
TORSDOF 5
ENDMDL
MODEL 9
REMARK VINA RESULT:    -7.148      4.705      7.781
REMARK INTER + INTRA:         -10.157
REMARK INTER:                  -9.245
REMARK INTRA:                  -0.911
REMARK UNBOUND:                -0.920
REMARK  5 active torsions:
REMARK  status: ('A' for Active; 'I' for Inactive)
REMARK    1  A    between atoms: C17_7  and  C21_10 
REMARK    2  A    between atoms: C21_10  and  O27_12 
REMARK    3  A    between atoms: O27_12  and  C15_13 
REMARK    4  A    between atoms: C14_19  and  C16_20 
REMARK    5  A    between atoms: N26_23  and  C20_25 
ROOT
HETATM    1  C15   D T9000       2.774   4.321  10.641  1.00 25.51     0.125 A 
HETATM    2  C4    D T9000       1.499   3.987  11.214  1.00 26.27     0.029 A 
HETATM    3  C19   D T9000       2.909   5.666  10.159  1.00 24.04     0.173 A 
HETATM    4  N22   D T9000       4.133   6.065   9.588  1.00 22.39    -0.078 NA
HETATM    5  N23   D T9000       1.924   6.602  10.215  1.00 23.93    -0.228 NA
HETATM    6  C5    D T9000       0.722   6.253  10.766  1.00 26.12     0.100 A 
HETATM    7  C14   D T9000       0.443   4.950  11.286  1.00 28.08     0.024 A 
ENDROOT
BRANCH   1   8
HETATM    8  O27   D T9000       3.874   3.452  10.548  1.00 26.96    -0.326 OA
BRANCH   8   9
HETATM    9  C21   D T9000       4.550   2.775  11.668  1.00 29.02     0.145 C 
HETATM   10  C1    D T9000       5.696   3.711  12.082  1.00 31.25     0.038 C 
BRANCH   9  11
HETATM   11  C17   D T9000       5.101   1.336  11.334  1.00 31.05     0.029 A 
HETATM   12  C13   D T9000       4.700   0.192  12.150  1.00 30.66     0.057 A 
HETATM   13 CL     D T9000       3.623   0.306  13.509  1.00 31.95    -0.083 Cl
HETATM   14  C3    D T9000       5.198  -1.110  11.853  1.00 30.41     0.013 A 
HETATM   15  C2    D T9000       6.085  -1.327  10.770  1.00 31.69     0.031 A 
HETATM   16  C12   D T9000       6.501  -0.245   9.953  1.00 33.21     0.150 A 
HETATM   17  F     D T9000       7.345  -0.498   8.943  1.00 33.89    -0.203 F 
HETATM   18  C18   D T9000       6.023   1.091  10.212  1.00 33.60     0.084 A 
HETATM   19 CL2    D T9000       6.594   2.365   9.144  1.00 45.49    -0.080 Cl
ENDBRANCH   9  11
ENDBRANCH   8   9
ENDBRANCH   1   8
BRANCH   7  20
HETATM   20  C16   D T9000      -0.894   4.569  11.892  1.00 30.74     0.041 A 
HETATM   21  C6    D T9000      -2.142   5.332  11.811  1.00 33.28     0.122 A 
HETATM   22  N24   D T9000      -3.061   4.704  12.441  1.00 35.40    -0.168 NA
HETATM   23  N26   D T9000      -2.590   3.616  12.935  1.00 35.93    -0.252 N 
HETATM   24  C7    D T9000      -1.218   3.438  12.640  1.00 33.34     0.097 A 
BRANCH  23  25
HETATM   25  C20   D T9000      -3.449   2.696  13.717  1.00 41.25     0.110 C 
HETATM   26  C8    D T9000      -2.590   1.658  14.471  1.00 43.15     0.063 C 
HETATM   27  C10   D T9000      -3.512   0.716  15.281  1.00 45.06     0.292 C 
HETATM   28  N25   D T9000      -4.553   0.069  14.429  1.00 46.53     0.339 N 
HETATM   29  C11   D T9000      -5.360   1.053  13.652  1.00 45.16     0.292 C 
HETATM   30  C9    D T9000      -4.481   1.999  12.803  1.00 43.46     0.063 C 
ENDBRANCH  23  25
ENDBRANCH   7  20
TORSDOF 5
ENDMDL
