MODEL 1
REMARK VINA RESULT:    -8.110      0.000      0.000
REMARK INTER + INTRA:         -11.136
REMARK INTER:                 -10.480
REMARK INTRA:                  -0.656
REMARK UNBOUND:                -0.656
REMARK  5 active torsions:
REMARK  status: ('A' for Active; 'I' for Inactive)
REMARK    1  A    between atoms: C17_7  and  C21_10 
REMARK    2  A    between atoms: C21_10  and  O27_12 
REMARK    3  A    between atoms: O27_12  and  C15_13 
REMARK    4  A    between atoms: C14_19  and  C16_20 
REMARK    5  A    between atoms: N26_23  and  C20_25 
ROOT
HETATM    1  C15   D T9000       9.811  -3.114  -3.266  1.00 25.51     0.125 A 
HETATM    2  C4    D T9000      10.048  -3.043  -1.849  1.00 26.27     0.029 A 
HETATM    3  C19   D T9000       9.637  -4.434  -3.803  1.00 24.04     0.173 A 
HETATM    4  N22   D T9000       9.397  -4.580  -5.184  1.00 22.39    -0.078 NA
HETATM    5  N23   D T9000       9.684  -5.574  -3.065  1.00 23.93    -0.228 NA
HETATM    6  C5    D T9000       9.910  -5.473  -1.719  1.00 26.12     0.100 A 
HETATM    7  C14   D T9000      10.105  -4.226  -1.048  1.00 28.08     0.024 A 
ENDROOT
BRANCH   1   8
HETATM    8  O27   D T9000       9.718  -2.010  -4.129  1.00 26.96    -0.326 OA
BRANCH   8   9
HETATM    9  C21   D T9000       8.990  -0.756  -3.867  1.00 29.02     0.145 C 
HETATM   10  C1    D T9000       7.674  -1.178  -3.195  1.00 31.25     0.038 C 
BRANCH   9  11
HETATM   11  C17   D T9000       8.705   0.121  -5.146  1.00 31.05     0.029 A 
HETATM   12  C13   D T9000       9.216   1.488  -5.223  1.00 30.66     0.057 A 
HETATM   13 CL     D T9000      10.149   2.242  -3.966  1.00 31.95    -0.083 Cl
HETATM   14  C3    D T9000       8.958   2.286  -6.375  1.00 30.41     0.013 A 
HETATM   15  C2    D T9000       8.207   1.780  -7.465  1.00 31.69     0.031 A 
HETATM   16  C12   D T9000       7.690   0.459  -7.432  1.00 33.21     0.150 A 
HETATM   17  F     D T9000       6.983   0.026  -8.483  1.00 33.89    -0.203 F 
HETATM   18  C18   D T9000       7.927  -0.388  -6.289  1.00 33.60     0.084 A 
HETATM   19 CL2    D T9000       7.248  -2.007  -6.340  1.00 45.49    -0.080 Cl
ENDBRANCH   9  11
ENDBRANCH   8   9
ENDBRANCH   1   8
BRANCH   7  20
HETATM   20  C16   D T9000      10.359  -4.121   0.445  1.00 30.74     0.041 A 
HETATM   21  C6    D T9000      10.958  -2.990   1.155  1.00 33.28     0.122 A 
HETATM   22  N24   D T9000      11.016  -3.259   2.403  1.00 35.40    -0.168 NA
HETATM   23  N26   D T9000      10.532  -4.428   2.624  1.00 35.93    -0.252 N 
HETATM   24  C7    D T9000      10.085  -5.059   1.439  1.00 33.34     0.097 A 
BRANCH  23  25
HETATM   25  C20   D T9000      10.478  -4.988   3.995  1.00 41.25     0.110 C 
HETATM   26  C8    D T9000       9.017  -5.277   4.407  1.00 43.15     0.063 C 
HETATM   27  C10   D T9000       8.991  -5.864   5.838  1.00 45.06     0.292 C 
HETATM   28  N25   D T9000       9.691  -4.989   6.825  1.00 46.53     0.339 N 
HETATM   29  C11   D T9000      11.087  -4.657   6.419  1.00 45.16     0.292 C 
HETATM   30  C9    D T9000      11.160  -4.039   5.004  1.00 43.46     0.063 C 
ENDBRANCH  23  25
ENDBRANCH   7  20
TORSDOF 5
ENDMDL
MODEL 2
REMARK VINA RESULT:    -7.986      0.828      1.908
REMARK INTER + INTRA:         -10.975
REMARK INTER:                 -10.433
REMARK INTRA:                  -0.543
REMARK UNBOUND:                -0.656
REMARK  5 active torsions:
REMARK  status: ('A' for Active; 'I' for Inactive)
REMARK    1  A    between atoms: C17_7  and  C21_10 
REMARK    2  A    between atoms: C21_10  and  O27_12 
REMARK    3  A    between atoms: O27_12  and  C15_13 
REMARK    4  A    between atoms: C14_19  and  C16_20 
REMARK    5  A    between atoms: N26_23  and  C20_25 
ROOT
HETATM    1  C15   D T9000       9.692  -3.472  -3.261  1.00 25.51     0.125 A 
HETATM    2  C4    D T9000       9.933  -3.319  -1.852  1.00 26.27     0.029 A 
HETATM    3  C19   D T9000       9.580  -4.823  -3.732  1.00 24.04     0.173 A 
HETATM    4  N22   D T9000       9.341  -5.049  -5.102  1.00 22.39    -0.078 NA
HETATM    5  N23   D T9000       9.687  -5.922  -2.939  1.00 23.93    -0.228 NA
HETATM    6  C5    D T9000       9.916  -5.744  -1.601  1.00 26.12     0.100 A 
HETATM    7  C14   D T9000      10.052  -4.457  -0.993  1.00 28.08     0.024 A 
ENDROOT
BRANCH   1   8
HETATM    8  O27   D T9000       9.540  -2.418  -4.177  1.00 26.96    -0.326 OA
BRANCH   8   9
HETATM    9  C21   D T9000       8.853  -1.138  -3.929  1.00 29.02     0.145 C 
HETATM   10  C1    D T9000       7.578  -1.500  -3.152  1.00 31.25     0.038 C 
BRANCH   9  11
HETATM   11  C17   D T9000       8.500  -0.316  -5.226  1.00 31.05     0.029 A 
HETATM   12  C13   D T9000       7.698  -0.929  -6.284  1.00 30.66     0.057 A 
HETATM   13 CL     D T9000       7.085  -2.554  -6.211  1.00 31.95    -0.083 Cl
HETATM   14  C3    D T9000       7.379  -0.193  -7.461  1.00 30.41     0.013 A 
HETATM   15  C2    D T9000       7.825   1.141  -7.635  1.00 31.69     0.031 A 
HETATM   16  C12   D T9000       8.607   1.775  -6.635  1.00 33.21     0.150 A 
HETATM   17  F     D T9000       9.009   3.035  -6.845  1.00 33.89    -0.203 F 
HETATM   18  C18   D T9000       8.954   1.071  -5.425  1.00 33.60     0.084 A 
HETATM   19 CL2    D T9000       9.924   1.940  -4.246  1.00 45.49    -0.080 Cl
ENDBRANCH   9  11
ENDBRANCH   8   9
ENDBRANCH   1   8
BRANCH   7  20
HETATM   20  C16   D T9000      10.310  -4.266   0.490  1.00 30.74     0.041 A 
HETATM   21  C6    D T9000      10.863  -3.076   1.138  1.00 33.28     0.122 A 
HETATM   22  N24   D T9000      10.938  -3.279   2.398  1.00 35.40    -0.168 NA
HETATM   23  N26   D T9000      10.507  -4.455   2.681  1.00 35.93    -0.252 N 
HETATM   24  C7    D T9000      10.082  -5.164   1.532  1.00 33.34     0.097 A 
BRANCH  23  25
HETATM   25  C20   D T9000      10.483  -4.947   4.078  1.00 41.25     0.110 C 
HETATM   26  C8    D T9000       9.029  -5.111   4.573  1.00 43.15     0.063 C 
HETATM   27  C10   D T9000       9.036  -5.630   6.030  1.00 45.06     0.292 C 
HETATM   28  N25   D T9000       9.844  -4.763   6.939  1.00 46.53     0.339 N 
HETATM   29  C11   D T9000      11.237  -4.551   6.452  1.00 45.16     0.292 C 
HETATM   30  C9    D T9000      11.281  -4.004   5.006  1.00 43.46     0.063 C 
ENDBRANCH  23  25
ENDBRANCH   7  20
TORSDOF 5
ENDMDL
MODEL 3
REMARK VINA RESULT:    -7.840      4.335      9.457
REMARK INTER + INTRA:         -10.787
REMARK INTER:                  -9.973
REMARK INTRA:                  -0.813
REMARK UNBOUND:                -0.656
REMARK  5 active torsions:
REMARK  status: ('A' for Active; 'I' for Inactive)
REMARK    1  A    between atoms: C17_7  and  C21_10 
REMARK    2  A    between atoms: C21_10  and  O27_12 
REMARK    3  A    between atoms: O27_12  and  C15_13 
REMARK    4  A    between atoms: C14_19  and  C16_20 
REMARK    5  A    between atoms: N26_23  and  C20_25 
ROOT
HETATM    1  C15   D T9000      10.223  -2.983   0.056  1.00 25.51     0.125 A 
HETATM    2  C4    D T9000      10.046  -1.923  -0.900  1.00 26.27     0.029 A 
HETATM    3  C19   D T9000       9.535  -4.208  -0.237  1.00 24.04     0.173 A 
HETATM    4  N22   D T9000       9.666  -5.292   0.655  1.00 22.39    -0.078 NA
HETATM    5  N23   D T9000       8.754  -4.406  -1.332  1.00 23.93    -0.228 NA
HETATM    6  C5    D T9000       8.606  -3.379  -2.224  1.00 26.12     0.100 A 
HETATM    7  C14   D T9000       9.229  -2.102  -2.060  1.00 28.08     0.024 A 
ENDROOT
BRANCH   1   8
HETATM    8  O27   D T9000      11.020  -2.909   1.210  1.00 26.96    -0.326 OA
BRANCH   8   9
HETATM    9  C21   D T9000      12.488  -2.791   1.252  1.00 29.02     0.145 C 
HETATM   10  C1    D T9000      12.958  -3.867   2.243  1.00 31.25     0.038 C 
BRANCH   9  11
HETATM   11  C17   D T9000      13.023  -1.371   1.677  1.00 31.05     0.029 A 
HETATM   12  C13   D T9000      12.811  -0.888   3.040  1.00 30.66     0.057 A 
HETATM   13 CL     D T9000      11.984  -1.798   4.269  1.00 31.95    -0.083 Cl
HETATM   14  C3    D T9000      13.290   0.396   3.430  1.00 30.41     0.013 A 
HETATM   15  C2    D T9000      13.978   1.231   2.514  1.00 31.69     0.031 A 
HETATM   16  C12   D T9000      14.205   0.804   1.181  1.00 33.21     0.150 A 
HETATM   17  F     D T9000      14.856   1.627   0.350  1.00 33.89    -0.203 F 
HETATM   18  C18   D T9000      13.741  -0.489   0.740  1.00 33.60     0.084 A 
HETATM   19 CL2    D T9000      14.070  -0.931  -0.928  1.00 45.49    -0.080 Cl
ENDBRANCH   9  11
ENDBRANCH   8   9
ENDBRANCH   1   8
BRANCH   7  20
HETATM   20  C16   D T9000       9.056  -0.965  -3.051  1.00 30.74     0.041 A 
HETATM   21  C6    D T9000       8.878   0.453  -2.736  1.00 33.28     0.122 A 
HETATM   22  N24   D T9000       8.764   1.114  -3.824  1.00 35.40    -0.168 NA
HETATM   23  N26   D T9000       8.843   0.323  -4.831  1.00 35.93    -0.252 N 
HETATM   24  C7    D T9000       9.031  -1.025  -4.443  1.00 33.34     0.097 A 
BRANCH  23  25
HETATM   25  C20   D T9000       8.743   0.835  -6.217  1.00 41.25     0.110 C 
HETATM   26  C8    D T9000       9.069   2.344  -6.266  1.00 43.15     0.063 C 
HETATM   27  C10   D T9000       8.961   2.849  -7.724  1.00 45.06     0.292 C 
HETATM   28  N25   D T9000       7.634   2.542  -8.336  1.00 46.53     0.339 N 
HETATM   29  C11   D T9000       7.278   1.096  -8.254  1.00 45.16     0.292 C 
HETATM   30  C9    D T9000       7.344   0.552  -6.808  1.00 43.46     0.063 C 
ENDBRANCH  23  25
ENDBRANCH   7  20
TORSDOF 5
ENDMDL
MODEL 4
REMARK VINA RESULT:    -7.802      2.430      3.293
REMARK INTER + INTRA:         -10.738
REMARK INTER:                  -9.904
REMARK INTRA:                  -0.835
REMARK UNBOUND:                -0.656
REMARK  5 active torsions:
REMARK  status: ('A' for Active; 'I' for Inactive)
REMARK    1  A    between atoms: C17_7  and  C21_10 
REMARK    2  A    between atoms: C21_10  and  O27_12 
REMARK    3  A    between atoms: O27_12  and  C15_13 
REMARK    4  A    between atoms: C14_19  and  C16_20 
REMARK    5  A    between atoms: N26_23  and  C20_25 
ROOT
HETATM    1  C15   D T9000      10.149  -2.918  -2.647  1.00 25.51     0.125 A 
HETATM    2  C4    D T9000      10.728  -2.487  -1.403  1.00 26.27     0.029 A 
HETATM    3  C19   D T9000       9.968  -4.335  -2.792  1.00 24.04     0.173 A 
HETATM    4  N22   D T9000       9.404  -4.830  -3.984  1.00 22.39    -0.078 NA
HETATM    5  N23   D T9000      10.305  -5.251  -1.847  1.00 23.93    -0.228 NA
HETATM    6  C5    D T9000      10.853  -4.809  -0.673  1.00 26.12     0.100 A 
HETATM    7  C14   D T9000      11.093  -3.428  -0.390  1.00 28.08     0.024 A 
ENDROOT
BRANCH   1   8
HETATM    8  O27   D T9000       9.740  -2.069  -3.688  1.00 26.96    -0.326 OA
BRANCH   8   9
HETATM    9  C21   D T9000       8.894  -0.870  -3.556  1.00 29.02     0.145 C 
HETATM   10  C1    D T9000       7.599  -1.353  -2.885  1.00 31.25     0.038 C 
BRANCH   9  11
HETATM   11  C17   D T9000       8.576  -0.134  -4.913  1.00 31.05     0.029 A 
HETATM   12  C13   D T9000       9.005   1.248  -5.113  1.00 30.66     0.057 A 
HETATM   13 CL     D T9000       9.873   2.172  -3.922  1.00 31.95    -0.083 Cl
HETATM   14  C3    D T9000       8.718   1.920  -6.336  1.00 30.41     0.013 A 
HETATM   15  C2    D T9000       8.014   1.271  -7.381  1.00 31.69     0.031 A 
HETATM   16  C12   D T9000       7.577  -0.070  -7.230  1.00 33.21     0.150 A 
HETATM   17  F     D T9000       6.913  -0.642  -8.243  1.00 33.89    -0.203 F 
HETATM   18  C18   D T9000       7.847  -0.792  -6.011  1.00 33.60     0.084 A 
HETATM   19 CL2    D T9000       7.267  -2.448  -5.917  1.00 45.49    -0.080 Cl
ENDBRANCH   9  11
ENDBRANCH   8   9
ENDBRANCH   1   8
BRANCH   7  20
HETATM   20  C16   D T9000      11.705  -2.945   0.912  1.00 30.74     0.041 A 
HETATM   21  C6    D T9000      12.275  -3.776   1.974  1.00 33.28     0.122 A 
HETATM   22  N24   D T9000      12.693  -3.023   2.918  1.00 35.40    -0.168 NA
HETATM   23  N26   D T9000      12.476  -1.791   2.628  1.00 35.93    -0.252 N 
HETATM   24  C7    D T9000      11.851  -1.637   1.368  1.00 33.34     0.097 A 
BRANCH  23  25
HETATM   25  C20   D T9000      12.867  -0.705   3.557  1.00 41.25     0.110 C 
HETATM   26  C8    D T9000      13.520   0.463   2.785  1.00 43.15     0.063 C 
HETATM   27  C10   D T9000      13.912   1.582   3.777  1.00 45.06     0.292 C 
HETATM   28  N25   D T9000      14.784   1.083   4.882  1.00 46.53     0.339 N 
HETATM   29  C11   D T9000      14.193  -0.078   5.608  1.00 45.16     0.292 C 
HETATM   30  C9    D T9000      13.811  -1.236   4.658  1.00 43.46     0.063 C 
ENDBRANCH  23  25
ENDBRANCH   7  20
TORSDOF 5
ENDMDL
MODEL 5
REMARK VINA RESULT:    -7.719      2.274      3.516
REMARK INTER + INTRA:         -10.631
REMARK INTER:                  -9.913
REMARK INTRA:                  -0.719
REMARK UNBOUND:                -0.656
REMARK  5 active torsions:
REMARK  status: ('A' for Active; 'I' for Inactive)
REMARK    1  A    between atoms: C17_7  and  C21_10 
REMARK    2  A    between atoms: C21_10  and  O27_12 
REMARK    3  A    between atoms: O27_12  and  C15_13 
REMARK    4  A    between atoms: C14_19  and  C16_20 
REMARK    5  A    between atoms: N26_23  and  C20_25 
ROOT
HETATM    1  C15   D T9000      10.045  -3.025  -2.947  1.00 25.51     0.125 A 
HETATM    2  C4    D T9000      10.560  -2.674  -1.650  1.00 26.27     0.029 A 
HETATM    3  C19   D T9000       9.872  -4.429  -3.190  1.00 24.04     0.173 A 
HETATM    4  N22   D T9000       9.369  -4.846  -4.438  1.00 22.39    -0.078 NA
HETATM    5  N23   D T9000      10.161  -5.404  -2.288  1.00 23.93    -0.228 NA
HETATM    6  C5    D T9000      10.649  -5.038  -1.063  1.00 26.12     0.100 A 
HETATM    7  C14   D T9000      10.874  -3.679  -0.682  1.00 28.08     0.024 A 
ENDROOT
BRANCH   1   8
HETATM    8  O27   D T9000       9.688  -2.111  -3.952  1.00 26.96    -0.326 OA
BRANCH   8   9
HETATM    9  C21   D T9000       8.872  -0.896  -3.778  1.00 29.02     0.145 C 
HETATM   10  C1    D T9000       7.591  -1.361  -3.068  1.00 31.25     0.038 C 
BRANCH   9  11
HETATM   11  C17   D T9000       8.523  -0.139  -5.116  1.00 31.05     0.029 A 
HETATM   12  C13   D T9000       7.753  -0.815  -6.158  1.00 30.66     0.057 A 
HETATM   13 CL     D T9000       7.173  -2.448  -6.025  1.00 31.95    -0.083 Cl
HETATM   14  C3    D T9000       7.438  -0.137  -7.371  1.00 30.41     0.013 A 
HETATM   15  C2    D T9000       7.859   1.198  -7.596  1.00 31.69     0.031 A 
HETATM   16  C12   D T9000       8.610   1.891  -6.612  1.00 33.21     0.150 A 
HETATM   17  F     D T9000       8.988   3.149  -6.870  1.00 33.89    -0.203 F 
HETATM   18  C18   D T9000       8.951   1.248  -5.368  1.00 33.60     0.084 A 
HETATM   19 CL2    D T9000       9.882   2.187  -4.211  1.00 45.49    -0.080 Cl
ENDBRANCH   9  11
ENDBRANCH   8   9
ENDBRANCH   1   8
BRANCH   7  20
HETATM   20  C16   D T9000      11.419  -3.281   0.677  1.00 30.74     0.041 A 
HETATM   21  C6    D T9000      10.905  -3.696   1.984  1.00 33.28     0.122 A 
HETATM   22  N24   D T9000      11.614  -3.163   2.904  1.00 35.40    -0.168 NA
HETATM   23  N26   D T9000      12.539  -2.440   2.384  1.00 35.93    -0.252 N 
HETATM   24  C7    D T9000      12.500  -2.451   0.969  1.00 33.34     0.097 A 
BRANCH  23  25
HETATM   25  C20   D T9000      13.507  -1.707   3.232  1.00 41.25     0.110 C 
HETATM   26  C8    D T9000      12.914  -1.448   4.636  1.00 43.15     0.063 C 
HETATM   27  C10   D T9000      13.946  -0.687   5.500  1.00 45.06     0.292 C 
HETATM   28  N25   D T9000      14.416   0.572   4.848  1.00 46.53     0.339 N 
HETATM   29  C11   D T9000      14.946   0.350   3.472  1.00 45.16     0.292 C 
HETATM   30  C9    D T9000      13.936  -0.384   2.561  1.00 43.46     0.063 C 
ENDBRANCH  23  25
ENDBRANCH   7  20
TORSDOF 5
ENDMDL
MODEL 6
REMARK VINA RESULT:    -7.712      4.808      6.444
REMARK INTER + INTRA:         -10.622
REMARK INTER:                 -10.179
REMARK INTRA:                  -0.444
REMARK UNBOUND:                -0.656
REMARK  5 active torsions:
REMARK  status: ('A' for Active; 'I' for Inactive)
REMARK    1  A    between atoms: C17_7  and  C21_10 
REMARK    2  A    between atoms: C21_10  and  O27_12 
REMARK    3  A    between atoms: O27_12  and  C15_13 
REMARK    4  A    between atoms: C14_19  and  C16_20 
REMARK    5  A    between atoms: N26_23  and  C20_25 
ROOT
HETATM    1  C15   D T9000      10.685  -2.163  -2.438  1.00 25.51     0.125 A 
HETATM    2  C4    D T9000      11.948  -1.505  -2.240  1.00 26.27     0.029 A 
HETATM    3  C19   D T9000      10.372  -3.207  -1.505  1.00 24.04     0.173 A 
HETATM    4  N22   D T9000       9.149  -3.893  -1.636  1.00 22.39    -0.078 NA
HETATM    5  N23   D T9000      11.183  -3.589  -0.483  1.00 23.93    -0.228 NA
HETATM    6  C5    D T9000      12.379  -2.943  -0.319  1.00 26.12     0.100 A 
HETATM    7  C14   D T9000      12.822  -1.886  -1.174  1.00 28.08     0.024 A 
ENDROOT
BRANCH   1   8
HETATM    8  O27   D T9000       9.753  -1.844  -3.440  1.00 26.96    -0.326 OA
BRANCH   8   9
HETATM    9  C21   D T9000       8.798  -0.722  -3.420  1.00 29.02     0.145 C 
HETATM   10  C1    D T9000       7.504  -1.297  -2.822  1.00 31.25     0.038 C 
BRANCH   9  11
HETATM   11  C17   D T9000       8.518  -0.069  -4.826  1.00 31.05     0.029 A 
HETATM   12  C13   D T9000       7.761  -0.804  -5.837  1.00 30.66     0.057 A 
HETATM   13 CL     D T9000       7.123  -2.402  -5.591  1.00 31.95    -0.083 Cl
HETATM   14  C3    D T9000       7.508  -0.219  -7.111  1.00 30.41     0.013 A 
HETATM   15  C2    D T9000       7.980   1.079  -7.429  1.00 31.69     0.031 A 
HETATM   16  C12   D T9000       8.721   1.828  -6.479  1.00 33.21     0.150 A 
HETATM   17  F     D T9000       9.150   3.048  -6.826  1.00 33.89    -0.203 F 
HETATM   18  C18   D T9000       9.000   1.279  -5.175  1.00 33.60     0.084 A 
HETATM   19 CL2    D T9000       9.924   2.282  -4.067  1.00 45.49    -0.080 Cl
ENDBRANCH   9  11
ENDBRANCH   8   9
ENDBRANCH   1   8
BRANCH   7  20
HETATM   20  C16   D T9000      14.152  -1.177  -0.990  1.00 30.74     0.041 A 
HETATM   21  C6    D T9000      14.413   0.253  -1.158  1.00 33.28     0.122 A 
HETATM   22  N24   D T9000      15.647   0.486  -0.921  1.00 35.40    -0.168 NA
HETATM   23  N26   D T9000      16.250  -0.605  -0.616  1.00 35.93    -0.252 N 
HETATM   24  C7    D T9000      15.383  -1.722  -0.630  1.00 33.34     0.097 A 
BRANCH  23  25
HETATM   25  C20   D T9000      17.696  -0.616  -0.293  1.00 41.25     0.110 C 
HETATM   26  C8    D T9000      18.325   0.770  -0.562  1.00 43.15     0.063 C 
HETATM   27  C10   D T9000      19.831   0.729  -0.211  1.00 45.06     0.292 C 
HETATM   28  N25   D T9000      20.553  -0.364  -0.928  1.00 46.53     0.339 N 
HETATM   29  C11   D T9000      19.931  -1.703  -0.721  1.00 45.16     0.292 C 
HETATM   30  C9    D T9000      18.429  -1.720  -1.087  1.00 43.46     0.063 C 
ENDBRANCH  23  25
ENDBRANCH   7  20
TORSDOF 5
ENDMDL
MODEL 7
REMARK VINA RESULT:    -7.683      4.730      9.879
REMARK INTER + INTRA:         -10.585
REMARK INTER:                  -9.832
REMARK INTRA:                  -0.753
REMARK UNBOUND:                -0.656
REMARK  5 active torsions:
REMARK  status: ('A' for Active; 'I' for Inactive)
REMARK    1  A    between atoms: C17_7  and  C21_10 
REMARK    2  A    between atoms: C21_10  and  O27_12 
REMARK    3  A    between atoms: O27_12  and  C15_13 
REMARK    4  A    between atoms: C14_19  and  C16_20 
REMARK    5  A    between atoms: N26_23  and  C20_25 
ROOT
HETATM    1  C15   D T9000      10.247  -2.129   0.034  1.00 25.51     0.125 A 
HETATM    2  C4    D T9000       9.828  -1.522  -1.201  1.00 26.27     0.029 A 
HETATM    3  C19   D T9000       9.834  -3.489   0.232  1.00 24.04     0.173 A 
HETATM    4  N22   D T9000      10.211  -4.149   1.419  1.00 22.39    -0.078 NA
HETATM    5  N23   D T9000       9.095  -4.203  -0.658  1.00 23.93    -0.228 NA
HETATM    6  C5    D T9000       8.712  -3.598  -1.824  1.00 26.12     0.100 A 
HETATM    7  C14   D T9000       9.048  -2.248  -2.155  1.00 28.08     0.024 A 
ENDROOT
BRANCH   1   8
HETATM    8  O27   D T9000      11.030  -1.505   1.019  1.00 26.96    -0.326 OA
BRANCH   8   9
HETATM    9  C21   D T9000      12.443  -1.107   0.889  1.00 29.02     0.145 C 
HETATM   10  C1    D T9000      13.186  -2.374   0.439  1.00 31.25     0.038 C 
BRANCH   9  11
HETATM   11  C17   D T9000      13.087  -0.522   2.203  1.00 31.05     0.029 A 
HETATM   12  C13   D T9000      13.951   0.655   2.133  1.00 30.66     0.057 A 
HETATM   13 CL     D T9000      14.331   1.485   0.654  1.00 31.95    -0.083 Cl
HETATM   14  C3    D T9000      14.539   1.186   3.317  1.00 30.41     0.013 A 
HETATM   15  C2    D T9000      14.303   0.593   4.582  1.00 31.69     0.031 A 
HETATM   16  C12   D T9000      13.473  -0.552   4.698  1.00 33.21     0.150 A 
HETATM   17  F     D T9000      13.282  -1.080   5.913  1.00 33.89    -0.203 F 
HETATM   18  C18   D T9000      12.853  -1.124   3.528  1.00 33.60     0.084 A 
HETATM   19 CL2    D T9000      11.841  -2.539   3.771  1.00 45.49    -0.080 Cl
ENDBRANCH   9  11
ENDBRANCH   8   9
ENDBRANCH   1   8
BRANCH   7  20
HETATM   20  C16   D T9000       8.617  -1.582  -3.449  1.00 30.74     0.041 A 
HETATM   21  C6    D T9000       8.041  -2.239  -4.623  1.00 33.28     0.122 A 
HETATM   22  N24   D T9000       7.805  -1.362  -5.522  1.00 35.40    -0.168 NA
HETATM   23  N26   D T9000       8.148  -0.198  -5.103  1.00 35.93    -0.252 N 
HETATM   24  C7    D T9000       8.676  -0.232  -3.791  1.00 33.34     0.097 A 
BRANCH  23  25
HETATM   25  C20   D T9000       7.977   1.003  -5.953  1.00 41.25     0.110 C 
HETATM   26  C8    D T9000       7.367   0.621  -7.320  1.00 43.15     0.063 C 
HETATM   27  C10   D T9000       7.196   1.894  -8.183  1.00 45.06     0.292 C 
HETATM   28  N25   D T9000       8.472   2.656  -8.331  1.00 46.53     0.339 N 
HETATM   29  C11   D T9000       9.103   2.991  -7.022  1.00 45.16     0.292 C 
HETATM   30  C9    D T9000       9.321   1.743  -6.135  1.00 43.46     0.063 C 
ENDBRANCH  23  25
ENDBRANCH   7  20
TORSDOF 5
ENDMDL
MODEL 8
REMARK VINA RESULT:    -7.652      4.654      5.951
REMARK INTER + INTRA:         -10.544
REMARK INTER:                  -9.927
REMARK INTRA:                  -0.617
REMARK UNBOUND:                -0.656
REMARK  5 active torsions:
REMARK  status: ('A' for Active; 'I' for Inactive)
REMARK    1  A    between atoms: C17_7  and  C21_10 
REMARK    2  A    between atoms: C21_10  and  O27_12 
REMARK    3  A    between atoms: O27_12  and  C15_13 
REMARK    4  A    between atoms: C14_19  and  C16_20 
REMARK    5  A    between atoms: N26_23  and  C20_25 
ROOT
HETATM    1  C15   D T9000      10.711  -2.150  -2.421  1.00 25.51     0.125 A 
HETATM    2  C4    D T9000      11.971  -1.468  -2.299  1.00 26.27     0.029 A 
HETATM    3  C19   D T9000      10.454  -3.166  -1.440  1.00 24.04     0.173 A 
HETATM    4  N22   D T9000       9.237  -3.874  -1.496  1.00 22.39    -0.078 NA
HETATM    5  N23   D T9000      11.313  -3.502  -0.442  1.00 23.93    -0.228 NA
HETATM    6  C5    D T9000      12.504  -2.834  -0.352  1.00 26.12     0.100 A 
HETATM    7  C14   D T9000      12.895  -1.801  -1.259  1.00 28.08     0.024 A 
ENDROOT
BRANCH   1   8
HETATM    8  O27   D T9000       9.732  -1.879  -3.392  1.00 26.96    -0.326 OA
BRANCH   8   9
HETATM    9  C21   D T9000       8.785  -0.751  -3.386  1.00 29.02     0.145 C 
HETATM   10  C1    D T9000       7.475  -1.319  -2.819  1.00 31.25     0.038 C 
BRANCH   9  11
HETATM   11  C17   D T9000       8.540  -0.088  -4.795  1.00 31.05     0.029 A 
HETATM   12  C13   D T9000       9.028   1.263  -5.062  1.00 30.66     0.057 A 
HETATM   13 CL     D T9000       9.891   2.225  -3.899  1.00 31.95    -0.083 Cl
HETATM   14  C3    D T9000       8.806   1.869  -6.333  1.00 30.41     0.013 A 
HETATM   15  C2    D T9000       8.113   1.183  -7.361  1.00 31.69     0.031 A 
HETATM   16  C12   D T9000       7.619  -0.130  -7.145  1.00 33.21     0.150 A 
HETATM   17  F     D T9000       6.967  -0.737  -8.144  1.00 33.89    -0.203 F 
HETATM   18  C18   D T9000       7.822  -0.785  -5.876  1.00 33.60     0.084 A 
HETATM   19 CL2    D T9000       7.176  -2.410  -5.704  1.00 45.49    -0.080 Cl
ENDBRANCH   9  11
ENDBRANCH   8   9
ENDBRANCH   1   8
BRANCH   7  20
HETATM   20  C16   D T9000      14.220  -1.067  -1.156  1.00 30.74     0.041 A 
HETATM   21  C6    D T9000      14.476   0.332  -1.503  1.00 33.28     0.122 A 
HETATM   22  N24   D T9000      15.707   0.600  -1.288  1.00 35.40    -0.168 NA
HETATM   23  N26   D T9000      16.312  -0.440  -0.841  1.00 35.93    -0.252 N 
HETATM   24  C7    D T9000      15.450  -1.555  -0.719  1.00 33.34     0.097 A 
BRANCH  23  25
HETATM   25  C20   D T9000      17.755  -0.402  -0.507  1.00 41.25     0.110 C 
HETATM   26  C8    D T9000      18.523  -1.496  -1.283  1.00 43.15     0.063 C 
HETATM   27  C10   D T9000      20.024  -1.429  -0.919  1.00 45.06     0.292 C 
HETATM   28  N25   D T9000      20.258  -1.518   0.553  1.00 46.53     0.339 N 
HETATM   29  C11   D T9000      19.486  -0.502   1.325  1.00 45.16     0.292 C 
HETATM   30  C9    D T9000      17.972  -0.550   1.015  1.00 43.46     0.063 C 
ENDBRANCH  23  25
ENDBRANCH   7  20
TORSDOF 5
ENDMDL
MODEL 9
REMARK VINA RESULT:    -7.637      4.477      9.324
REMARK INTER + INTRA:         -10.525
REMARK INTER:                  -9.541
REMARK INTRA:                  -0.984
REMARK UNBOUND:                -0.656
REMARK  5 active torsions:
REMARK  status: ('A' for Active; 'I' for Inactive)
REMARK    1  A    between atoms: C17_7  and  C21_10 
REMARK    2  A    between atoms: C21_10  and  O27_12 
REMARK    3  A    between atoms: O27_12  and  C15_13 
REMARK    4  A    between atoms: C14_19  and  C16_20 
REMARK    5  A    between atoms: N26_23  and  C20_25 
ROOT
HETATM    1  C15   D T9000      10.547  -3.048   0.409  1.00 25.51     0.125 A 
HETATM    2  C4    D T9000      10.565  -2.100  -0.673  1.00 26.27     0.029 A 
HETATM    3  C19   D T9000       9.617  -4.133   0.272  1.00 24.04     0.173 A 
HETATM    4  N22   D T9000       9.547  -5.102   1.293  1.00 22.39    -0.078 NA
HETATM    5  N23   D T9000       8.786  -4.300  -0.790  1.00 23.93    -0.228 NA
HETATM    6  C5    D T9000       8.827  -3.382  -1.804  1.00 26.12     0.100 A 
HETATM    7  C14   D T9000       9.700  -2.250  -1.802  1.00 28.08     0.024 A 
ENDROOT
BRANCH   1   8
HETATM    8  O27   D T9000      11.370  -2.997   1.546  1.00 26.96    -0.326 OA
BRANCH   8   9
HETATM    9  C21   D T9000      12.839  -2.878   1.555  1.00 29.02     0.145 C 
HETATM   10  C1    D T9000      13.295  -3.534   2.868  1.00 31.25     0.038 C 
BRANCH   9  11
HETATM   11  C17   D T9000      13.382  -1.402   1.454  1.00 31.05     0.029 A 
HETATM   12  C13   D T9000      14.172  -0.992   0.295  1.00 30.66     0.057 A 
HETATM   13 CL     D T9000      14.569  -2.050  -1.026  1.00 31.95    -0.083 Cl
HETATM   14  C3    D T9000      14.669   0.340   0.199  1.00 30.41     0.013 A 
HETATM   15  C2    D T9000      14.411   1.294   1.216  1.00 31.69     0.031 A 
HETATM   16  C12   D T9000      13.651   0.939   2.359  1.00 33.21     0.150 A 
HETATM   17  F     D T9000      13.436   1.872   3.296  1.00 33.89    -0.203 F 
HETATM   18  C18   D T9000      13.125  -0.397   2.500  1.00 33.60     0.084 A 
HETATM   19 CL2    D T9000      12.194  -0.741   3.950  1.00 45.49    -0.080 Cl
ENDBRANCH   9  11
ENDBRANCH   8   9
ENDBRANCH   1   8
BRANCH   7  20
HETATM   20  C16   D T9000       9.738  -1.233  -2.928  1.00 30.74     0.041 A 
HETATM   21  C6    D T9000      10.932  -0.660  -3.553  1.00 33.28     0.122 A 
HETATM   22  N24   D T9000      10.577   0.162  -4.464  1.00 35.40    -0.168 NA
HETATM   23  N26   D T9000       9.296   0.216  -4.533  1.00 35.93    -0.252 N 
HETATM   24  C7    D T9000       8.669  -0.638  -3.596  1.00 33.34     0.097 A 
BRANCH  23  25
HETATM   25  C20   D T9000       8.618   1.097  -5.513  1.00 41.25     0.110 C 
HETATM   26  C8    D T9000       7.764   0.264  -6.495  1.00 43.15     0.063 C 
HETATM   27  C10   D T9000       7.066   1.208  -7.501  1.00 45.06     0.292 C 
HETATM   28  N25   D T9000       8.033   2.097  -8.213  1.00 46.53     0.339 N 
HETATM   29  C11   D T9000       8.901   2.873  -7.281  1.00 45.16     0.292 C 
HETATM   30  C9    D T9000       9.644   1.966  -6.273  1.00 43.46     0.063 C 
ENDBRANCH  23  25
ENDBRANCH   7  20
TORSDOF 5
ENDMDL
