MODEL 1
REMARK VINA RESULT:    -8.919      0.000      0.000
REMARK INTER + INTRA:         -12.115
REMARK INTER:                 -11.526
REMARK INTRA:                  -0.589
REMARK UNBOUND:                -0.589
REMARK  5 active torsions:
REMARK  status: ('A' for Active; 'I' for Inactive)
REMARK    1  A    between atoms: C17_7  and  C21_10 
REMARK    2  A    between atoms: C21_10  and  O27_12 
REMARK    3  A    between atoms: O27_12  and  C15_13 
REMARK    4  A    between atoms: C14_19  and  C16_20 
REMARK    5  A    between atoms: N26_23  and  C20_25 
ROOT
HETATM    1  C15   D T9000       5.062  12.485   2.225  1.00 25.51     0.125 A 
HETATM    2  C4    D T9000       6.419  12.205   2.606  1.00 26.27     0.029 A 
HETATM    3  C19   D T9000       4.058  11.663   2.838  1.00 24.04     0.173 A 
HETATM    4  N22   D T9000       2.706  11.883   2.514  1.00 22.39    -0.078 NA
HETATM    5  N23   D T9000       4.321  10.670   3.729  1.00 23.93    -0.228 NA
HETATM    6  C5    D T9000       5.623  10.427   4.072  1.00 26.12     0.100 A 
HETATM    7  C14   D T9000       6.726  11.164   3.539  1.00 28.08     0.024 A 
ENDROOT
BRANCH   1   8
HETATM    8  O27   D T9000       4.661  13.497   1.336  1.00 26.96    -0.326 OA
BRANCH   8   9
HETATM    9  C21   D T9000       4.012  13.303   0.027  1.00 29.02     0.145 C 
HETATM   10  C1    D T9000       4.930  12.348  -0.749  1.00 31.25     0.038 C 
BRANCH   9  11
HETATM   11  C17   D T9000       3.770  14.629  -0.791  1.00 31.05     0.029 A 
HETATM   12  C13   D T9000       2.421  14.986  -1.223  1.00 30.66     0.057 A 
HETATM   13 CL     D T9000       1.013  14.023  -0.886  1.00 31.95    -0.083 Cl
HETATM   14  C3    D T9000       2.197  16.182  -1.965  1.00 30.41     0.013 A 
HETATM   15  C2    D T9000       3.268  17.047  -2.302  1.00 31.69     0.031 A 
HETATM   16  C12   D T9000       4.594  16.738  -1.905  1.00 33.21     0.150 A 
HETATM   17  F     D T9000       5.574  17.584  -2.249  1.00 33.89    -0.203 F 
HETATM   18  C18   D T9000       4.870  15.541  -1.150  1.00 33.60     0.084 A 
HETATM   19 CL2    D T9000       6.544  15.246  -0.704  1.00 45.49    -0.080 Cl
ENDBRANCH   9  11
ENDBRANCH   8   9
ENDBRANCH   1   8
BRANCH   7  20
HETATM   20  C16   D T9000       8.168  10.888   3.922  1.00 30.74     0.041 A 
HETATM   21  C6    D T9000       9.310  11.786   3.741  1.00 33.28     0.122 A 
HETATM   22  N24   D T9000      10.368  11.214   4.179  1.00 35.40    -0.168 NA
HETATM   23  N26   D T9000      10.082  10.049   4.633  1.00 35.93    -0.252 N 
HETATM   24  C7    D T9000       8.705   9.746   4.516  1.00 33.34     0.097 A 
BRANCH  23  25
HETATM   25  C20   D T9000      11.130   9.171   5.204  1.00 41.25     0.110 C 
HETATM   26  C8    D T9000      11.370   9.506   6.693  1.00 43.15     0.063 C 
HETATM   27  C10   D T9000      12.464   8.571   7.261  1.00 45.06     0.292 C 
HETATM   28  N25   D T9000      13.726   8.621   6.465  1.00 46.53     0.339 N 
HETATM   29  C11   D T9000      13.507   8.350   5.013  1.00 45.16     0.292 C 
HETATM   30  C9    D T9000      12.440   9.282   4.393  1.00 43.46     0.063 C 
ENDBRANCH  23  25
ENDBRANCH   7  20
TORSDOF 5
ENDMDL
MODEL 2
REMARK VINA RESULT:    -8.765      5.935     10.253
REMARK INTER + INTRA:         -11.916
REMARK INTER:                 -11.214
REMARK INTRA:                  -0.702
REMARK UNBOUND:                -0.589
REMARK  5 active torsions:
REMARK  status: ('A' for Active; 'I' for Inactive)
REMARK    1  A    between atoms: C17_7  and  C21_10 
REMARK    2  A    between atoms: C21_10  and  O27_12 
REMARK    3  A    between atoms: O27_12  and  C15_13 
REMARK    4  A    between atoms: C14_19  and  C16_20 
REMARK    5  A    between atoms: N26_23  and  C20_25 
ROOT
HETATM    1  C15   D T9000       3.941  15.191  -2.270  1.00 25.51     0.125 A 
HETATM    2  C4    D T9000       4.823  15.656  -3.305  1.00 26.27     0.029 A 
HETATM    3  C19   D T9000       2.864  16.074  -1.924  1.00 24.04     0.173 A 
HETATM    4  N22   D T9000       1.957  15.682  -0.920  1.00 22.39    -0.078 NA
HETATM    5  N23   D T9000       2.648  17.283  -2.507  1.00 23.93    -0.228 NA
HETATM    6  C5    D T9000       3.505  17.698  -3.489  1.00 26.12     0.100 A 
HETATM    7  C14   D T9000       4.622  16.925  -3.934  1.00 28.08     0.024 A 
ENDROOT
BRANCH   1   8
HETATM    8  O27   D T9000       4.044  13.954  -1.611  1.00 26.96    -0.326 OA
BRANCH   8   9
HETATM    9  C21   D T9000       5.206  13.467  -0.846  1.00 29.02     0.145 C 
HETATM   10  C1    D T9000       5.859  12.395  -1.731  1.00 31.25     0.038 C 
BRANCH   9  11
HETATM   11  C17   D T9000       4.860  12.880   0.576  1.00 31.05     0.029 A 
HETATM   12  C13   D T9000       5.873  12.866   1.628  1.00 30.66     0.057 A 
HETATM   13 CL     D T9000       7.489  13.474   1.420  1.00 31.95    -0.083 Cl
HETATM   14  C3    D T9000       5.566  12.333   2.913  1.00 30.41     0.013 A 
HETATM   15  C2    D T9000       4.283  11.807   3.202  1.00 31.69     0.031 A 
HETATM   16  C12   D T9000       3.270  11.798   2.209  1.00 33.21     0.150 A 
HETATM   17  F     D T9000       2.073  11.287   2.526  1.00 33.89    -0.203 F 
HETATM   18  C18   D T9000       3.531  12.328   0.894  1.00 33.60     0.084 A 
HETATM   19 CL2    D T9000       2.212  12.275  -0.266  1.00 45.49    -0.080 Cl
ENDBRANCH   9  11
ENDBRANCH   8   9
ENDBRANCH   1   8
BRANCH   7  20
HETATM   20  C16   D T9000       5.570  17.393  -5.023  1.00 30.74     0.041 A 
HETATM   21  C6    D T9000       5.461  18.623  -5.810  1.00 33.28     0.122 A 
HETATM   22  N24   D T9000       6.438  18.682  -6.634  1.00 35.40    -0.168 NA
HETATM   23  N26   D T9000       7.189  17.650  -6.500  1.00 35.93    -0.252 N 
HETATM   24  C7    D T9000       6.723  16.769  -5.498  1.00 33.34     0.097 A 
BRANCH  23  25
HETATM   25  C20   D T9000       8.398  17.470  -7.338  1.00 41.25     0.110 C 
HETATM   26  C8    D T9000       8.729  15.970  -7.502  1.00 43.15     0.063 C 
HETATM   27  C10   D T9000       9.990  15.814  -8.384  1.00 45.06     0.292 C 
HETATM   28  N25   D T9000      11.152  16.590  -7.859  1.00 46.53     0.339 N 
HETATM   29  C11   D T9000      10.837  18.033  -7.646  1.00 45.16     0.292 C 
HETATM   30  C9    D T9000       9.598  18.240  -6.745  1.00 43.46     0.063 C 
ENDBRANCH  23  25
ENDBRANCH   7  20
TORSDOF 5
ENDMDL
MODEL 3
REMARK VINA RESULT:    -8.732      0.771      1.886
REMARK INTER + INTRA:         -11.873
REMARK INTER:                 -11.294
REMARK INTRA:                  -0.579
REMARK UNBOUND:                -0.589
REMARK  5 active torsions:
REMARK  status: ('A' for Active; 'I' for Inactive)
REMARK    1  A    between atoms: C17_7  and  C21_10 
REMARK    2  A    between atoms: C21_10  and  O27_12 
REMARK    3  A    between atoms: O27_12  and  C15_13 
REMARK    4  A    between atoms: C14_19  and  C16_20 
REMARK    5  A    between atoms: N26_23  and  C20_25 
ROOT
HETATM    1  C15   D T9000       5.163  12.500   2.250  1.00 25.51     0.125 A 
HETATM    2  C4    D T9000       6.513  12.183   2.628  1.00 26.27     0.029 A 
HETATM    3  C19   D T9000       4.140  11.688   2.844  1.00 24.04     0.173 A 
HETATM    4  N22   D T9000       2.793  11.944   2.522  1.00 22.39    -0.078 NA
HETATM    5  N23   D T9000       4.379  10.671   3.715  1.00 23.93    -0.228 NA
HETATM    6  C5    D T9000       5.675  10.393   4.055  1.00 26.12     0.100 A 
HETATM    7  C14   D T9000       6.795  11.117   3.539  1.00 28.08     0.024 A 
ENDROOT
BRANCH   1   8
HETATM    8  O27   D T9000       4.787  13.538   1.381  1.00 26.96    -0.326 OA
BRANCH   8   9
HETATM    9  C21   D T9000       4.286  13.386   0.002  1.00 29.02     0.145 C 
HETATM   10  C1    D T9000       5.160  12.295  -0.633  1.00 31.25     0.038 C 
BRANCH   9  11
HETATM   11  C17   D T9000       4.325  14.704  -0.861  1.00 31.05     0.029 A 
HETATM   12  C13   D T9000       5.594  15.391  -1.092  1.00 30.66     0.057 A 
HETATM   13 CL     D T9000       7.118  14.838  -0.463  1.00 31.95    -0.083 Cl
HETATM   14  C3    D T9000       5.634  16.584  -1.869  1.00 30.41     0.013 A 
HETATM   15  C2    D T9000       4.455  17.132  -2.432  1.00 31.69     0.031 A 
HETATM   16  C12   D T9000       3.201  16.500  -2.232  1.00 33.21     0.150 A 
HETATM   17  F     D T9000       2.113  17.056  -2.781  1.00 33.89    -0.203 F 
HETATM   18  C18   D T9000       3.110  15.289  -1.456  1.00 33.60     0.084 A 
HETATM   19 CL2    D T9000       1.513  14.579  -1.265  1.00 45.49    -0.080 Cl
ENDBRANCH   9  11
ENDBRANCH   8   9
ENDBRANCH   1   8
BRANCH   7  20
HETATM   20  C16   D T9000       8.229  10.801   3.920  1.00 30.74     0.041 A 
HETATM   21  C6    D T9000       9.414  11.605   3.613  1.00 33.28     0.122 A 
HETATM   22  N24   D T9000      10.450  11.025   4.090  1.00 35.40    -0.168 NA
HETATM   23  N26   D T9000      10.113   9.935   4.678  1.00 35.93    -0.252 N 
HETATM   24  C7    D T9000       8.719   9.703   4.626  1.00 33.34     0.097 A 
BRANCH  23  25
HETATM   25  C20   D T9000      11.127   9.067   5.321  1.00 41.25     0.110 C 
HETATM   26  C8    D T9000      11.399   9.527   6.770  1.00 43.15     0.063 C 
HETATM   27  C10   D T9000      12.456   8.600   7.415  1.00 45.06     0.292 C 
HETATM   28  N25   D T9000      13.709   8.517   6.608  1.00 46.53     0.339 N 
HETATM   29  C11   D T9000      13.462   8.122   5.191  1.00 45.16     0.292 C 
HETATM   30  C9    D T9000      12.431   9.040   4.494  1.00 43.46     0.063 C 
ENDBRANCH  23  25
ENDBRANCH   7  20
TORSDOF 5
ENDMDL
MODEL 4
REMARK VINA RESULT:    -8.720      1.985      3.003
REMARK INTER + INTRA:         -11.858
REMARK INTER:                 -10.999
REMARK INTRA:                  -0.858
REMARK UNBOUND:                -0.589
REMARK  5 active torsions:
REMARK  status: ('A' for Active; 'I' for Inactive)
REMARK    1  A    between atoms: C17_7  and  C21_10 
REMARK    2  A    between atoms: C21_10  and  O27_12 
REMARK    3  A    between atoms: O27_12  and  C15_13 
REMARK    4  A    between atoms: C14_19  and  C16_20 
REMARK    5  A    between atoms: N26_23  and  C20_25 
ROOT
HETATM    1  C15   D T9000       3.674  12.975   0.465  1.00 25.51     0.125 A 
HETATM    2  C4    D T9000       5.026  12.857   0.939  1.00 26.27     0.029 A 
HETATM    3  C19   D T9000       2.660  12.434   1.325  1.00 24.04     0.173 A 
HETATM    4  N22   D T9000       1.313  12.519   0.926  1.00 22.39    -0.078 NA
HETATM    5  N23   D T9000       2.910  11.837   2.521  1.00 23.93    -0.228 NA
HETATM    6  C5    D T9000       4.207  11.739   2.945  1.00 26.12     0.100 A 
HETATM    7  C14   D T9000       5.318  12.231   2.192  1.00 28.08     0.024 A 
ENDROOT
BRANCH   1   8
HETATM    8  O27   D T9000       3.287  13.590  -0.738  1.00 26.96    -0.326 OA
BRANCH   8   9
HETATM    9  C21   D T9000       3.380  15.027  -1.054  1.00 29.02     0.145 C 
HETATM   10  C1    D T9000       2.028  15.396  -1.683  1.00 31.25     0.038 C 
BRANCH   9  11
HETATM   11  C17   D T9000       4.566  15.414  -2.017  1.00 31.05     0.029 A 
HETATM   12  C13   D T9000       5.087  16.779  -2.024  1.00 30.66     0.057 A 
HETATM   13 CL     D T9000       4.473  18.051  -1.010  1.00 31.95    -0.083 Cl
HETATM   14  C3    D T9000       6.157  17.135  -2.894  1.00 30.41     0.013 A 
HETATM   15  C2    D T9000       6.738  16.184  -3.769  1.00 31.69     0.031 A 
HETATM   16  C12   D T9000       6.263  14.848  -3.797  1.00 33.21     0.150 A 
HETATM   17  F     D T9000       6.841  13.984  -4.643  1.00 33.89    -0.203 F 
HETATM   18  C18   D T9000       5.184  14.439  -2.933  1.00 33.60     0.084 A 
HETATM   19 CL2    D T9000       4.666  12.763  -3.039  1.00 45.49    -0.080 Cl
ENDBRANCH   9  11
ENDBRANCH   8   9
ENDBRANCH   1   8
BRANCH   7  20
HETATM   20  C16   D T9000       6.755  12.116   2.668  1.00 30.74     0.041 A 
HETATM   21  C6    D T9000       7.908  12.861   2.158  1.00 33.28     0.122 A 
HETATM   22  N24   D T9000       8.956  12.500   2.797  1.00 35.40    -0.168 NA
HETATM   23  N26   D T9000       8.655  11.610   3.670  1.00 35.93    -0.252 N 
HETATM   24  C7    D T9000       7.275  11.297   3.668  1.00 33.34     0.097 A 
BRANCH  23  25
HETATM   25  C20   D T9000       9.690  11.019   4.551  1.00 41.25     0.110 C 
HETATM   26  C8    D T9000      10.980  10.726   3.753  1.00 43.15     0.063 C 
HETATM   27  C10   D T9000      12.042  10.116   4.699  1.00 45.06     0.292 C 
HETATM   28  N25   D T9000      11.539   8.907   5.416  1.00 46.53     0.339 N 
HETATM   29  C11   D T9000      10.265   9.157   6.151  1.00 45.16     0.292 C 
HETATM   30  C9    D T9000       9.162   9.741   5.239  1.00 43.46     0.063 C 
ENDBRANCH  23  25
ENDBRANCH   7  20
TORSDOF 5
ENDMDL
MODEL 5
REMARK VINA RESULT:    -8.436      5.796      9.041
REMARK INTER + INTRA:         -11.491
REMARK INTER:                 -10.754
REMARK INTRA:                  -0.737
REMARK UNBOUND:                -0.589
REMARK  5 active torsions:
REMARK  status: ('A' for Active; 'I' for Inactive)
REMARK    1  A    between atoms: C17_7  and  C21_10 
REMARK    2  A    between atoms: C21_10  and  O27_12 
REMARK    3  A    between atoms: O27_12  and  C15_13 
REMARK    4  A    between atoms: C14_19  and  C16_20 
REMARK    5  A    between atoms: N26_23  and  C20_25 
ROOT
HETATM    1  C15   D T9000       4.929  15.308  -1.665  1.00 25.51     0.125 A 
HETATM    2  C4    D T9000       6.165  15.558  -2.357  1.00 26.27     0.029 A 
HETATM    3  C19   D T9000       3.793  16.054  -2.125  1.00 24.04     0.173 A 
HETATM    4  N22   D T9000       2.549  15.858  -1.495  1.00 22.39    -0.078 NA
HETATM    5  N23   D T9000       3.829  16.952  -3.146  1.00 23.93    -0.228 NA
HETATM    6  C5    D T9000       5.019  17.168  -3.785  1.00 26.12     0.100 A 
HETATM    7  C14   D T9000       6.233  16.499  -3.433  1.00 28.08     0.024 A 
ENDROOT
BRANCH   1   8
HETATM    8  O27   D T9000       4.760  14.391  -0.614  1.00 26.96    -0.326 OA
BRANCH   8   9
HETATM    9  C21   D T9000       5.630  13.241  -0.308  1.00 29.02     0.145 C 
HETATM   10  C1    D T9000       5.409  12.243  -1.454  1.00 31.25     0.038 C 
BRANCH   9  11
HETATM   11  C17   D T9000       5.355  12.559   1.086  1.00 31.05     0.029 A 
HETATM   12  C13   D T9000       3.983  12.297   1.513  1.00 30.66     0.057 A 
HETATM   13 CL     D T9000       2.583  12.693   0.562  1.00 31.95    -0.083 Cl
HETATM   14  C3    D T9000       3.728  11.683   2.774  1.00 30.41     0.013 A 
HETATM   15  C2    D T9000       4.789  11.316   3.639  1.00 31.69     0.031 A 
HETATM   16  C12   D T9000       6.137  11.554   3.265  1.00 33.21     0.150 A 
HETATM   17  F     D T9000       7.107  11.193   4.115  1.00 33.89    -0.203 F 
HETATM   18  C18   D T9000       6.445  12.170   1.998  1.00 33.60     0.084 A 
HETATM   19 CL2    D T9000       8.144  12.422   1.624  1.00 45.49    -0.080 Cl
ENDBRANCH   9  11
ENDBRANCH   8   9
ENDBRANCH   1   8
BRANCH   7  20
HETATM   20  C16   D T9000       7.550  16.746  -4.145  1.00 30.74     0.041 A 
HETATM   21  C6    D T9000       7.917  17.932  -4.920  1.00 33.28     0.122 A 
HETATM   22  N24   D T9000       9.104  17.786  -5.375  1.00 35.40    -0.168 NA
HETATM   23  N26   D T9000       9.581  16.654  -5.003  1.00 35.93    -0.252 N 
HETATM   24  C7    D T9000       8.668  15.916  -4.214  1.00 33.34     0.097 A 
BRANCH  23  25
HETATM   25  C20   D T9000      10.947  16.233  -5.395  1.00 41.25     0.110 C 
HETATM   26  C8    D T9000      11.023  15.983  -6.918  1.00 43.15     0.063 C 
HETATM   27  C10   D T9000      12.460  15.551  -7.296  1.00 45.06     0.292 C 
HETATM   28  N25   D T9000      12.926  14.371  -6.509  1.00 46.53     0.339 N 
HETATM   29  C11   D T9000      12.811  14.574  -5.035  1.00 45.16     0.292 C 
HETATM   30  C9    D T9000      11.383  14.980  -4.605  1.00 43.46     0.063 C 
ENDBRANCH  23  25
ENDBRANCH   7  20
TORSDOF 5
ENDMDL
MODEL 6
REMARK VINA RESULT:    -8.313      2.362      3.052
REMARK INTER + INTRA:         -11.331
REMARK INTER:                 -10.474
REMARK INTRA:                  -0.858
REMARK UNBOUND:                -0.589
REMARK  5 active torsions:
REMARK  status: ('A' for Active; 'I' for Inactive)
REMARK    1  A    between atoms: C17_7  and  C21_10 
REMARK    2  A    between atoms: C21_10  and  O27_12 
REMARK    3  A    between atoms: O27_12  and  C15_13 
REMARK    4  A    between atoms: C14_19  and  C16_20 
REMARK    5  A    between atoms: N26_23  and  C20_25 
ROOT
HETATM    1  C15   D T9000       7.015  13.211   1.262  1.00 25.51     0.125 A 
HETATM    2  C4    D T9000       7.444  12.254   2.246  1.00 26.27     0.029 A 
HETATM    3  C19   D T9000       8.057  13.960   0.622  1.00 24.04     0.173 A 
HETATM    4  N22   D T9000       7.711  14.912  -0.356  1.00 22.39    -0.078 NA
HETATM    5  N23   D T9000       9.382  13.813   0.892  1.00 23.93    -0.228 NA
HETATM    6  C5    D T9000       9.759  12.895   1.834  1.00 26.12     0.100 A 
HETATM    7  C14   D T9000       8.830  12.080   2.553  1.00 28.08     0.024 A 
ENDROOT
BRANCH   1   8
HETATM    8  O27   D T9000       5.682  13.437   0.878  1.00 26.96    -0.326 OA
BRANCH   8   9
HETATM    9  C21   D T9000       4.789  12.473   0.209  1.00 29.02     0.145 C 
HETATM   10  C1    D T9000       5.526  12.052  -1.070  1.00 31.25     0.038 C 
BRANCH   9  11
HETATM   11  C17   D T9000       3.355  13.031  -0.132  1.00 31.05     0.029 A 
HETATM   12  C13   D T9000       2.165  12.320   0.330  1.00 30.66     0.057 A 
HETATM   13 CL     D T9000       2.217  10.855   1.264  1.00 31.95    -0.083 Cl
HETATM   14  C3    D T9000       0.866  12.818   0.021  1.00 30.41     0.013 A 
HETATM   15  C2    D T9000       0.696  14.004  -0.736  1.00 31.69     0.031 A 
HETATM   16  C12   D T9000       1.824  14.725  -1.207  1.00 33.21     0.150 A 
HETATM   17  F     D T9000       1.615  15.839  -1.921  1.00 33.89    -0.203 F 
HETATM   18  C18   D T9000       3.159  14.262  -0.917  1.00 33.60     0.084 A 
HETATM   19 CL2    D T9000       4.491  15.224  -1.542  1.00 45.49    -0.080 Cl
ENDBRANCH   9  11
ENDBRANCH   8   9
ENDBRANCH   1   8
BRANCH   7  20
HETATM   20  C16   D T9000       9.256  11.066   3.598  1.00 30.74     0.041 A 
HETATM   21  C6    D T9000       8.376  10.271   4.457  1.00 33.28     0.122 A 
HETATM   22  N24   D T9000       9.089   9.527   5.215  1.00 35.40    -0.168 NA
HETATM   23  N26   D T9000      10.334   9.718   4.974  1.00 35.93    -0.252 N 
HETATM   24  C7    D T9000      10.546  10.680   3.958  1.00 33.34     0.097 A 
BRANCH  23  25
HETATM   25  C20   D T9000      11.381   8.977   5.716  1.00 41.25     0.110 C 
HETATM   26  C8    D T9000      11.929   9.830   6.882  1.00 43.15     0.063 C 
HETATM   27  C10   D T9000      13.014   9.028   7.640  1.00 45.06     0.292 C 
HETATM   28  N25   D T9000      14.102   8.547   6.737  1.00 46.53     0.339 N 
HETATM   29  C11   D T9000      13.587   7.763   5.576  1.00 45.16     0.292 C 
HETATM   30  C9    D T9000      12.519   8.536   4.769  1.00 43.46     0.063 C 
ENDBRANCH  23  25
ENDBRANCH   7  20
TORSDOF 5
ENDMDL
MODEL 7
REMARK VINA RESULT:    -8.245      2.751      4.160
REMARK INTER + INTRA:         -11.244
REMARK INTER:                 -10.621
REMARK INTRA:                  -0.623
REMARK UNBOUND:                -0.589
REMARK  5 active torsions:
REMARK  status: ('A' for Active; 'I' for Inactive)
REMARK    1  A    between atoms: C17_7  and  C21_10 
REMARK    2  A    between atoms: C21_10  and  O27_12 
REMARK    3  A    between atoms: O27_12  and  C15_13 
REMARK    4  A    between atoms: C14_19  and  C16_20 
REMARK    5  A    between atoms: N26_23  and  C20_25 
ROOT
HETATM    1  C15   D T9000       3.967  14.066  -0.764  1.00 25.51     0.125 A 
HETATM    2  C4    D T9000       4.910  13.484   0.152  1.00 26.27     0.029 A 
HETATM    3  C19   D T9000       2.582  13.869  -0.445  1.00 24.04     0.173 A 
HETATM    4  N22   D T9000       1.602  14.415  -1.296  1.00 22.39    -0.078 NA
HETATM    5  N23   D T9000       2.137  13.184   0.643  1.00 23.93    -0.228 NA
HETATM    6  C5    D T9000       3.058  12.642   1.496  1.00 26.12     0.100 A 
HETATM    7  C14   D T9000       4.470  12.756   1.302  1.00 28.08     0.024 A 
ENDROOT
BRANCH   1   8
HETATM    8  O27   D T9000       4.301  14.814  -1.906  1.00 26.96    -0.326 OA
BRANCH   8   9
HETATM    9  C21   D T9000       5.633  15.351  -2.240  1.00 29.02     0.145 C 
HETATM   10  C1    D T9000       5.889  16.472  -1.222  1.00 31.25     0.038 C 
BRANCH   9  11
HETATM   11  C17   D T9000       5.774  15.894  -3.713  1.00 31.05     0.029 A 
HETATM   12  C13   D T9000       4.891  16.957  -4.188  1.00 30.66     0.057 A 
HETATM   13 CL     D T9000       3.656  17.695  -3.212  1.00 31.95    -0.083 Cl
HETATM   14  C3    D T9000       5.012  17.449  -5.520  1.00 30.41     0.013 A 
HETATM   15  C2    D T9000       5.981  16.924  -6.411  1.00 31.69     0.031 A 
HETATM   16  C12   D T9000       6.857  15.889  -5.992  1.00 33.21     0.150 A 
HETATM   17  F     D T9000       7.755  15.422  -6.869  1.00 33.89    -0.203 F 
HETATM   18  C18   D T9000       6.775  15.361  -4.653  1.00 33.60     0.084 A 
HETATM   19 CL2    D T9000       7.904  14.082  -4.228  1.00 45.49    -0.080 Cl
ENDBRANCH   9  11
ENDBRANCH   8   9
ENDBRANCH   1   8
BRANCH   7  20
HETATM   20  C16   D T9000       5.487  12.150   2.252  1.00 30.74     0.041 A 
HETATM   21  C6    D T9000       5.210  11.244   3.369  1.00 33.28     0.122 A 
HETATM   22  N24   D T9000       6.311  10.941   3.947  1.00 35.40    -0.168 NA
HETATM   23  N26   D T9000       7.290  11.526   3.361  1.00 35.93    -0.252 N 
HETATM   24  C7    D T9000       6.870  12.319   2.267  1.00 33.34     0.097 A 
BRANCH  23  25
HETATM   25  C20   D T9000       8.684  11.344   3.832  1.00 41.25     0.110 C 
HETATM   26  C8    D T9000       9.654  11.241   2.635  1.00 43.15     0.063 C 
HETATM   27  C10   D T9000      11.098  11.056   3.157  1.00 45.06     0.292 C 
HETATM   28  N25   D T9000      11.225   9.893   4.085  1.00 46.53     0.339 N 
HETATM   29  C11   D T9000      10.260   9.949   5.221  1.00 45.16     0.292 C 
HETATM   30  C9    D T9000       8.797  10.104   4.746  1.00 43.46     0.063 C 
ENDBRANCH  23  25
ENDBRANCH   7  20
TORSDOF 5
ENDMDL
MODEL 8
REMARK VINA RESULT:    -8.238      5.490      9.630
REMARK INTER + INTRA:         -11.235
REMARK INTER:                 -10.695
REMARK INTRA:                  -0.539
REMARK UNBOUND:                -0.589
REMARK  5 active torsions:
REMARK  status: ('A' for Active; 'I' for Inactive)
REMARK    1  A    between atoms: C17_7  and  C21_10 
REMARK    2  A    between atoms: C21_10  and  O27_12 
REMARK    3  A    between atoms: O27_12  and  C15_13 
REMARK    4  A    between atoms: C14_19  and  C16_20 
REMARK    5  A    between atoms: N26_23  and  C20_25 
ROOT
HETATM    1  C15   D T9000       5.380  12.785  -0.635  1.00 25.51     0.125 A 
HETATM    2  C4    D T9000       6.196  13.487  -1.589  1.00 26.27     0.029 A 
HETATM    3  C19   D T9000       3.964  12.859  -0.850  1.00 24.04     0.173 A 
HETATM    4  N22   D T9000       3.103  12.192   0.043  1.00 22.39    -0.078 NA
HETATM    5  N23   D T9000       3.379  13.535  -1.875  1.00 23.93    -0.228 NA
HETATM    6  C5    D T9000       4.181  14.193  -2.766  1.00 26.12     0.100 A 
HETATM    7  C14   D T9000       5.608  14.209  -2.675  1.00 28.08     0.024 A 
ENDROOT
BRANCH   1   8
HETATM    8  O27   D T9000       5.865  12.034   0.449  1.00 26.96    -0.326 OA
BRANCH   8   9
HETATM    9  C21   D T9000       5.957  12.480   1.850  1.00 29.02     0.145 C 
HETATM   10  C1    D T9000       6.041  14.012   1.788  1.00 31.25     0.038 C 
BRANCH   9  11
HETATM   11  C17   D T9000       7.178  11.888   2.652  1.00 31.05     0.029 A 
HETATM   12  C13   D T9000       6.949  10.928   3.729  1.00 30.66     0.057 A 
HETATM   13 CL     D T9000       5.373  10.370   4.207  1.00 31.95    -0.083 Cl
HETATM   14  C3    D T9000       8.049  10.392   4.459  1.00 30.41     0.013 A 
HETATM   15  C2    D T9000       9.382  10.773   4.163  1.00 31.69     0.031 A 
HETATM   16  C12   D T9000       9.650  11.703   3.126  1.00 33.21     0.150 A 
HETATM   17  F     D T9000      10.924  12.036   2.884  1.00 33.89    -0.203 F 
HETATM   18  C18   D T9000       8.570  12.271   2.358  1.00 33.60     0.084 A 
HETATM   19 CL2    D T9000       9.003  13.414   1.094  1.00 45.49    -0.080 Cl
ENDBRANCH   9  11
ENDBRANCH   8   9
ENDBRANCH   1   8
BRANCH   7  20
HETATM   20  C16   D T9000       6.492  14.944  -3.666  1.00 30.74     0.041 A 
HETATM   21  C6    D T9000       6.794  16.376  -3.676  1.00 33.28     0.122 A 
HETATM   22  N24   D T9000       7.570  16.635  -4.659  1.00 35.40    -0.168 NA
HETATM   23  N26   D T9000       7.829  15.560  -5.310  1.00 35.93    -0.252 N 
HETATM   24  C7    D T9000       7.190  14.426  -4.756  1.00 33.34     0.097 A 
BRANCH  23  25
HETATM   25  C20   D T9000       8.710  15.580  -6.501  1.00 41.25     0.110 C 
HETATM   26  C8    D T9000      10.167  15.895  -6.095  1.00 43.15     0.063 C 
HETATM   27  C10   D T9000      11.063  15.904  -7.357  1.00 45.06     0.292 C 
HETATM   28  N25   D T9000      10.558  16.837  -8.407  1.00 46.53     0.339 N 
HETATM   29  C11   D T9000       9.135  16.581  -8.777  1.00 45.16     0.292 C 
HETATM   30  C9    D T9000       8.196  16.591  -7.549  1.00 43.46     0.063 C 
ENDBRANCH  23  25
ENDBRANCH   7  20
TORSDOF 5
ENDMDL
MODEL 9
REMARK VINA RESULT:    -8.109      5.758      8.862
REMARK INTER + INTRA:         -11.069
REMARK INTER:                 -10.278
REMARK INTRA:                  -0.791
REMARK UNBOUND:                -0.589
REMARK  5 active torsions:
REMARK  status: ('A' for Active; 'I' for Inactive)
REMARK    1  A    between atoms: C17_7  and  C21_10 
REMARK    2  A    between atoms: C21_10  and  O27_12 
REMARK    3  A    between atoms: O27_12  and  C15_13 
REMARK    4  A    between atoms: C14_19  and  C16_20 
REMARK    5  A    between atoms: N26_23  and  C20_25 
ROOT
HETATM    1  C15   D T9000       5.112  15.488  -1.842  1.00 25.51     0.125 A 
HETATM    2  C4    D T9000       6.413  15.723  -2.407  1.00 26.27     0.029 A 
HETATM    3  C19   D T9000       4.030  16.214  -2.442  1.00 24.04     0.173 A 
HETATM    4  N22   D T9000       2.726  16.030  -1.942  1.00 22.39    -0.078 NA
HETATM    5  N23   D T9000       4.172  17.080  -3.481  1.00 23.93    -0.228 NA
HETATM    6  C5    D T9000       5.422  17.284  -3.996  1.00 26.12     0.100 A 
HETATM    7  C14   D T9000       6.593  16.632  -3.498  1.00 28.08     0.024 A 
ENDROOT
BRANCH   1   8
HETATM    8  O27   D T9000       4.834  14.602  -0.788  1.00 26.96    -0.326 OA
BRANCH   8   9
HETATM    9  C21   D T9000       5.655  13.449  -0.375  1.00 29.02     0.145 C 
HETATM   10  C1    D T9000       5.594  12.462  -1.549  1.00 31.25     0.038 C 
BRANCH   9  11
HETATM   11  C17   D T9000       5.190  12.755   0.961  1.00 31.05     0.029 A 
HETATM   12  C13   D T9000       6.165  12.460   2.009  1.00 30.66     0.057 A 
HETATM   13 CL     D T9000       7.858  12.836   1.886  1.00 31.95    -0.083 Cl
HETATM   14  C3    D T9000       5.751  11.829   3.218  1.00 30.41     0.013 A 
HETATM   15  C2    D T9000       4.396  11.473   3.433  1.00 31.69     0.031 A 
HETATM   16  C12   D T9000       3.417  11.738   2.441  1.00 33.21     0.150 A 
HETATM   17  F     D T9000       2.150  11.380   2.687  1.00 33.89    -0.203 F 
HETATM   18  C18   D T9000       3.787  12.377   1.203  1.00 33.60     0.084 A 
HETATM   19 CL2    D T9000       2.503  12.665   0.038  1.00 45.49    -0.080 Cl
ENDBRANCH   9  11
ENDBRANCH   8   9
ENDBRANCH   1   8
BRANCH   7  20
HETATM   20  C16   D T9000       7.977  16.864  -4.074  1.00 30.74     0.041 A 
HETATM   21  C6    D T9000       8.433  18.045  -4.809  1.00 33.28     0.122 A 
HETATM   22  N24   D T9000       9.658  17.886  -5.141  1.00 35.40    -0.168 NA
HETATM   23  N26   D T9000      10.084  16.750  -4.723  1.00 35.93    -0.252 N 
HETATM   24  C7    D T9000       9.088  16.023  -4.029  1.00 33.34     0.097 A 
BRANCH  23  25
HETATM   25  C20   D T9000      11.478  16.315  -4.975  1.00 41.25     0.110 C 
HETATM   26  C8    D T9000      11.555  14.776  -5.090  1.00 43.15     0.063 C 
HETATM   27  C10   D T9000      13.019  14.353  -5.357  1.00 45.06     0.292 C 
HETATM   28  N25   D T9000      13.962  14.887  -4.331  1.00 46.53     0.339 N 
HETATM   29  C11   D T9000      13.867  16.367  -4.169  1.00 45.16     0.292 C 
HETATM   30  C9    D T9000      12.424  16.836  -3.871  1.00 43.46     0.063 C 
ENDBRANCH  23  25
ENDBRANCH   7  20
TORSDOF 5
ENDMDL
