MODEL 1
REMARK VINA RESULT:    -8.731      0.000      0.000
REMARK INTER + INTRA:         -12.200
REMARK INTER:                 -11.283
REMARK INTRA:                  -0.917
REMARK UNBOUND:                -0.917
REMARK  5 active torsions:
REMARK  status: ('A' for Active; 'I' for Inactive)
REMARK    1  A    between atoms: C17_7  and  C21_10 
REMARK    2  A    between atoms: C21_10  and  O27_12 
REMARK    3  A    between atoms: O27_12  and  C15_13 
REMARK    4  A    between atoms: C14_19  and  C16_20 
REMARK    5  A    between atoms: N26_23  and  C20_25 
ROOT
HETATM    1  C15   D T9000     -14.709   5.908  -0.923  1.00 27.55     0.125 A 
HETATM    2  C4    D T9000     -14.225   5.152  -2.044  1.00 28.27     0.029 A 
HETATM    3  C19   D T9000     -13.989   7.115  -0.623  1.00 26.72     0.173 A 
HETATM    4  N22   D T9000     -14.414   7.910   0.462  1.00 25.80    -0.078 NA
HETATM    5  N23   D T9000     -12.907   7.557  -1.324  1.00 24.81    -0.228 NA
HETATM    6  C5    D T9000     -12.469   6.810  -2.387  1.00 28.27     0.100 A 
HETATM    7  C14   D T9000     -13.087   5.587  -2.802  1.00 30.75     0.024 A 
ENDROOT
BRANCH   1   8
HETATM    8  O27   D T9000     -15.825   5.572  -0.137  1.00 29.26    -0.326 OA
BRANCH   8   9
HETATM    9  C21   D T9000     -17.223   5.483  -0.599  1.00 32.38     0.145 C 
HETATM   10  C1    D T9000     -17.801   6.900  -0.431  1.00 32.72     0.038 C 
BRANCH   9  11
HETATM   11  C17   D T9000     -18.110   4.418   0.155  1.00 34.58     0.029 A 
HETATM   12  C13   D T9000     -18.873   3.440  -0.613  1.00 34.39     0.057 A 
HETATM   13 CL     D T9000     -18.862   3.366  -2.349  1.00 35.41    -0.083 Cl
HETATM   14  C3    D T9000     -19.683   2.473   0.052  1.00 34.67     0.013 A 
HETATM   15  C2    D T9000     -19.770   2.439   1.466  1.00 35.13     0.031 A 
HETATM   16  C12   D T9000     -19.046   3.372   2.253  1.00 37.02     0.150 A 
HETATM   17  F     D T9000     -19.158   3.305   3.584  1.00 37.34    -0.203 F 
HETATM   18  C18   D T9000     -18.213   4.366   1.623  1.00 36.91     0.084 A 
HETATM   19 CL2    D T9000     -17.361   5.468   2.689  1.00 49.38    -0.080 Cl
ENDBRANCH   9  11
ENDBRANCH   8   9
ENDBRANCH   1   8
BRANCH   7  20
HETATM   20  C16   D T9000     -12.596   4.763  -3.986  1.00 32.36     0.041 A 
HETATM   21  C6    D T9000     -13.421   4.029  -4.952  1.00 35.90     0.122 A 
HETATM   22  N24   D T9000     -12.660   3.456  -5.811  1.00 36.91    -0.168 NA
HETATM   23  N26   D T9000     -11.429   3.711  -5.545  1.00 38.66    -0.252 N 
HETATM   24  C7    D T9000     -11.284   4.534  -4.403  1.00 35.41     0.097 A 
BRANCH  23  25
HETATM   25  C20   D T9000     -10.333   3.169  -6.389  1.00 43.14     0.110 C 
HETATM   26  C8    D T9000     -10.857   2.027  -7.289  1.00 45.28     0.063 C 
HETATM   27  C10   D T9000      -9.700   1.483  -8.163  1.00 46.38     0.292 C 
HETATM   28  N25   D T9000      -8.523   1.060  -7.350  1.00 47.91     0.339 N 
HETATM   29  C11   D T9000      -8.033   2.134  -6.437  1.00 46.73     0.292 C 
HETATM   30  C9    D T9000      -9.148   2.687  -5.520  1.00 45.30     0.063 C 
ENDBRANCH  23  25
ENDBRANCH   7  20
TORSDOF 5
ENDMDL
MODEL 2
REMARK VINA RESULT:    -8.428      3.327      4.943
REMARK INTER + INTRA:         -11.808
REMARK INTER:                 -11.127
REMARK INTRA:                  -0.681
REMARK UNBOUND:                -0.917
REMARK  5 active torsions:
REMARK  status: ('A' for Active; 'I' for Inactive)
REMARK    1  A    between atoms: C17_7  and  C21_10 
REMARK    2  A    between atoms: C21_10  and  O27_12 
REMARK    3  A    between atoms: O27_12  and  C15_13 
REMARK    4  A    between atoms: C14_19  and  C16_20 
REMARK    5  A    between atoms: N26_23  and  C20_25 
ROOT
HETATM    1  C15   D T9000     -11.811   4.982  -3.753  1.00 27.55     0.125 A 
HETATM    2  C4    D T9000     -12.021   3.946  -4.726  1.00 28.27     0.029 A 
HETATM    3  C19   D T9000     -10.482   5.525  -3.694  1.00 26.72     0.173 A 
HETATM    4  N22   D T9000     -10.206   6.551  -2.766  1.00 25.80    -0.078 NA
HETATM    5  N23   D T9000      -9.450   5.116  -4.484  1.00 24.81    -0.228 NA
HETATM    6  C5    D T9000      -9.684   4.123  -5.400  1.00 28.27     0.100 A 
HETATM    7  C14   D T9000     -10.957   3.490  -5.571  1.00 30.75     0.024 A 
ENDROOT
BRANCH   1   8
HETATM    8  O27   D T9000     -12.796   5.507  -2.898  1.00 29.26    -0.326 OA
BRANCH   8   9
HETATM    9  C21   D T9000     -14.031   4.824  -2.467  1.00 32.38     0.145 C 
HETATM   10  C1    D T9000     -15.108   5.244  -3.483  1.00 32.72     0.038 C 
BRANCH   9  11
HETATM   11  C17   D T9000     -14.491   5.145  -0.992  1.00 34.58     0.029 A 
HETATM   12  C13   D T9000     -15.277   4.163  -0.251  1.00 34.39     0.057 A 
HETATM   13 CL     D T9000     -15.743   2.622  -0.903  1.00 35.41    -0.083 Cl
HETATM   14  C3    D T9000     -15.705   4.438   1.080  1.00 34.67     0.013 A 
HETATM   15  C2    D T9000     -15.384   5.664   1.714  1.00 35.13     0.031 A 
HETATM   16  C12   D T9000     -14.622   6.648   1.031  1.00 37.02     0.150 A 
HETATM   17  F     D T9000     -14.343   7.792   1.666  1.00 37.34    -0.203 F 
HETATM   18  C18   D T9000     -14.167   6.413  -0.316  1.00 36.91     0.084 A 
HETATM   19 CL2    D T9000     -13.233   7.694  -1.066  1.00 49.38    -0.080 Cl
ENDBRANCH   9  11
ENDBRANCH   8   9
ENDBRANCH   1   8
BRANCH   7  20
HETATM   20  C16   D T9000     -11.210   2.388  -6.594  1.00 32.36     0.041 A 
HETATM   21  C6    D T9000     -10.314   1.967  -7.676  1.00 35.90     0.122 A 
HETATM   22  N24   D T9000     -10.860   1.010  -8.332  1.00 36.91    -0.168 NA
HETATM   23  N26   D T9000     -12.009   0.734  -7.828  1.00 38.66    -0.252 N 
HETATM   24  C7    D T9000     -12.323   1.555  -6.718  1.00 35.41     0.097 A 
BRANCH  23  25
HETATM   25  C20   D T9000     -12.859  -0.343  -8.398  1.00 43.14     0.110 C 
HETATM   26  C8    D T9000     -13.116  -1.444  -7.344  1.00 45.28     0.063 C 
HETATM   27  C10   D T9000     -14.008  -2.552  -7.957  1.00 46.38     0.292 C 
HETATM   28  N25   D T9000     -13.439  -3.107  -9.220  1.00 47.91     0.339 N 
HETATM   29  C11   D T9000     -13.138  -2.053 -10.232  1.00 46.73     0.292 C 
HETATM   30  C9    D T9000     -12.221  -0.940  -9.674  1.00 45.30     0.063 C 
ENDBRANCH  23  25
ENDBRANCH   7  20
TORSDOF 5
ENDMDL
MODEL 3
REMARK VINA RESULT:    -8.409      1.358      2.210
REMARK INTER + INTRA:         -11.785
REMARK INTER:                 -11.138
REMARK INTRA:                  -0.646
REMARK UNBOUND:                -0.917
REMARK  5 active torsions:
REMARK  status: ('A' for Active; 'I' for Inactive)
REMARK    1  A    between atoms: C17_7  and  C21_10 
REMARK    2  A    between atoms: C21_10  and  O27_12 
REMARK    3  A    between atoms: O27_12  and  C15_13 
REMARK    4  A    between atoms: C14_19  and  C16_20 
REMARK    5  A    between atoms: N26_23  and  C20_25 
ROOT
HETATM    1  C15   D T9000     -14.649   6.007  -1.087  1.00 27.55     0.125 A 
HETATM    2  C4    D T9000     -14.154   5.250  -2.203  1.00 28.27     0.029 A 
HETATM    3  C19   D T9000     -13.876   7.162  -0.722  1.00 26.72     0.173 A 
HETATM    4  N22   D T9000     -14.308   7.956   0.361  1.00 25.80    -0.078 NA
HETATM    5  N23   D T9000     -12.737   7.554  -1.357  1.00 24.81    -0.228 NA
HETATM    6  C5    D T9000     -12.290   6.808  -2.417  1.00 28.27     0.100 A 
HETATM    7  C14   D T9000     -12.957   5.633  -2.892  1.00 30.75     0.024 A 
ENDROOT
BRANCH   1   8
HETATM    8  O27   D T9000     -15.821   5.720  -0.366  1.00 29.26    -0.326 OA
BRANCH   8   9
HETATM    9  C21   D T9000     -15.975   4.685   0.673  1.00 32.38     0.145 C 
HETATM   10  C1    D T9000     -14.730   3.787   0.546  1.00 32.72     0.038 C 
BRANCH   9  11
HETATM   11  C17   D T9000     -17.298   3.831   0.575  1.00 34.58     0.029 A 
HETATM   12  C13   D T9000     -18.160   3.699   1.746  1.00 34.39     0.057 A 
HETATM   13 CL     D T9000     -17.817   4.446   3.276  1.00 35.41    -0.083 Cl
HETATM   14  C3    D T9000     -19.357   2.928   1.677  1.00 34.67     0.013 A 
HETATM   15  C2    D T9000     -19.738   2.272   0.480  1.00 35.13     0.031 A 
HETATM   16  C12   D T9000     -18.929   2.373  -0.682  1.00 37.02     0.150 A 
HETATM   17  F     D T9000     -19.325   1.737  -1.791  1.00 37.34    -0.203 F 
HETATM   18  C18   D T9000     -17.711   3.143  -0.659  1.00 36.91     0.084 A 
HETATM   19 CL2    D T9000     -16.789   3.201  -2.150  1.00 49.38    -0.080 Cl
ENDBRANCH   9  11
ENDBRANCH   8   9
ENDBRANCH   1   8
BRANCH   7  20
HETATM   20  C16   D T9000     -12.455   4.809  -4.073  1.00 32.36     0.041 A 
HETATM   21  C6    D T9000     -13.272   4.129  -5.083  1.00 35.90     0.122 A 
HETATM   22  N24   D T9000     -12.504   3.538  -5.923  1.00 36.91    -0.168 NA
HETATM   23  N26   D T9000     -11.275   3.734  -5.605  1.00 38.66    -0.252 N 
HETATM   24  C7    D T9000     -11.139   4.530  -4.442  1.00 35.41     0.097 A 
BRANCH  23  25
HETATM   25  C20   D T9000     -10.171   3.158  -6.416  1.00 43.14     0.110 C 
HETATM   26  C8    D T9000     -10.700   2.025  -7.323  1.00 45.28     0.063 C 
HETATM   27  C10   D T9000      -9.535   1.445  -8.163  1.00 46.38     0.292 C 
HETATM   28  N25   D T9000      -8.390   0.998  -7.316  1.00 47.91     0.339 N 
HETATM   29  C11   D T9000      -7.898   2.065  -6.397  1.00 46.73     0.292 C 
HETATM   30  C9    D T9000      -9.023   2.652  -5.513  1.00 45.30     0.063 C 
ENDBRANCH  23  25
ENDBRANCH   7  20
TORSDOF 5
ENDMDL
MODEL 4
REMARK VINA RESULT:    -8.323      1.958      2.825
REMARK INTER + INTRA:         -11.673
REMARK INTER:                 -10.627
REMARK INTRA:                  -1.045
REMARK UNBOUND:                -0.917
REMARK  5 active torsions:
REMARK  status: ('A' for Active; 'I' for Inactive)
REMARK    1  A    between atoms: C17_7  and  C21_10 
REMARK    2  A    between atoms: C21_10  and  O27_12 
REMARK    3  A    between atoms: O27_12  and  C15_13 
REMARK    4  A    between atoms: C14_19  and  C16_20 
REMARK    5  A    between atoms: N26_23  and  C20_25 
ROOT
HETATM    1  C15   D T9000     -15.325   5.098   0.753  1.00 27.55     0.125 A 
HETATM    2  C4    D T9000     -14.888   4.367  -0.403  1.00 28.27     0.029 A 
HETATM    3  C19   D T9000     -14.889   6.466   0.829  1.00 26.72     0.173 A 
HETATM    4  N22   D T9000     -15.286   7.247   1.935  1.00 25.80    -0.078 NA
HETATM    5  N23   D T9000     -14.109   7.076  -0.106  1.00 24.81    -0.228 NA
HETATM    6  C5    D T9000     -13.707   6.348  -1.197  1.00 28.27     0.100 A 
HETATM    7  C14   D T9000     -14.064   4.977  -1.405  1.00 30.75     0.024 A 
ENDROOT
BRANCH   1   8
HETATM    8  O27   D T9000     -16.148   4.592   1.773  1.00 29.26    -0.326 OA
BRANCH   8   9
HETATM    9  C21   D T9000     -17.560   4.946   2.011  1.00 32.38     0.145 C 
HETATM   10  C1    D T9000     -18.102   3.857   2.955  1.00 32.72     0.038 C 
BRANCH   9  11
HETATM   11  C17   D T9000     -18.449   5.059   0.712  1.00 34.58     0.029 A 
HETATM   12  C13   D T9000     -19.083   6.331   0.381  1.00 34.39     0.057 A 
HETATM   13 CL     D T9000     -18.914   7.766   1.346  1.00 35.41    -0.083 Cl
HETATM   14  C3    D T9000     -19.893   6.451  -0.786  1.00 34.67     0.013 A 
HETATM   15  C2    D T9000     -20.103   5.347  -1.649  1.00 35.13     0.031 A 
HETATM   16  C12   D T9000     -19.505   4.091  -1.365  1.00 37.02     0.150 A 
HETATM   17  F     D T9000     -19.731   3.074  -2.204  1.00 37.34    -0.203 F 
HETATM   18  C18   D T9000     -18.678   3.923  -0.196  1.00 36.91     0.084 A 
HETATM   19 CL2    D T9000     -17.988   2.331   0.058  1.00 49.38    -0.080 Cl
ENDBRANCH   9  11
ENDBRANCH   8   9
ENDBRANCH   1   8
BRANCH   7  20
HETATM   20  C16   D T9000     -13.615   4.174  -2.622  1.00 32.36     0.041 A 
HETATM   21  C6    D T9000     -14.051   2.825  -2.996  1.00 35.90     0.122 A 
HETATM   22  N24   D T9000     -13.464   2.475  -4.081  1.00 36.91    -0.168 NA
HETATM   23  N26   D T9000     -12.690   3.417  -4.484  1.00 38.66    -0.252 N 
HETATM   24  C7    D T9000     -12.715   4.541  -3.623  1.00 35.41     0.097 A 
BRANCH  23  25
HETATM   25  C20   D T9000     -11.887   3.275  -5.726  1.00 43.14     0.110 C 
HETATM   26  C8    D T9000     -12.314   2.009  -6.503  1.00 45.28     0.063 C 
HETATM   27  C10   D T9000     -11.470   1.884  -7.796  1.00 46.38     0.292 C 
HETATM   28  N25   D T9000     -10.004   1.906  -7.522  1.00 47.91     0.339 N 
HETATM   29  C11   D T9000      -9.579   3.096  -6.728  1.00 46.73     0.292 C 
HETATM   30  C9    D T9000     -10.374   3.243  -5.410  1.00 45.30     0.063 C 
ENDBRANCH  23  25
ENDBRANCH   7  20
TORSDOF 5
ENDMDL
MODEL 5
REMARK VINA RESULT:    -8.213      2.898      4.661
REMARK INTER + INTRA:         -11.531
REMARK INTER:                 -10.852
REMARK INTRA:                  -0.679
REMARK UNBOUND:                -0.917
REMARK  5 active torsions:
REMARK  status: ('A' for Active; 'I' for Inactive)
REMARK    1  A    between atoms: C17_7  and  C21_10 
REMARK    2  A    between atoms: C21_10  and  O27_12 
REMARK    3  A    between atoms: O27_12  and  C15_13 
REMARK    4  A    between atoms: C14_19  and  C16_20 
REMARK    5  A    between atoms: N26_23  and  C20_25 
ROOT
HETATM    1  C15   D T9000     -12.352   5.402  -3.501  1.00 27.55     0.125 A 
HETATM    2  C4    D T9000     -12.462   4.346  -4.469  1.00 28.27     0.029 A 
HETATM    3  C19   D T9000     -11.032   5.936  -3.305  1.00 26.72     0.173 A 
HETATM    4  N22   D T9000     -10.851   6.980  -2.374  1.00 25.80    -0.078 NA
HETATM    5  N23   D T9000      -9.922   5.502  -3.966  1.00 24.81    -0.228 NA
HETATM    6  C5    D T9000     -10.062   4.490  -4.882  1.00 28.27     0.100 A 
HETATM    7  C14   D T9000     -11.315   3.863  -5.180  1.00 30.75     0.024 A 
ENDROOT
BRANCH   1   8
HETATM    8  O27   D T9000     -13.420   5.953  -2.773  1.00 29.26    -0.326 OA
BRANCH   8   9
HETATM    9  C21   D T9000     -13.699   5.745  -1.340  1.00 32.38     0.145 C 
HETATM   10  C1    D T9000     -13.196   4.325  -1.026  1.00 32.72     0.038 C 
BRANCH   9  11
HETATM   11  C17   D T9000     -15.211   5.913  -0.922  1.00 34.58     0.029 A 
HETATM   12  C13   D T9000     -15.576   6.909   0.082  1.00 34.39     0.057 A 
HETATM   13 CL     D T9000     -14.424   7.951   0.859  1.00 35.41    -0.083 Cl
HETATM   14  C3    D T9000     -16.936   7.071   0.475  1.00 34.67     0.013 A 
HETATM   15  C2    D T9000     -17.963   6.275  -0.092  1.00 35.13     0.031 A 
HETATM   16  C12   D T9000     -17.653   5.295  -1.071  1.00 37.02     0.150 A 
HETATM   17  F     D T9000     -18.652   4.564  -1.579  1.00 37.34    -0.203 F 
HETATM   18  C18   D T9000     -16.291   5.096  -1.500  1.00 36.91     0.084 A 
HETATM   19 CL2    D T9000     -16.021   3.860  -2.714  1.00 49.38    -0.080 Cl
ENDBRANCH   9  11
ENDBRANCH   8   9
ENDBRANCH   1   8
BRANCH   7  20
HETATM   20  C16   D T9000     -11.463   2.740  -6.201  1.00 32.36     0.041 A 
HETATM   21  C6    D T9000     -10.470   2.315  -7.193  1.00 35.90     0.122 A 
HETATM   22  N24   D T9000     -10.945   1.340  -7.877  1.00 36.91    -0.168 NA
HETATM   23  N26   D T9000     -12.129   1.054  -7.470  1.00 38.66    -0.252 N 
HETATM   24  C7    D T9000     -12.550   1.890  -6.407  1.00 35.41     0.097 A 
BRANCH  23  25
HETATM   25  C20   D T9000     -12.912  -0.045  -8.092  1.00 43.14     0.110 C 
HETATM   26  C8    D T9000     -13.208  -1.152  -7.056  1.00 45.28     0.063 C 
HETATM   27  C10   D T9000     -14.029  -2.283  -7.724  1.00 46.38     0.292 C 
HETATM   28  N25   D T9000     -13.366  -2.822  -8.946  1.00 47.91     0.339 N 
HETATM   29  C11   D T9000     -13.026  -1.761  -9.938  1.00 46.73     0.292 C 
HETATM   30  C9    D T9000     -12.177  -0.624  -9.323  1.00 45.30     0.063 C 
ENDBRANCH  23  25
ENDBRANCH   7  20
TORSDOF 5
ENDMDL
MODEL 6
REMARK VINA RESULT:    -8.171      3.949      6.336
REMARK INTER + INTRA:         -11.476
REMARK INTER:                 -10.816
REMARK INTRA:                  -0.660
REMARK UNBOUND:                -0.917
REMARK  5 active torsions:
REMARK  status: ('A' for Active; 'I' for Inactive)
REMARK    1  A    between atoms: C17_7  and  C21_10 
REMARK    2  A    between atoms: C21_10  and  O27_12 
REMARK    3  A    between atoms: O27_12  and  C15_13 
REMARK    4  A    between atoms: C14_19  and  C16_20 
REMARK    5  A    between atoms: N26_23  and  C20_25 
ROOT
HETATM    1  C15   D T9000     -11.587   3.772  -5.164  1.00 27.55     0.125 A 
HETATM    2  C4    D T9000     -12.261   2.762  -5.932  1.00 28.27     0.029 A 
HETATM    3  C19   D T9000     -10.190   3.951  -5.454  1.00 26.72     0.173 A 
HETATM    4  N22   D T9000      -9.467   4.930  -4.742  1.00 25.80    -0.078 NA
HETATM    5  N23   D T9000      -9.502   3.233  -6.385  1.00 24.81    -0.228 NA
HETATM    6  C5    D T9000     -10.175   2.274  -7.098  1.00 28.27     0.100 A 
HETATM    7  C14   D T9000     -11.566   1.986  -6.917  1.00 30.75     0.024 A 
ENDROOT
BRANCH   1   8
HETATM    8  O27   D T9000     -12.188   4.594  -4.195  1.00 29.26    -0.326 OA
BRANCH   8   9
HETATM    9  C21   D T9000     -13.590   4.524  -3.740  1.00 32.38     0.145 C 
HETATM   10  C1    D T9000     -14.398   5.322  -4.779  1.00 32.72     0.038 C 
BRANCH   9  11
HETATM   11  C17   D T9000     -13.847   5.073  -2.283  1.00 34.58     0.029 A 
HETATM   12  C13   D T9000     -13.350   6.394  -1.911  1.00 34.39     0.057 A 
HETATM   13 CL     D T9000     -12.477   7.430  -2.999  1.00 35.41    -0.083 Cl
HETATM   14  C3    D T9000     -13.570   6.904  -0.598  1.00 34.67     0.013 A 
HETATM   15  C2    D T9000     -14.269   6.147   0.374  1.00 35.13     0.031 A 
HETATM   16  C12   D T9000     -14.770   4.857   0.056  1.00 37.02     0.150 A 
HETATM   17  F     D T9000     -15.423   4.176   1.004  1.00 37.34    -0.203 F 
HETATM   18  C18   D T9000     -14.572   4.301  -1.260  1.00 36.91     0.084 A 
HETATM   19 CL2    D T9000     -15.232   2.702  -1.545  1.00 49.38    -0.080 Cl
ENDBRANCH   9  11
ENDBRANCH   8   9
ENDBRANCH   1   8
BRANCH   7  20
HETATM   20  C16   D T9000     -12.309   0.921  -7.716  1.00 32.36     0.041 A 
HETATM   21  C6    D T9000     -13.748   0.641  -7.687  1.00 35.90     0.122 A 
HETATM   22  N24   D T9000     -14.010  -0.322  -8.491  1.00 36.91    -0.168 NA
HETATM   23  N26   D T9000     -12.930  -0.725  -9.058  1.00 38.66    -0.252 N 
HETATM   24  C7    D T9000     -11.793   0.002  -8.631  1.00 35.41     0.097 A 
BRANCH  23  25
HETATM   25  C20   D T9000     -12.948  -1.837 -10.044  1.00 43.14     0.110 C 
HETATM   26  C8    D T9000     -11.712  -1.759 -10.968  1.00 45.28     0.063 C 
HETATM   27  C10   D T9000     -11.748  -2.929 -11.983  1.00 46.38     0.292 C 
HETATM   28  N25   D T9000     -13.024  -2.974 -12.755  1.00 47.91     0.339 N 
HETATM   29  C11   D T9000     -14.231  -2.998 -11.879  1.00 46.73     0.292 C 
HETATM   30  C9    D T9000     -14.255  -1.827 -10.870  1.00 45.30     0.063 C 
ENDBRANCH  23  25
ENDBRANCH   7  20
TORSDOF 5
ENDMDL
MODEL 7
REMARK VINA RESULT:    -8.095      2.592      3.358
REMARK INTER + INTRA:         -11.379
REMARK INTER:                 -10.204
REMARK INTRA:                  -1.175
REMARK UNBOUND:                -0.917
REMARK  5 active torsions:
REMARK  status: ('A' for Active; 'I' for Inactive)
REMARK    1  A    between atoms: C17_7  and  C21_10 
REMARK    2  A    between atoms: C21_10  and  O27_12 
REMARK    3  A    between atoms: O27_12  and  C15_13 
REMARK    4  A    between atoms: C14_19  and  C16_20 
REMARK    5  A    between atoms: N26_23  and  C20_25 
ROOT
HETATM    1  C15   D T9000     -17.078   6.087   0.860  1.00 27.55     0.125 A 
HETATM    2  C4    D T9000     -16.325   5.621  -0.271  1.00 28.27     0.029 A 
HETATM    3  C19   D T9000     -16.322   6.760   1.881  1.00 26.72     0.173 A 
HETATM    4  N22   D T9000     -16.998   7.250   3.018  1.00 25.80    -0.078 NA
HETATM    5  N23   D T9000     -14.976   6.964   1.830  1.00 24.81    -0.228 NA
HETATM    6  C5    D T9000     -14.287   6.504   0.737  1.00 28.27     0.100 A 
HETATM    7  C14   D T9000     -14.907   5.817  -0.356  1.00 30.75     0.024 A 
ENDROOT
BRANCH   1   8
HETATM    8  O27   D T9000     -18.468   5.959   1.019  1.00 29.26    -0.326 OA
BRANCH   8   9
HETATM    9  C21   D T9000     -19.416   5.431   0.021  1.00 32.38     0.145 C 
HETATM   10  C1    D T9000     -20.800   5.948   0.455  1.00 32.72     0.038 C 
BRANCH   9  11
HETATM   11  C17   D T9000     -19.423   3.860  -0.129  1.00 34.58     0.029 A 
HETATM   12  C13   D T9000     -19.034   3.255  -1.399  1.00 34.39     0.057 A 
HETATM   13 CL     D T9000     -18.548   4.176  -2.789  1.00 35.41    -0.083 Cl
HETATM   14  C3    D T9000     -19.038   1.838  -1.554  1.00 34.67     0.013 A 
HETATM   15  C2    D T9000     -19.418   0.986  -0.487  1.00 35.13     0.031 A 
HETATM   16  C12   D T9000     -19.803   1.531   0.765  1.00 37.02     0.150 A 
HETATM   17  F     D T9000     -20.156   0.691   1.745  1.00 37.34    -0.203 F 
HETATM   18  C18   D T9000     -19.813   2.958   0.968  1.00 36.91     0.084 A 
HETATM   19 CL2    D T9000     -20.305   3.525   2.553  1.00 49.38    -0.080 Cl
ENDBRANCH   9  11
ENDBRANCH   8   9
ENDBRANCH   1   8
BRANCH   7  20
HETATM   20  C16   D T9000     -14.135   5.311  -1.569  1.00 32.36     0.041 A 
HETATM   21  C6    D T9000     -12.921   5.896  -2.148  1.00 35.90     0.122 A 
HETATM   22  N24   D T9000     -12.554   5.198  -3.159  1.00 36.91    -0.168 NA
HETATM   23  N26   D T9000     -13.366   4.218  -3.333  1.00 38.66    -0.252 N 
HETATM   24  C7    D T9000     -14.406   4.203  -2.373  1.00 35.41     0.097 A 
BRANCH  23  25
HETATM   25  C20   D T9000     -13.172   3.246  -4.440  1.00 43.14     0.110 C 
HETATM   26  C8    D T9000     -13.597   3.869  -5.788  1.00 45.28     0.063 C 
HETATM   27  C10   D T9000     -13.381   2.842  -6.927  1.00 46.38     0.292 C 
HETATM   28  N25   D T9000     -14.073   1.547  -6.665  1.00 47.91     0.339 N 
HETATM   29  C11   D T9000     -13.713   0.954  -5.344  1.00 46.73     0.292 C 
HETATM   30  C9    D T9000     -13.944   1.934  -4.171  1.00 45.30     0.063 C 
ENDBRANCH  23  25
ENDBRANCH   7  20
TORSDOF 5
ENDMDL
MODEL 8
REMARK VINA RESULT:    -8.052      3.164      5.012
REMARK INTER + INTRA:         -11.323
REMARK INTER:                 -10.940
REMARK INTRA:                  -0.383
REMARK UNBOUND:                -0.917
REMARK  5 active torsions:
REMARK  status: ('A' for Active; 'I' for Inactive)
REMARK    1  A    between atoms: C17_7  and  C21_10 
REMARK    2  A    between atoms: C21_10  and  O27_12 
REMARK    3  A    between atoms: O27_12  and  C15_13 
REMARK    4  A    between atoms: C14_19  and  C16_20 
REMARK    5  A    between atoms: N26_23  and  C20_25 
ROOT
HETATM    1  C15   D T9000     -11.871   4.951  -3.836  1.00 27.55     0.125 A 
HETATM    2  C4    D T9000     -12.047   3.903  -4.802  1.00 28.27     0.029 A 
HETATM    3  C19   D T9000     -10.548   5.507  -3.749  1.00 26.72     0.173 A 
HETATM    4  N22   D T9000     -10.305   6.545  -2.825  1.00 25.80    -0.078 NA
HETATM    5  N23   D T9000      -9.493   5.099  -4.508  1.00 24.81    -0.228 NA
HETATM    6  C5    D T9000      -9.694   4.094  -5.419  1.00 28.27     0.100 A 
HETATM    7  C14   D T9000     -10.957   3.447  -5.615  1.00 30.75     0.024 A 
ENDROOT
BRANCH   1   8
HETATM    8  O27   D T9000     -12.882   5.476  -3.013  1.00 29.26    -0.326 OA
BRANCH   8   9
HETATM    9  C21   D T9000     -14.058   4.746  -2.502  1.00 32.38     0.145 C 
HETATM   10  C1    D T9000     -15.176   5.001  -3.529  1.00 32.72     0.038 C 
BRANCH   9  11
HETATM   11  C17   D T9000     -14.521   5.158  -1.051  1.00 34.58     0.029 A 
HETATM   12  C13   D T9000     -14.106   6.443  -0.498  1.00 34.39     0.057 A 
HETATM   13 CL     D T9000     -13.115   7.581  -1.360  1.00 35.41    -0.083 Cl
HETATM   14  C3    D T9000     -14.511   6.830   0.813  1.00 34.67     0.013 A 
HETATM   15  C2    D T9000     -15.320   5.981   1.609  1.00 35.13     0.031 A 
HETATM   16  C12   D T9000     -15.746   4.722   1.112  1.00 37.02     0.150 A 
HETATM   17  F     D T9000     -16.508   3.951   1.897  1.00 37.34    -0.203 F 
HETATM   18  C18   D T9000     -15.362   4.290  -0.209  1.00 36.91     0.084 A 
HETATM   19 CL2    D T9000     -15.944   2.718  -0.724  1.00 49.38    -0.080 Cl
ENDBRANCH   9  11
ENDBRANCH   8   9
ENDBRANCH   1   8
BRANCH   7  20
HETATM   20  C16   D T9000     -11.174   2.332  -6.632  1.00 32.36     0.041 A 
HETATM   21  C6    D T9000     -10.281   1.958  -7.733  1.00 35.90     0.122 A 
HETATM   22  N24   D T9000     -10.790   0.973  -8.377  1.00 36.91    -0.168 NA
HETATM   23  N26   D T9000     -11.911   0.637  -7.848  1.00 38.66    -0.252 N 
HETATM   24  C7    D T9000     -12.244   1.442  -6.732  1.00 35.41     0.097 A 
BRANCH  23  25
HETATM   25  C20   D T9000     -12.716  -0.485  -8.399  1.00 43.14     0.110 C 
HETATM   26  C8    D T9000     -12.140  -0.947  -9.757  1.00 45.28     0.063 C 
HETATM   27  C10   D T9000     -12.989  -2.119 -10.308  1.00 46.38     0.292 C 
HETATM   28  N25   D T9000     -14.438  -1.778 -10.401  1.00 47.91     0.339 N 
HETATM   29  C11   D T9000     -15.001  -1.282  -9.111  1.00 46.73     0.292 C 
HETATM   30  C9    D T9000     -14.203  -0.087  -8.537  1.00 45.30     0.063 C 
ENDBRANCH  23  25
ENDBRANCH   7  20
TORSDOF 5
ENDMDL
MODEL 9
REMARK VINA RESULT:    -7.901      2.403      3.567
REMARK INTER + INTRA:         -11.128
REMARK INTER:                 -10.493
REMARK INTRA:                  -0.635
REMARK UNBOUND:                -0.917
REMARK  5 active torsions:
REMARK  status: ('A' for Active; 'I' for Inactive)
REMARK    1  A    between atoms: C17_7  and  C21_10 
REMARK    2  A    between atoms: C21_10  and  O27_12 
REMARK    3  A    between atoms: O27_12  and  C15_13 
REMARK    4  A    between atoms: C14_19  and  C16_20 
REMARK    5  A    between atoms: N26_23  and  C20_25 
ROOT
HETATM    1  C15   D T9000     -12.597   6.198  -2.593  1.00 27.55     0.125 A 
HETATM    2  C4    D T9000     -12.512   5.157  -3.578  1.00 28.27     0.029 A 
HETATM    3  C19   D T9000     -11.413   6.995  -2.420  1.00 26.72     0.173 A 
HETATM    4  N22   D T9000     -11.427   8.041  -1.474  1.00 25.80    -0.078 NA
HETATM    5  N23   D T9000     -10.257   6.812  -3.118  1.00 24.81    -0.228 NA
HETATM    6  C5    D T9000     -10.209   5.807  -4.050  1.00 28.27     0.100 A 
HETATM    7  C14   D T9000     -11.310   4.935  -4.328  1.00 30.75     0.024 A 
ENDROOT
BRANCH   1   8
HETATM    8  O27   D T9000     -13.735   6.502  -1.827  1.00 29.26    -0.326 OA
BRANCH   8   9
HETATM    9  C21   D T9000     -14.016   6.033  -0.457  1.00 32.38     0.145 C 
HETATM   10  C1    D T9000     -13.594   4.552  -0.435  1.00 32.72     0.038 C 
BRANCH   9  11
HETATM   11  C17   D T9000     -15.513   6.200   0.014  1.00 34.58     0.029 A 
HETATM   12  C13   D T9000     -16.590   5.638  -0.795  1.00 34.39     0.057 A 
HETATM   13 CL     D T9000     -16.323   4.770  -2.276  1.00 35.41    -0.083 Cl
HETATM   14  C3    D T9000     -17.949   5.783  -0.388  1.00 34.67     0.013 A 
HETATM   15  C2    D T9000     -18.287   6.473   0.802  1.00 35.13     0.031 A 
HETATM   16  C12   D T9000     -17.271   7.036   1.619  1.00 37.02     0.150 A 
HETATM   17  F     D T9000     -17.634   7.681   2.734  1.00 37.34    -0.203 F 
HETATM   18  C18   D T9000     -15.884   6.913   1.247  1.00 36.91     0.084 A 
HETATM   19 CL2    D T9000     -14.712   7.644   2.328  1.00 49.38    -0.080 Cl
ENDBRANCH   9  11
ENDBRANCH   8   9
ENDBRANCH   1   8
BRANCH   7  20
HETATM   20  C16   D T9000     -11.250   3.821  -5.367  1.00 32.36     0.041 A 
HETATM   21  C6    D T9000     -10.044   3.246  -5.973  1.00 35.90     0.122 A 
HETATM   22  N24   D T9000     -10.383   2.328  -6.802  1.00 36.91    -0.168 NA
HETATM   23  N26   D T9000     -11.661   2.212  -6.830  1.00 38.66    -0.252 N 
HETATM   24  C7    D T9000     -12.304   3.119  -5.952  1.00 35.41     0.097 A 
BRANCH  23  25
HETATM   25  C20   D T9000     -12.324   1.214  -7.709  1.00 43.14     0.110 C 
HETATM   26  C8    D T9000     -13.214   0.265  -6.875  1.00 45.28     0.063 C 
HETATM   27  C10   D T9000     -13.898  -0.761  -7.811  1.00 46.38     0.292 C 
HETATM   28  N25   D T9000     -12.918  -1.506  -8.653  1.00 47.91     0.339 N 
HETATM   29  C11   D T9000     -12.016  -0.606  -9.429  1.00 46.73     0.292 C 
HETATM   30  C9    D T9000     -11.284   0.417  -8.529  1.00 45.30     0.063 C 
ENDBRANCH  23  25
ENDBRANCH   7  20
TORSDOF 5
ENDMDL
