MODEL 1
REMARK VINA RESULT:    -8.224      0.000      0.000
REMARK INTER + INTRA:         -11.494
REMARK INTER:                 -10.628
REMARK INTRA:                  -0.866
REMARK UNBOUND:                -0.866
REMARK  5 active torsions:
REMARK  status: ('A' for Active; 'I' for Inactive)
REMARK    1  A    between atoms: C17_7  and  C21_10 
REMARK    2  A    between atoms: C21_10  and  O27_12 
REMARK    3  A    between atoms: O27_12  and  C15_13 
REMARK    4  A    between atoms: C14_19  and  C16_20 
REMARK    5  A    between atoms: N26_23  and  C20_25 
ROOT
HETATM    1  C15   D T9000      -1.732   0.869  14.604  1.00 27.55     0.125 A 
HETATM    2  C4    D T9000      -1.281  -0.378  15.154  1.00 28.27     0.029 A 
HETATM    3  C19   D T9000      -3.152   0.996  14.422  1.00 26.72     0.173 A 
HETATM    4  N22   D T9000      -3.666   2.198  13.892  1.00 25.80    -0.078 NA
HETATM    5  N23   D T9000      -4.055   0.024  14.732  1.00 24.81    -0.228 NA
HETATM    6  C5    D T9000      -3.591  -1.156  15.253  1.00 28.27     0.100 A 
HETATM    7  C14   D T9000      -2.203  -1.424  15.488  1.00 30.75     0.024 A 
ENDROOT
BRANCH   1   8
HETATM    8  O27   D T9000      -0.905   1.955  14.266  1.00 29.26    -0.326 OA
BRANCH   8   9
HETATM    9  C21   D T9000       0.474   1.875  13.751  1.00 32.38     0.145 C 
HETATM   10  C1    D T9000       1.369   2.381  14.895  1.00 32.72     0.038 C 
BRANCH   9  11
HETATM   11  C17   D T9000       0.740   2.688  12.425  1.00 34.58     0.029 A 
HETATM   12  C13   D T9000       1.502   2.075  11.343  1.00 34.39     0.057 A 
HETATM   13 CL     D T9000       2.148   0.464  11.419  1.00 35.41    -0.083 Cl
HETATM   14  C3    D T9000       1.756   2.797  10.139  1.00 34.67     0.013 A 
HETATM   15  C2    D T9000       1.280   4.119   9.965  1.00 35.13     0.031 A 
HETATM   16  C12   D T9000       0.534   4.756  10.992  1.00 37.02     0.150 A 
HETATM   17  F     D T9000       0.104   6.006  10.787  1.00 37.34    -0.203 F 
HETATM   18  C18   D T9000       0.252   4.064  12.225  1.00 36.91     0.084 A 
HETATM   19 CL2    D T9000      -0.678   4.941  13.425  1.00 49.38    -0.080 Cl
ENDBRANCH   9  11
ENDBRANCH   8   9
ENDBRANCH   1   8
BRANCH   7  20
HETATM   20  C16   D T9000      -1.694  -2.738  16.070  1.00 32.36     0.041 A 
HETATM   21  C6    D T9000      -0.370  -3.337  15.868  1.00 35.90     0.122 A 
HETATM   22  N24   D T9000      -0.302  -4.442  16.514  1.00 36.91    -0.168 NA
HETATM   23  N26   D T9000      -1.410  -4.662  17.126  1.00 38.66    -0.252 N 
HETATM   24  C7    D T9000      -2.360  -3.635  16.906  1.00 35.41     0.097 A 
BRANCH  23  25
HETATM   25  C20   D T9000      -1.601  -5.879  17.956  1.00 43.14     0.110 C 
HETATM   26  C8    D T9000      -0.463  -6.892  17.699  1.00 45.28     0.063 C 
HETATM   27  C10   D T9000      -0.678  -8.150  18.577  1.00 46.38     0.292 C 
HETATM   28  N25   D T9000      -2.025  -8.758  18.377  1.00 47.91     0.339 N 
HETATM   29  C11   D T9000      -3.137  -7.783  18.572  1.00 46.73     0.292 C 
HETATM   30  C9    D T9000      -2.981  -6.523  17.688  1.00 45.30     0.063 C 
ENDBRANCH  23  25
ENDBRANCH   7  20
TORSDOF 5
ENDMDL
MODEL 2
REMARK VINA RESULT:    -8.068      1.758      2.132
REMARK INTER + INTRA:         -11.292
REMARK INTER:                 -10.366
REMARK INTRA:                  -0.925
REMARK UNBOUND:                -0.866
REMARK  5 active torsions:
REMARK  status: ('A' for Active; 'I' for Inactive)
REMARK    1  A    between atoms: C17_7  and  C21_10 
REMARK    2  A    between atoms: C21_10  and  O27_12 
REMARK    3  A    between atoms: O27_12  and  C15_13 
REMARK    4  A    between atoms: C14_19  and  C16_20 
REMARK    5  A    between atoms: N26_23  and  C20_25 
ROOT
HETATM    1  C15   D T9000      -3.380   1.193  13.658  1.00 27.55     0.125 A 
HETATM    2  C4    D T9000      -2.489   0.240  14.259  1.00 28.27     0.029 A 
HETATM    3  C19   D T9000      -4.781   0.885  13.749  1.00 26.72     0.173 A 
HETATM    4  N22   D T9000      -5.713   1.782  13.187  1.00 25.80    -0.078 NA
HETATM    5  N23   D T9000      -5.284  -0.228  14.353  1.00 24.81    -0.228 NA
HETATM    6  C5    D T9000      -4.406  -1.120  14.914  1.00 28.27     0.100 A 
HETATM    7  C14   D T9000      -2.984  -0.944  14.898  1.00 30.75     0.024 A 
ENDROOT
BRANCH   1   8
HETATM    8  O27   D T9000      -2.988   2.388  13.029  1.00 29.26    -0.326 OA
BRANCH   8   9
HETATM    9  C21   D T9000      -1.928   3.307  13.484  1.00 32.38     0.145 C 
HETATM   10  C1    D T9000      -2.558   4.710  13.448  1.00 32.72     0.038 C 
BRANCH   9  11
HETATM   11  C17   D T9000      -0.597   3.263  12.637  1.00 34.58     0.029 A 
HETATM   12  C13   D T9000       0.629   2.756  13.243  1.00 34.39     0.057 A 
HETATM   13 CL     D T9000       0.720   2.176  14.879  1.00 35.41    -0.083 Cl
HETATM   14  C3    D T9000       1.841   2.713  12.493  1.00 34.67     0.013 A 
HETATM   15  C2    D T9000       1.887   3.161  11.150  1.00 35.13     0.031 A 
HETATM   16  C12   D T9000       0.718   3.664  10.520  1.00 37.02     0.150 A 
HETATM   17  F     D T9000       0.806   4.078   9.251  1.00 37.34    -0.203 F 
HETATM   18  C18   D T9000      -0.530   3.724  11.239  1.00 36.91     0.084 A 
HETATM   19 CL2    D T9000      -1.911   4.359  10.365  1.00 49.38    -0.080 Cl
ENDBRANCH   9  11
ENDBRANCH   8   9
ENDBRANCH   1   8
BRANCH   7  20
HETATM   20  C16   D T9000      -2.014  -1.938  15.526  1.00 32.36     0.041 A 
HETATM   21  C6    D T9000      -0.569  -2.029  15.290  1.00 35.90     0.122 A 
HETATM   22  N24   D T9000      -0.083  -2.984  15.992  1.00 36.91    -0.168 NA
HETATM   23  N26   D T9000      -1.017  -3.547  16.673  1.00 38.66    -0.252 N 
HETATM   24  C7    D T9000      -2.282  -2.954  16.445  1.00 35.41     0.097 A 
BRANCH  23  25
HETATM   25  C20   D T9000      -0.726  -4.688  17.579  1.00 43.14     0.110 C 
HETATM   26  C8    D T9000       0.557  -5.422  17.129  1.00 45.28     0.063 C 
HETATM   27  C10   D T9000       0.844  -6.603  18.089  1.00 46.38     0.292 C 
HETATM   28  N25   D T9000      -0.318  -7.530  18.212  1.00 47.91     0.339 N 
HETATM   29  C11   D T9000      -1.579  -6.832  18.598  1.00 46.73     0.292 C 
HETATM   30  C9    D T9000      -1.924  -5.664  17.645  1.00 45.30     0.063 C 
ENDBRANCH  23  25
ENDBRANCH   7  20
TORSDOF 5
ENDMDL
MODEL 3
REMARK VINA RESULT:    -7.961      5.387      8.186
REMARK INTER + INTRA:         -11.154
REMARK INTER:                 -10.621
REMARK INTRA:                  -0.534
REMARK UNBOUND:                -0.866
REMARK  5 active torsions:
REMARK  status: ('A' for Active; 'I' for Inactive)
REMARK    1  A    between atoms: C17_7  and  C21_10 
REMARK    2  A    between atoms: C21_10  and  O27_12 
REMARK    3  A    between atoms: O27_12  and  C15_13 
REMARK    4  A    between atoms: C14_19  and  C16_20 
REMARK    5  A    between atoms: N26_23  and  C20_25 
ROOT
HETATM    1  C15   D T9000       0.642   3.126  12.185  1.00 27.55     0.125 A 
HETATM    2  C4    D T9000       1.479   1.960  12.242  1.00 28.27     0.029 A 
HETATM    3  C19   D T9000       0.898   4.027  11.094  1.00 26.72     0.173 A 
HETATM    4  N22   D T9000       0.108   5.189  10.973  1.00 25.80    -0.078 NA
HETATM    5  N23   D T9000       1.862   3.836  10.151  1.00 24.81    -0.228 NA
HETATM    6  C5    D T9000       2.646   2.714  10.236  1.00 28.27     0.100 A 
HETATM    7  C14   D T9000       2.506   1.729  11.268  1.00 30.75     0.024 A 
ENDROOT
BRANCH   1   8
HETATM    8  O27   D T9000      -0.400   3.424  13.080  1.00 29.26    -0.326 OA
BRANCH   8   9
HETATM    9  C21   D T9000      -1.839   3.470  12.760  1.00 32.38     0.145 C 
HETATM   10  C1    D T9000      -2.376   4.726  13.467  1.00 32.72     0.038 C 
BRANCH   9  11
HETATM   11  C17   D T9000      -2.659   2.190  13.185  1.00 34.58     0.029 A 
HETATM   12  C13   D T9000      -3.931   1.899  12.534  1.00 34.39     0.057 A 
HETATM   13 CL     D T9000      -4.618   2.894  11.286  1.00 35.41    -0.083 Cl
HETATM   14  C3    D T9000      -4.688   0.749  12.908  1.00 34.67     0.013 A 
HETATM   15  C2    D T9000      -4.227  -0.133  13.916  1.00 35.13     0.031 A 
HETATM   16  C12   D T9000      -2.994   0.111  14.576  1.00 37.02     0.150 A 
HETATM   17  F     D T9000      -2.597  -0.747  15.523  1.00 37.34    -0.203 F 
HETATM   18  C18   D T9000      -2.196   1.260  14.230  1.00 36.91     0.084 A 
HETATM   19 CL2    D T9000      -0.691   1.465  15.106  1.00 49.38    -0.080 Cl
ENDBRANCH   9  11
ENDBRANCH   8   9
ENDBRANCH   1   8
BRANCH   7  20
HETATM   20  C16   D T9000       3.379   0.483  11.356  1.00 32.36     0.041 A 
HETATM   21  C6    D T9000       3.445  -0.470  12.469  1.00 35.90     0.122 A 
HETATM   22  N24   D T9000       4.289  -1.393  12.188  1.00 36.91    -0.168 NA
HETATM   23  N26   D T9000       4.797  -1.184  11.026  1.00 38.66    -0.252 N 
HETATM   24  C7    D T9000       4.283  -0.014  10.416  1.00 35.41     0.097 A 
BRANCH  23  25
HETATM   25  C20   D T9000       5.806  -2.110  10.451  1.00 43.14     0.110 C 
HETATM   26  C8    D T9000       5.985  -3.346  11.359  1.00 45.28     0.063 C 
HETATM   27  C10   D T9000       7.036  -4.300  10.739  1.00 46.38     0.292 C 
HETATM   28  N25   D T9000       8.332  -3.615  10.464  1.00 47.91     0.339 N 
HETATM   29  C11   D T9000       8.175  -2.389   9.628  1.00 46.73     0.292 C 
HETATM   30  C9    D T9000       7.157  -1.391  10.228  1.00 45.30     0.063 C 
ENDBRANCH  23  25
ENDBRANCH   7  20
TORSDOF 5
ENDMDL
MODEL 4
REMARK VINA RESULT:    -7.960      1.284      1.980
REMARK INTER + INTRA:         -11.152
REMARK INTER:                 -10.266
REMARK INTRA:                  -0.886
REMARK UNBOUND:                -0.866
REMARK  5 active torsions:
REMARK  status: ('A' for Active; 'I' for Inactive)
REMARK    1  A    between atoms: C17_7  and  C21_10 
REMARK    2  A    between atoms: C21_10  and  O27_12 
REMARK    3  A    between atoms: O27_12  and  C15_13 
REMARK    4  A    between atoms: C14_19  and  C16_20 
REMARK    5  A    between atoms: N26_23  and  C20_25 
ROOT
HETATM    1  C15   D T9000      -1.704   0.838  14.623  1.00 27.55     0.125 A 
HETATM    2  C4    D T9000      -1.246  -0.423  15.136  1.00 28.27     0.029 A 
HETATM    3  C19   D T9000      -3.125   0.963  14.444  1.00 26.72     0.173 A 
HETATM    4  N22   D T9000      -3.645   2.177  13.950  1.00 25.80    -0.078 NA
HETATM    5  N23   D T9000      -4.022  -0.024  14.722  1.00 24.81    -0.228 NA
HETATM    6  C5    D T9000      -3.552  -1.217  15.208  1.00 28.27     0.100 A 
HETATM    7  C14   D T9000      -2.162  -1.484  15.437  1.00 30.75     0.024 A 
ENDROOT
BRANCH   1   8
HETATM    8  O27   D T9000      -0.884   1.939  14.320  1.00 29.26    -0.326 OA
BRANCH   8   9
HETATM    9  C21   D T9000       0.504   1.883  13.825  1.00 32.38     0.145 C 
HETATM   10  C1    D T9000       1.366   2.478  14.953  1.00 32.72     0.038 C 
BRANCH   9  11
HETATM   11  C17   D T9000       0.758   2.638  12.463  1.00 34.58     0.029 A 
HETATM   12  C13   D T9000       1.518   1.981  11.405  1.00 34.39     0.057 A 
HETATM   13 CL     D T9000       2.173   0.378  11.549  1.00 35.41    -0.083 Cl
HETATM   14  C3    D T9000       1.761   2.650  10.169  1.00 34.67     0.013 A 
HETATM   15  C2    D T9000       1.276   3.961   9.938  1.00 35.13     0.031 A 
HETATM   16  C12   D T9000       0.533   4.639  10.941  1.00 37.02     0.150 A 
HETATM   17  F     D T9000       0.095   5.876  10.682  1.00 37.34    -0.203 F 
HETATM   18  C18   D T9000       0.262   4.001  12.205  1.00 36.91     0.084 A 
HETATM   19 CL2    D T9000      -0.666   4.926  13.370  1.00 49.38    -0.080 Cl
ENDBRANCH   9  11
ENDBRANCH   8   9
ENDBRANCH   1   8
BRANCH   7  20
HETATM   20  C16   D T9000      -1.646  -2.812  15.979  1.00 32.36     0.041 A 
HETATM   21  C6    D T9000      -2.397  -3.792  16.770  1.00 35.90     0.122 A 
HETATM   22  N24   D T9000      -1.637  -4.787  17.045  1.00 36.91    -0.168 NA
HETATM   23  N26   D T9000      -0.470  -4.601  16.539  1.00 38.66    -0.252 N 
HETATM   24  C7    D T9000      -0.375  -3.372  15.841  1.00 35.41     0.097 A 
BRANCH  23  25
HETATM   25  C20   D T9000       0.609  -5.608  16.706  1.00 43.14     0.110 C 
HETATM   26  C8    D T9000       0.145  -6.746  17.641  1.00 45.28     0.063 C 
HETATM   27  C10   D T9000       1.283  -7.787  17.798  1.00 46.38     0.292 C 
HETATM   28  N25   D T9000       2.559  -7.168  18.259  1.00 47.91     0.339 N 
HETATM   29  C11   D T9000       2.998  -6.032  17.396  1.00 46.73     0.292 C 
HETATM   30  C9    D T9000       1.904  -4.951  17.239  1.00 45.30     0.063 C 
ENDBRANCH  23  25
ENDBRANCH   7  20
TORSDOF 5
ENDMDL
MODEL 5
REMARK VINA RESULT:    -7.790      2.154      2.686
REMARK INTER + INTRA:         -10.933
REMARK INTER:                 -10.098
REMARK INTRA:                  -0.835
REMARK UNBOUND:                -0.866
REMARK  5 active torsions:
REMARK  status: ('A' for Active; 'I' for Inactive)
REMARK    1  A    between atoms: C17_7  and  C21_10 
REMARK    2  A    between atoms: C21_10  and  O27_12 
REMARK    3  A    between atoms: O27_12  and  C15_13 
REMARK    4  A    between atoms: C14_19  and  C16_20 
REMARK    5  A    between atoms: N26_23  and  C20_25 
ROOT
HETATM    1  C15   D T9000      -3.298   1.160  13.657  1.00 27.55     0.125 A 
HETATM    2  C4    D T9000      -2.375   0.214  14.219  1.00 28.27     0.029 A 
HETATM    3  C19   D T9000      -4.691   0.840  13.809  1.00 26.72     0.173 A 
HETATM    4  N22   D T9000      -5.654   1.729  13.286  1.00 25.80    -0.078 NA
HETATM    5  N23   D T9000      -5.159  -0.277  14.433  1.00 24.81    -0.228 NA
HETATM    6  C5    D T9000      -4.251  -1.161  14.957  1.00 28.27     0.100 A 
HETATM    7  C14   D T9000      -2.832  -0.973  14.881  1.00 30.75     0.024 A 
ENDROOT
BRANCH   1   8
HETATM    8  O27   D T9000      -2.943   2.357  13.011  1.00 29.26    -0.326 OA
BRANCH   8   9
HETATM    9  C21   D T9000      -1.913   3.315  13.454  1.00 32.38     0.145 C 
HETATM   10  C1    D T9000      -2.596   4.694  13.425  1.00 32.72     0.038 C 
BRANCH   9  11
HETATM   11  C17   D T9000      -0.592   3.321  12.591  1.00 34.58     0.029 A 
HETATM   12  C13   D T9000      -0.657   3.657  11.174  1.00 34.39     0.057 A 
HETATM   13 CL     D T9000      -2.132   4.067  10.353  1.00 35.41    -0.083 Cl
HETATM   14  C3    D T9000       0.527   3.663  10.378  1.00 34.67     0.013 A 
HETATM   15  C2    D T9000       1.787   3.343  10.939  1.00 35.13     0.031 A 
HETATM   16  C12   D T9000       1.897   3.009  12.315  1.00 37.02     0.150 A 
HETATM   17  F     D T9000       3.107   2.712  12.804  1.00 37.34    -0.203 F 
HETATM   18  C18   D T9000       0.728   2.991  13.158  1.00 36.91     0.084 A 
HETATM   19 CL2    D T9000       0.977   2.568  14.841  1.00 49.38    -0.080 Cl
ENDBRANCH   9  11
ENDBRANCH   8   9
ENDBRANCH   1   8
BRANCH   7  20
HETATM   20  C16   D T9000      -1.827  -1.959  15.467  1.00 32.36     0.041 A 
HETATM   21  C6    D T9000      -0.370  -1.931  15.306  1.00 35.90     0.122 A 
HETATM   22  N24   D T9000       0.145  -2.918  15.943  1.00 36.91    -0.168 NA
HETATM   23  N26   D T9000      -0.780  -3.604  16.512  1.00 38.66    -0.252 N 
HETATM   24  C7    D T9000      -2.071  -3.075  16.268  1.00 35.41     0.097 A 
BRANCH  23  25
HETATM   25  C20   D T9000      -0.457  -4.807  17.322  1.00 43.14     0.110 C 
HETATM   26  C8    D T9000       0.224  -4.399  18.647  1.00 45.28     0.063 C 
HETATM   27  C10   D T9000       0.548  -5.667  19.477  1.00 46.38     0.292 C 
HETATM   28  N25   D T9000       1.360  -6.656  18.710  1.00 47.91     0.339 N 
HETATM   29  C11   D T9000       0.743  -7.025  17.403  1.00 46.73     0.292 C 
HETATM   30  C9    D T9000       0.433  -5.790  16.525  1.00 45.30     0.063 C 
ENDBRANCH  23  25
ENDBRANCH   7  20
TORSDOF 5
ENDMDL
MODEL 6
REMARK VINA RESULT:    -7.782      5.853      9.958
REMARK INTER + INTRA:         -10.923
REMARK INTER:                 -10.338
REMARK INTRA:                  -0.585
REMARK UNBOUND:                -0.866
REMARK  5 active torsions:
REMARK  status: ('A' for Active; 'I' for Inactive)
REMARK    1  A    between atoms: C17_7  and  C21_10 
REMARK    2  A    between atoms: C21_10  and  O27_12 
REMARK    3  A    between atoms: O27_12  and  C15_13 
REMARK    4  A    between atoms: C14_19  and  C16_20 
REMARK    5  A    between atoms: N26_23  and  C20_25 
ROOT
HETATM    1  C15   D T9000       1.310   2.383  13.646  1.00 27.55     0.125 A 
HETATM    2  C4    D T9000       2.297   2.584  12.622  1.00 28.27     0.029 A 
HETATM    3  C19   D T9000       1.672   1.466  14.693  1.00 26.72     0.173 A 
HETATM    4  N22   D T9000       0.752   1.226  15.735  1.00 25.80    -0.078 NA
HETATM    5  N23   D T9000       2.860   0.802  14.754  1.00 24.81    -0.228 NA
HETATM    6  C5    D T9000       3.779   1.014  13.759  1.00 28.27     0.100 A 
HETATM    7  C14   D T9000       3.556   1.899  12.654  1.00 30.75     0.024 A 
ENDROOT
BRANCH   1   8
HETATM    8  O27   D T9000       0.061   3.024  13.708  1.00 29.26    -0.326 OA
BRANCH   8   9
HETATM    9  C21   D T9000      -0.466   4.005  12.741  1.00 32.38     0.145 C 
HETATM   10  C1    D T9000      -0.438   5.358  13.474  1.00 32.72     0.038 C 
BRANCH   9  11
HETATM   11  C17   D T9000      -1.911   3.691  12.190  1.00 34.58     0.029 A 
HETATM   12  C13   D T9000      -2.421   4.430  11.041  1.00 34.39     0.057 A 
HETATM   13 CL     D T9000      -1.516   5.661  10.214  1.00 35.41    -0.083 Cl
HETATM   14  C3    D T9000      -3.727   4.162  10.532  1.00 34.67     0.013 A 
HETATM   15  C2    D T9000      -4.557   3.181  11.128  1.00 35.13     0.031 A 
HETATM   16  C12   D T9000      -4.101   2.439  12.249  1.00 37.02     0.150 A 
HETATM   17  F     D T9000      -4.918   1.523  12.782  1.00 37.34    -0.203 F 
HETATM   18  C18   D T9000      -2.788   2.674  12.796  1.00 36.91     0.084 A 
HETATM   19 CL2    D T9000      -2.326   1.701  14.179  1.00 49.38    -0.080 Cl
ENDBRANCH   9  11
ENDBRANCH   8   9
ENDBRANCH   1   8
BRANCH   7  20
HETATM   20  C16   D T9000       4.584   2.132  11.552  1.00 32.36     0.041 A 
HETATM   21  C6    D T9000       5.935   1.567  11.473  1.00 35.90     0.122 A 
HETATM   22  N24   D T9000       6.507   1.984  10.405  1.00 36.91    -0.168 NA
HETATM   23  N26   D T9000       5.713   2.757   9.754  1.00 38.66    -0.252 N 
HETATM   24  C7    D T9000       4.464   2.915  10.403  1.00 35.41     0.097 A 
BRANCH  23  25
HETATM   25  C20   D T9000       6.127   3.379   8.470  1.00 43.14     0.110 C 
HETATM   26  C8    D T9000       4.952   3.381   7.467  1.00 45.28     0.063 C 
HETATM   27  C10   D T9000       5.404   4.038   6.139  1.00 46.38     0.292 C 
HETATM   28  N25   D T9000       6.624   3.394   5.572  1.00 47.91     0.339 N 
HETATM   29  C11   D T9000       7.755   3.338   6.544  1.00 46.73     0.292 C 
HETATM   30  C9    D T9000       7.359   2.658   7.875  1.00 45.30     0.063 C 
ENDBRANCH  23  25
ENDBRANCH   7  20
TORSDOF 5
ENDMDL
MODEL 7
REMARK VINA RESULT:    -7.637      4.850      7.835
REMARK INTER + INTRA:         -10.736
REMARK INTER:                 -10.181
REMARK INTRA:                  -0.554
REMARK UNBOUND:                -0.866
REMARK  5 active torsions:
REMARK  status: ('A' for Active; 'I' for Inactive)
REMARK    1  A    between atoms: C17_7  and  C21_10 
REMARK    2  A    between atoms: C21_10  and  O27_12 
REMARK    3  A    between atoms: O27_12  and  C15_13 
REMARK    4  A    between atoms: C14_19  and  C16_20 
REMARK    5  A    between atoms: N26_23  and  C20_25 
ROOT
HETATM    1  C15   D T9000       3.110   3.593  11.342  1.00 27.55     0.125 A 
HETATM    2  C4    D T9000       1.845   3.232  11.918  1.00 28.27     0.029 A 
HETATM    3  C19   D T9000       3.187   4.915  10.781  1.00 26.72     0.173 A 
HETATM    4  N22   D T9000       4.402   5.339  10.204  1.00 25.80    -0.078 NA
HETATM    5  N23   D T9000       2.155   5.804  10.768  1.00 24.81    -0.228 NA
HETATM    6  C5    D T9000       0.960   5.426  11.324  1.00 28.27     0.100 A 
HETATM    7  C14   D T9000       0.737   4.141  11.919  1.00 30.75     0.024 A 
ENDROOT
BRANCH   1   8
HETATM    8  O27   D T9000       4.255   2.778  11.315  1.00 29.26    -0.326 OA
BRANCH   8   9
HETATM    9  C21   D T9000       4.656   1.874  10.220  1.00 32.38     0.145 C 
HETATM   10  C1    D T9000       4.398   0.452  10.747  1.00 32.72     0.038 C 
BRANCH   9  11
HETATM   11  C17   D T9000       6.149   2.035   9.736  1.00 34.58     0.029 A 
HETATM   12  C13   D T9000       7.239   1.579  10.592  1.00 34.39     0.057 A 
HETATM   13 CL     D T9000       6.992   0.848  12.148  1.00 35.41    -0.083 Cl
HETATM   14  C3    D T9000       8.595   1.721  10.172  1.00 34.67     0.013 A 
HETATM   15  C2    D T9000       8.916   2.304   8.922  1.00 35.13     0.031 A 
HETATM   16  C12   D T9000       7.888   2.762   8.057  1.00 37.02     0.150 A 
HETATM   17  F     D T9000       8.236   3.309   6.886  1.00 37.34    -0.203 F 
HETATM   18  C18   D T9000       6.503   2.639   8.439  1.00 36.91     0.084 A 
HETATM   19 CL2    D T9000       5.315   3.234   7.296  1.00 49.38    -0.080 Cl
ENDBRANCH   9  11
ENDBRANCH   8   9
ENDBRANCH   1   8
BRANCH   7  20
HETATM   20  C16   D T9000      -0.593   3.728  12.538  1.00 32.36     0.041 A 
HETATM   21  C6    D T9000      -1.796   4.556  12.675  1.00 35.90     0.122 A 
HETATM   22  N24   D T9000      -2.720   3.872  13.242  1.00 36.91    -0.168 NA
HETATM   23  N26   D T9000      -2.291   2.688  13.503  1.00 38.66    -0.252 N 
HETATM   24  C7    D T9000      -0.949   2.498  13.094  1.00 35.41     0.097 A 
BRANCH  23  25
HETATM   25  C20   D T9000      -3.165   1.683  14.162  1.00 43.14     0.110 C 
HETATM   26  C8    D T9000      -2.315   0.556  14.788  1.00 45.28     0.063 C 
HETATM   27  C10   D T9000      -3.244  -0.477  15.474  1.00 46.38     0.292 C 
HETATM   28  N25   D T9000      -4.284  -1.009  14.546  1.00 47.91     0.339 N 
HETATM   29  C11   D T9000      -5.084   0.068  13.892  1.00 46.73     0.292 C 
HETATM   30  C9    D T9000      -4.197   1.106  13.166  1.00 45.30     0.063 C 
ENDBRANCH  23  25
ENDBRANCH   7  20
TORSDOF 5
ENDMDL
MODEL 8
REMARK VINA RESULT:    -7.492      5.081      9.800
REMARK INTER + INTRA:         -10.548
REMARK INTER:                 -10.052
REMARK INTRA:                  -0.496
REMARK UNBOUND:                -0.866
REMARK  5 active torsions:
REMARK  status: ('A' for Active; 'I' for Inactive)
REMARK    1  A    between atoms: C17_7  and  C21_10 
REMARK    2  A    between atoms: C21_10  and  O27_12 
REMARK    3  A    between atoms: O27_12  and  C15_13 
REMARK    4  A    between atoms: C14_19  and  C16_20 
REMARK    5  A    between atoms: N26_23  and  C20_25 
ROOT
HETATM    1  C15   D T9000       0.455   1.415  13.422  1.00 27.55     0.125 A 
HETATM    2  C4    D T9000       1.107   2.185  12.400  1.00 28.27     0.029 A 
HETATM    3  C19   D T9000       1.321   0.805  14.395  1.00 26.72     0.173 A 
HETATM    4  N22   D T9000       0.748   0.040  15.431  1.00 25.80    -0.078 NA
HETATM    5  N23   D T9000       2.679   0.916  14.389  1.00 24.81    -0.228 NA
HETATM    6  C5    D T9000       3.270   1.656  13.398  1.00 28.27     0.100 A 
HETATM    7  C14   D T9000       2.534   2.320  12.362  1.00 30.75     0.024 A 
ENDROOT
BRANCH   1   8
HETATM    8  O27   D T9000      -0.934   1.245  13.550  1.00 29.26    -0.326 OA
BRANCH   8   9
HETATM    9  C21   D T9000      -1.908   2.281  13.942  1.00 32.38     0.145 C 
HETATM   10  C1    D T9000      -2.998   1.541  14.736  1.00 32.72     0.038 C 
BRANCH   9  11
HETATM   11  C17   D T9000      -2.536   3.095  12.744  1.00 34.58     0.029 A 
HETATM   12  C13   D T9000      -3.711   2.574  12.055  1.00 34.39     0.057 A 
HETATM   13 CL     D T9000      -4.488   1.079  12.483  1.00 35.41    -0.083 Cl
HETATM   14  C3    D T9000      -4.289   3.293  10.968  1.00 34.67     0.013 A 
HETATM   15  C2    D T9000      -3.739   4.523  10.530  1.00 35.13     0.031 A 
HETATM   16  C12   D T9000      -2.594   5.067  11.171  1.00 37.02     0.150 A 
HETATM   17  F     D T9000      -2.107   6.230  10.724  1.00 37.34    -0.203 F 
HETATM   18  C18   D T9000      -1.978   4.375  12.275  1.00 36.91     0.084 A 
HETATM   19 CL2    D T9000      -0.572   5.137  12.994  1.00 49.38    -0.080 Cl
ENDBRANCH   9  11
ENDBRANCH   8   9
ENDBRANCH   1   8
BRANCH   7  20
HETATM   20  C16   D T9000       3.197   3.143  11.264  1.00 32.36     0.041 A 
HETATM   21  C6    D T9000       2.846   4.505  10.850  1.00 35.90     0.122 A 
HETATM   22  N24   D T9000       3.621   4.873   9.898  1.00 36.91    -0.168 NA
HETATM   23  N26   D T9000       4.451   3.931   9.619  1.00 38.66    -0.252 N 
HETATM   24  C7    D T9000       4.261   2.788  10.433  1.00 35.41     0.097 A 
BRANCH  23  25
HETATM   25  C20   D T9000       5.469   4.096   8.550  1.00 43.14     0.110 C 
HETATM   26  C8    D T9000       4.797   4.084   7.159  1.00 45.28     0.063 C 
HETATM   27  C10   D T9000       5.875   4.262   6.060  1.00 46.38     0.292 C 
HETATM   28  N25   D T9000       6.966   3.250   6.165  1.00 47.91     0.339 N 
HETATM   29  C11   D T9000       7.594   3.211   7.518  1.00 46.73     0.292 C 
HETATM   30  C9    D T9000       6.557   3.001   8.645  1.00 45.30     0.063 C 
ENDBRANCH  23  25
ENDBRANCH   7  20
TORSDOF 5
ENDMDL
MODEL 9
REMARK VINA RESULT:    -7.441      5.325     10.536
REMARK INTER + INTRA:         -10.482
REMARK INTER:                  -9.614
REMARK INTRA:                  -0.869
REMARK UNBOUND:                -0.866
REMARK  5 active torsions:
REMARK  status: ('A' for Active; 'I' for Inactive)
REMARK    1  A    between atoms: C17_7  and  C21_10 
REMARK    2  A    between atoms: C21_10  and  O27_12 
REMARK    3  A    between atoms: O27_12  and  C15_13 
REMARK    4  A    between atoms: C14_19  and  C16_20 
REMARK    5  A    between atoms: N26_23  and  C20_25 
ROOT
HETATM    1  C15   D T9000       2.432   0.371  13.191  1.00 27.55     0.125 A 
HETATM    2  C4    D T9000       3.220   1.026  12.185  1.00 28.27     0.029 A 
HETATM    3  C19   D T9000       3.157  -0.467  14.107  1.00 26.72     0.173 A 
HETATM    4  N22   D T9000       2.448  -1.135  15.126  1.00 25.80    -0.078 NA
HETATM    5  N23   D T9000       4.505  -0.664  14.064  1.00 24.81    -0.228 NA
HETATM    6  C5    D T9000       5.227  -0.025  13.089  1.00 28.27     0.100 A 
HETATM    7  C14   D T9000       4.639   0.839  12.108  1.00 30.75     0.024 A 
ENDROOT
BRANCH   1   8
HETATM    8  O27   D T9000       1.043   0.511  13.356  1.00 29.26    -0.326 OA
BRANCH   8   9
HETATM    9  C21   D T9000       0.330   1.742  13.743  1.00 32.38     0.145 C 
HETATM   10  C1    D T9000       0.993   2.205  15.052  1.00 32.72     0.038 C 
BRANCH   9  11
HETATM   11  C17   D T9000      -1.229   1.581  13.926  1.00 34.58     0.029 A 
HETATM   12  C13   D T9000      -2.135   2.493  13.236  1.00 34.39     0.057 A 
HETATM   13 CL     D T9000      -1.594   3.773  12.193  1.00 35.41    -0.083 Cl
HETATM   14  C3    D T9000      -3.547   2.365  13.393  1.00 34.67     0.013 A 
HETATM   15  C2    D T9000      -4.102   1.358  14.220  1.00 35.13     0.031 A 
HETATM   16  C12   D T9000      -3.258   0.450  14.913  1.00 37.02     0.150 A 
HETATM   17  F     D T9000      -3.825  -0.484  15.685  1.00 37.34    -0.203 F 
HETATM   18  C18   D T9000      -1.826   0.541  14.782  1.00 36.91     0.084 A 
HETATM   19 CL2    D T9000      -0.878  -0.631  15.678  1.00 49.38    -0.080 Cl
ENDBRANCH   9  11
ENDBRANCH   8   9
ENDBRANCH   1   8
BRANCH   7  20
HETATM   20  C16   D T9000       5.448   1.547  11.027  1.00 32.36     0.041 A 
HETATM   21  C6    D T9000       6.838   1.273  10.646  1.00 35.90     0.122 A 
HETATM   22  N24   D T9000       7.181   2.065   9.699  1.00 36.91    -0.168 NA
HETATM   23  N26   D T9000       6.199   2.836   9.393  1.00 38.66    -0.252 N 
HETATM   24  C7    D T9000       5.051   2.584  10.183  1.00 35.41     0.097 A 
BRANCH  23  25
HETATM   25  C20   D T9000       6.327   3.854   8.319  1.00 43.14     0.110 C 
HETATM   26  C8    D T9000       6.155   5.276   8.898  1.00 45.28     0.063 C 
HETATM   27  C10   D T9000       6.297   6.320   7.762  1.00 46.38     0.292 C 
HETATM   28  N25   D T9000       5.362   6.059   6.630  1.00 47.91     0.339 N 
HETATM   29  C11   D T9000       5.478   4.673   6.089  1.00 46.73     0.292 C 
HETATM   30  C9    D T9000       5.309   3.595   7.184  1.00 45.30     0.063 C 
ENDBRANCH  23  25
ENDBRANCH   7  20
TORSDOF 5
ENDMDL
