MODEL 1
REMARK VINA RESULT:    -9.043      0.000      0.000
REMARK INTER + INTRA:         -12.219
REMARK INTER:                 -11.687
REMARK INTRA:                  -0.533
REMARK UNBOUND:                -0.533
REMARK  5 active torsions:
REMARK  status: ('A' for Active; 'I' for Inactive)
REMARK    1  A    between atoms: C17_7  and  C21_10 
REMARK    2  A    between atoms: C21_10  and  O27_12 
REMARK    3  A    between atoms: O27_12  and  C15_13 
REMARK    4  A    between atoms: C14_19  and  C16_20 
REMARK    5  A    between atoms: N26_23  and  C20_25 
ROOT
HETATM    1  C15   D T9000       4.278  12.195   2.260  1.00 27.55     0.125 A 
HETATM    2  C4    D T9000       5.677  12.194   2.593  1.00 28.27     0.029 A 
HETATM    3  C19   D T9000       3.494  11.147   2.852  1.00 26.72     0.173 A 
HETATM    4  N22   D T9000       2.111  11.091   2.575  1.00 25.80    -0.078 NA
HETATM    5  N23   D T9000       3.995  10.187   3.679  1.00 24.81    -0.228 NA
HETATM    6  C5    D T9000       5.333  10.213   3.974  1.00 28.27     0.100 A 
HETATM    7  C14   D T9000       6.237  11.198   3.457  1.00 30.75     0.024 A 
ENDROOT
BRANCH   1   8
HETATM    8  O27   D T9000       3.638  13.141   1.441  1.00 29.26    -0.326 OA
BRANCH   8   9
HETATM    9  C21   D T9000       3.486  13.065  -0.024  1.00 32.38     0.145 C 
HETATM   10  C1    D T9000       4.611  12.131  -0.505  1.00 32.72     0.038 C 
BRANCH   9  11
HETATM   11  C17   D T9000       3.544  14.452  -0.775  1.00 34.58     0.029 A 
HETATM   12  C13   D T9000       2.328  15.009  -1.358  1.00 34.39     0.057 A 
HETATM   13 CL     D T9000       0.780  14.226  -1.271  1.00 35.41    -0.083 Cl
HETATM   14  C3    D T9000       2.364  16.259  -2.043  1.00 34.67     0.013 A 
HETATM   15  C2    D T9000       3.571  16.986  -2.178  1.00 35.13     0.031 A 
HETATM   16  C12   D T9000       4.779  16.482  -1.626  1.00 37.02     0.150 A 
HETATM   17  F     D T9000       5.898  17.200  -1.777  1.00 37.34    -0.203 F 
HETATM   18  C18   D T9000       4.791  15.223  -0.924  1.00 36.91     0.084 A 
HETATM   19 CL2    D T9000       6.335  14.694  -0.282  1.00 49.38    -0.080 Cl
ENDBRANCH   9  11
ENDBRANCH   8   9
ENDBRANCH   1   8
BRANCH   7  20
HETATM   20  C16   D T9000       7.725  11.222   3.790  1.00 32.36     0.041 A 
HETATM   21  C6    D T9000       8.737  12.122   3.232  1.00 35.90     0.122 A 
HETATM   22  N24   D T9000       9.878  11.850   3.749  1.00 36.91    -0.168 NA
HETATM   23  N26   D T9000       9.762  10.880   4.585  1.00 38.66    -0.252 N 
HETATM   24  C7    D T9000       8.429  10.411   4.681  1.00 35.41     0.097 A 
BRANCH  23  25
HETATM   25  C20   D T9000      10.938  10.364   5.332  1.00 43.14     0.110 C 
HETATM   26  C8    D T9000      12.007   9.830   4.353  1.00 45.28     0.063 C 
HETATM   27  C10   D T9000      13.224   9.301   5.151  1.00 46.38     0.292 C 
HETATM   28  N25   D T9000      12.838   8.283   6.170  1.00 47.91     0.339 N 
HETATM   29  C11   D T9000      11.769   8.763   7.095  1.00 46.73     0.292 C 
HETATM   30  C9    D T9000      10.519   9.269   6.340  1.00 45.30     0.063 C 
ENDBRANCH  23  25
ENDBRANCH   7  20
TORSDOF 5
ENDMDL
MODEL 2
REMARK VINA RESULT:    -8.992      0.953      2.139
REMARK INTER + INTRA:         -12.152
REMARK INTER:                 -11.700
REMARK INTRA:                  -0.452
REMARK UNBOUND:                -0.533
REMARK  5 active torsions:
REMARK  status: ('A' for Active; 'I' for Inactive)
REMARK    1  A    between atoms: C17_7  and  C21_10 
REMARK    2  A    between atoms: C21_10  and  O27_12 
REMARK    3  A    between atoms: O27_12  and  C15_13 
REMARK    4  A    between atoms: C14_19  and  C16_20 
REMARK    5  A    between atoms: N26_23  and  C20_25 
ROOT
HETATM    1  C15   D T9000       4.347  12.268   2.228  1.00 27.55     0.125 A 
HETATM    2  C4    D T9000       5.745  12.213   2.560  1.00 28.27     0.029 A 
HETATM    3  C19   D T9000       3.520  11.263   2.837  1.00 26.72     0.173 A 
HETATM    4  N22   D T9000       2.135  11.262   2.561  1.00 25.80    -0.078 NA
HETATM    5  N23   D T9000       3.981  10.295   3.678  1.00 24.81    -0.228 NA
HETATM    6  C5    D T9000       5.320  10.269   3.971  1.00 28.27     0.100 A 
HETATM    7  C14   D T9000       6.264  11.207   3.438  1.00 30.75     0.024 A 
ENDROOT
BRANCH   1   8
HETATM    8  O27   D T9000       3.746  13.228   1.396  1.00 29.26    -0.326 OA
BRANCH   8   9
HETATM    9  C21   D T9000       3.613  13.149  -0.071  1.00 32.38     0.145 C 
HETATM   10  C1    D T9000       4.669  12.124  -0.524  1.00 32.72     0.038 C 
BRANCH   9  11
HETATM   11  C17   D T9000       3.794  14.519  -0.833  1.00 34.58     0.029 A 
HETATM   12  C13   D T9000       5.113  15.142  -0.896  1.00 34.39     0.057 A 
HETATM   13 CL     D T9000       6.532  14.451  -0.171  1.00 35.41    -0.083 Cl
HETATM   14  C3    D T9000       5.293  16.381  -1.577  1.00 34.67     0.013 A 
HETATM   15  C2    D T9000       4.206  17.037  -2.204  1.00 35.13     0.031 A 
HETATM   16  C12   D T9000       2.905  16.468  -2.169  1.00 37.02     0.150 A 
HETATM   17  F     D T9000       1.906  17.121  -2.772  1.00 37.34    -0.203 F 
HETATM   18  C18   D T9000       2.676  15.215  -1.492  1.00 36.91     0.084 A 
HETATM   19 CL2    D T9000       1.033  14.602  -1.510  1.00 49.38    -0.080 Cl
ENDBRANCH   9  11
ENDBRANCH   8   9
ENDBRANCH   1   8
BRANCH   7  20
HETATM   20  C16   D T9000       7.751  11.173   3.769  1.00 32.36     0.041 A 
HETATM   21  C6    D T9000       8.777  12.115   3.313  1.00 35.90     0.122 A 
HETATM   22  N24   D T9000       9.914  11.772   3.796  1.00 36.91    -0.168 NA
HETATM   23  N26   D T9000       9.783  10.718   4.519  1.00 38.66    -0.252 N 
HETATM   24  C7    D T9000       8.444  10.259   4.565  1.00 35.41     0.097 A 
BRANCH  23  25
HETATM   25  C20   D T9000      10.952  10.105   5.203  1.00 43.14     0.110 C 
HETATM   26  C8    D T9000      10.509   9.409   6.509  1.00 45.28     0.063 C 
HETATM   27  C10   D T9000      11.739   8.774   7.203  1.00 46.38     0.292 C 
HETATM   28  N25   D T9000      12.833   9.761   7.436  1.00 47.91     0.339 N 
HETATM   29  C11   D T9000      13.241  10.481   6.193  1.00 46.73     0.292 C 
HETATM   30  C9    D T9000      12.047  11.160   5.485  1.00 45.30     0.063 C 
ENDBRANCH  23  25
ENDBRANCH   7  20
TORSDOF 5
ENDMDL
MODEL 3
REMARK VINA RESULT:    -8.836      1.855      2.336
REMARK INTER + INTRA:         -11.951
REMARK INTER:                 -11.361
REMARK INTRA:                  -0.590
REMARK UNBOUND:                -0.533
REMARK  5 active torsions:
REMARK  status: ('A' for Active; 'I' for Inactive)
REMARK    1  A    between atoms: C17_7  and  C21_10 
REMARK    2  A    between atoms: C21_10  and  O27_12 
REMARK    3  A    between atoms: O27_12  and  C15_13 
REMARK    4  A    between atoms: C14_19  and  C16_20 
REMARK    5  A    between atoms: N26_23  and  C20_25 
ROOT
HETATM    1  C15   D T9000       3.528  12.764   0.547  1.00 27.55     0.125 A 
HETATM    2  C4    D T9000       4.904  12.656   0.946  1.00 28.27     0.029 A 
HETATM    3  C19   D T9000       2.561  12.327   1.516  1.00 26.72     0.173 A 
HETATM    4  N22   D T9000       1.189  12.411   1.195  1.00 25.80    -0.078 NA
HETATM    5  N23   D T9000       2.875  11.832   2.746  1.00 24.81    -0.228 NA
HETATM    6  C5    D T9000       4.198  11.741   3.094  1.00 28.27     0.100 A 
HETATM    7  C14   D T9000       5.271  12.138   2.230  1.00 30.75     0.024 A 
ENDROOT
BRANCH   1   8
HETATM    8  O27   D T9000       3.074  13.278  -0.680  1.00 29.26    -0.326 OA
BRANCH   8   9
HETATM    9  C21   D T9000       2.744  14.687  -0.966  1.00 32.38     0.145 C 
HETATM   10  C1    D T9000       1.268  14.682  -1.401  1.00 32.72     0.038 C 
BRANCH   9  11
HETATM   11  C17   D T9000       3.651  15.377  -2.058  1.00 34.58     0.029 A 
HETATM   12  C13   D T9000       3.606  16.827  -2.223  1.00 34.39     0.057 A 
HETATM   13 CL     D T9000       2.597  17.867  -1.267  1.00 35.41    -0.083 Cl
HETATM   14  C3    D T9000       4.416  17.465  -3.207  1.00 34.67     0.013 A 
HETATM   15  C2    D T9000       5.277  16.717  -4.046  1.00 35.13     0.031 A 
HETATM   16  C12   D T9000       5.354  15.304  -3.921  1.00 37.02     0.150 A 
HETATM   17  F     D T9000       6.178  14.635  -4.733  1.00 37.34    -0.203 F 
HETATM   18  C18   D T9000       4.553  14.615  -2.938  1.00 36.91     0.084 A 
HETATM   19 CL2    D T9000       4.725  12.871  -2.868  1.00 49.38    -0.080 Cl
ENDBRANCH   9  11
ENDBRANCH   8   9
ENDBRANCH   1   8
BRANCH   7  20
HETATM   20  C16   D T9000       6.741  12.035   2.623  1.00 32.36     0.041 A 
HETATM   21  C6    D T9000       7.864  12.765   2.030  1.00 35.90     0.122 A 
HETATM   22  N24   D T9000       8.950  12.424   2.619  1.00 36.91    -0.168 NA
HETATM   23  N26   D T9000       8.700  11.556   3.533  1.00 38.66    -0.252 N 
HETATM   24  C7    D T9000       7.322  11.242   3.615  1.00 35.41     0.097 A 
BRANCH  23  25
HETATM   25  C20   D T9000       9.787  10.990   4.374  1.00 43.14     0.110 C 
HETATM   26  C8    D T9000      11.037  10.698   3.516  1.00 45.28     0.063 C 
HETATM   27  C10   D T9000      12.158  10.115   4.411  1.00 46.38     0.292 C 
HETATM   28  N25   D T9000      11.709   8.915   5.175  1.00 47.91     0.339 N 
HETATM   29  C11   D T9000      10.472   9.163   5.972  1.00 46.73     0.292 C 
HETATM   30  C9    D T9000       9.314   9.715   5.110  1.00 45.30     0.063 C 
ENDBRANCH  23  25
ENDBRANCH   7  20
TORSDOF 5
ENDMDL
MODEL 4
REMARK VINA RESULT:    -8.799      5.852     10.054
REMARK INTER + INTRA:         -11.903
REMARK INTER:                 -11.143
REMARK INTRA:                  -0.761
REMARK UNBOUND:                -0.533
REMARK  5 active torsions:
REMARK  status: ('A' for Active; 'I' for Inactive)
REMARK    1  A    between atoms: C17_7  and  C21_10 
REMARK    2  A    between atoms: C21_10  and  O27_12 
REMARK    3  A    between atoms: O27_12  and  C15_13 
REMARK    4  A    between atoms: C14_19  and  C16_20 
REMARK    5  A    between atoms: N26_23  and  C20_25 
ROOT
HETATM    1  C15   D T9000       3.920  15.141  -2.277  1.00 27.55     0.125 A 
HETATM    2  C4    D T9000       4.773  15.618  -3.331  1.00 28.27     0.029 A 
HETATM    3  C19   D T9000       2.866  16.031  -1.875  1.00 26.72     0.173 A 
HETATM    4  N22   D T9000       1.985  15.625  -0.850  1.00 25.80    -0.078 NA
HETATM    5  N23   D T9000       2.647  17.259  -2.424  1.00 24.81    -0.228 NA
HETATM    6  C5    D T9000       3.480  17.684  -3.426  1.00 28.27     0.100 A 
HETATM    7  C14   D T9000       4.573  16.905  -3.928  1.00 30.75     0.024 A 
ENDROOT
BRANCH   1   8
HETATM    8  O27   D T9000       4.027  13.889  -1.648  1.00 29.26    -0.326 OA
BRANCH   8   9
HETATM    9  C21   D T9000       5.189  13.389  -0.890  1.00 32.38     0.145 C 
HETATM   10  C1    D T9000       5.813  12.293  -1.773  1.00 32.72     0.038 C 
BRANCH   9  11
HETATM   11  C17   D T9000       4.860  12.835   0.550  1.00 34.58     0.029 A 
HETATM   12  C13   D T9000       5.887  12.865   1.587  1.00 34.39     0.057 A 
HETATM   13 CL     D T9000       7.486  13.494   1.332  1.00 35.41    -0.083 Cl
HETATM   14  C3    D T9000       5.608  12.364   2.892  1.00 34.67     0.013 A 
HETATM   15  C2    D T9000       4.339  11.826   3.215  1.00 35.13     0.031 A 
HETATM   16  C12   D T9000       3.309  11.776   2.237  1.00 37.02     0.150 A 
HETATM   17  F     D T9000       2.126  11.259   2.582  1.00 37.34    -0.203 F 
HETATM   18  C18   D T9000       3.546  12.272   0.904  1.00 36.91     0.084 A 
HETATM   19 CL2    D T9000       2.207  12.164  -0.224  1.00 49.38    -0.080 Cl
ENDBRANCH   9  11
ENDBRANCH   8   9
ENDBRANCH   1   8
BRANCH   7  20
HETATM   20  C16   D T9000       5.495  17.383  -5.044  1.00 32.36     0.041 A 
HETATM   21  C6    D T9000       5.323  18.575  -5.879  1.00 35.90     0.122 A 
HETATM   22  N24   D T9000       6.298  18.657  -6.708  1.00 36.91    -0.168 NA
HETATM   23  N26   D T9000       7.104  17.671  -6.537  1.00 38.66    -0.252 N 
HETATM   24  C7    D T9000       6.680  16.803  -5.501  1.00 35.41     0.097 A 
BRANCH  23  25
HETATM   25  C20   D T9000       8.326  17.524  -7.369  1.00 43.14     0.110 C 
HETATM   26  C8    D T9000       8.689  16.031  -7.535  1.00 45.28     0.063 C 
HETATM   27  C10   D T9000       9.961  15.900  -8.408  1.00 46.38     0.292 C 
HETATM   28  N25   D T9000      11.102  16.700  -7.876  1.00 47.91     0.339 N 
HETATM   29  C11   D T9000      10.755  18.136  -7.663  1.00 46.73     0.292 C 
HETATM   30  C9    D T9000       9.509  18.315  -6.765  1.00 45.30     0.063 C 
ENDBRANCH  23  25
ENDBRANCH   7  20
TORSDOF 5
ENDMDL
MODEL 5
REMARK VINA RESULT:    -8.654      6.100      9.769
REMARK INTER + INTRA:         -11.716
REMARK INTER:                 -11.317
REMARK INTRA:                  -0.399
REMARK UNBOUND:                -0.533
REMARK  5 active torsions:
REMARK  status: ('A' for Active; 'I' for Inactive)
REMARK    1  A    between atoms: C17_7  and  C21_10 
REMARK    2  A    between atoms: C21_10  and  O27_12 
REMARK    3  A    between atoms: O27_12  and  C15_13 
REMARK    4  A    between atoms: C14_19  and  C16_20 
REMARK    5  A    between atoms: N26_23  and  C20_25 
ROOT
HETATM    1  C15   D T9000       4.143  15.238  -2.707  1.00 27.55     0.125 A 
HETATM    2  C4    D T9000       5.098  15.443  -3.761  1.00 28.27     0.029 A 
HETATM    3  C19   D T9000       3.306  16.363  -2.394  1.00 26.72     0.173 A 
HETATM    4  N22   D T9000       2.340  16.230  -1.373  1.00 25.80    -0.078 NA
HETATM    5  N23   D T9000       3.374  17.570  -3.023  1.00 24.81    -0.228 NA
HETATM    6  C5    D T9000       4.298  17.733  -4.023  1.00 28.27     0.100 A 
HETATM    7  C14   D T9000       5.199  16.700  -4.442  1.00 30.75     0.024 A 
ENDROOT
BRANCH   1   8
HETATM    8  O27   D T9000       3.958  14.038  -1.999  1.00 29.26    -0.326 OA
BRANCH   8   9
HETATM    9  C21   D T9000       4.820  13.519  -0.921  1.00 32.38     0.145 C 
HETATM   10  C1    D T9000       5.763  12.509  -1.600  1.00 32.72     0.038 C 
BRANCH   9  11
HETATM   11  C17   D T9000       4.053  12.852   0.286  1.00 34.58     0.029 A 
HETATM   12  C13   D T9000       2.633  12.541   0.155  1.00 34.39     0.057 A 
HETATM   13 CL     D T9000       1.712  12.861  -1.282  1.00 35.41    -0.083 Cl
HETATM   14  C3    D T9000       1.924  11.942   1.237  1.00 34.67     0.013 A 
HETATM   15  C2    D T9000       2.573  11.637   2.459  1.00 35.13     0.031 A 
HETATM   16  C12   D T9000       3.953  11.922   2.631  1.00 37.02     0.150 A 
HETATM   17  F     D T9000       4.526  11.620   3.800  1.00 37.34    -0.203 F 
HETATM   18  C18   D T9000       4.711  12.527   1.563  1.00 36.91     0.084 A 
HETATM   19 CL2    D T9000       6.408  12.836   1.881  1.00 49.38    -0.080 Cl
ENDBRANCH   9  11
ENDBRANCH   8   9
ENDBRANCH   1   8
BRANCH   7  20
HETATM   20  C16   D T9000       6.223  16.887  -5.556  1.00 32.36     0.041 A 
HETATM   21  C6    D T9000       5.963  17.340  -6.925  1.00 35.90     0.122 A 
HETATM   22  N24   D T9000       7.066  17.379  -7.576  1.00 36.91    -0.168 NA
HETATM   23  N26   D T9000       8.037  17.010  -6.819  1.00 38.66    -0.252 N 
HETATM   24  C7    D T9000       7.603  16.676  -5.513  1.00 35.41     0.097 A 
BRANCH  23  25
HETATM   25  C20   D T9000       9.433  16.966  -7.325  1.00 43.14     0.110 C 
HETATM   26  C8    D T9000      10.214  15.815  -6.653  1.00 45.28     0.063 C 
HETATM   27  C10   D T9000      11.664  15.783  -7.197  1.00 46.38     0.292 C 
HETATM   28  N25   D T9000      12.357  17.095  -7.045  1.00 47.91     0.339 N 
HETATM   29  C11   D T9000      11.593  18.229  -7.645  1.00 46.73     0.292 C 
HETATM   30  C9    D T9000      10.148  18.319  -7.103  1.00 45.30     0.063 C 
ENDBRANCH  23  25
ENDBRANCH   7  20
TORSDOF 5
ENDMDL
MODEL 6
REMARK VINA RESULT:    -8.461      2.834      4.194
REMARK INTER + INTRA:         -11.466
REMARK INTER:                 -10.649
REMARK INTRA:                  -0.817
REMARK UNBOUND:                -0.533
REMARK  5 active torsions:
REMARK  status: ('A' for Active; 'I' for Inactive)
REMARK    1  A    between atoms: C17_7  and  C21_10 
REMARK    2  A    between atoms: C21_10  and  O27_12 
REMARK    3  A    between atoms: O27_12  and  C15_13 
REMARK    4  A    between atoms: C14_19  and  C16_20 
REMARK    5  A    between atoms: N26_23  and  C20_25 
ROOT
HETATM    1  C15   D T9000       3.834  14.265  -0.694  1.00 27.55     0.125 A 
HETATM    2  C4    D T9000       4.792  13.686   0.207  1.00 28.27     0.029 A 
HETATM    3  C19   D T9000       2.460  13.916  -0.455  1.00 26.72     0.173 A 
HETATM    4  N22   D T9000       1.464  14.455  -1.298  1.00 25.80    -0.078 NA
HETATM    5  N23   D T9000       2.041  13.090   0.544  1.00 24.81    -0.228 NA
HETATM    6  C5    D T9000       2.981  12.552   1.384  1.00 28.27     0.100 A 
HETATM    7  C14   D T9000       4.386  12.811   1.267  1.00 30.75     0.024 A 
ENDROOT
BRANCH   1   8
HETATM    8  O27   D T9000       4.136  15.148  -1.745  1.00 29.26    -0.326 OA
BRANCH   8   9
HETATM    9  C21   D T9000       5.484  15.571  -2.169  1.00 32.38     0.145 C 
HETATM   10  C1    D T9000       5.827  16.787  -1.290  1.00 32.72     0.038 C 
BRANCH   9  11
HETATM   11  C17   D T9000       5.623  15.925  -3.700  1.00 34.58     0.029 A 
HETATM   12  C13   D T9000       6.602  15.216  -4.519  1.00 34.39     0.057 A 
HETATM   13 CL     D T9000       7.645  13.972  -3.901  1.00 35.41    -0.083 Cl
HETATM   14  C3    D T9000       6.743  15.526  -5.903  1.00 34.67     0.013 A 
HETATM   15  C2    D T9000       5.947  16.524  -6.516  1.00 35.13     0.031 A 
HETATM   16  C12   D T9000       4.981  17.239  -5.758  1.00 37.02     0.150 A 
HETATM   17  F     D T9000       4.251  18.174  -6.374  1.00 37.34    -0.203 F 
HETATM   18  C18   D T9000       4.803  16.958  -4.354  1.00 36.91     0.084 A 
HETATM   19 CL2    D T9000       3.584  17.898  -3.514  1.00 49.38    -0.080 Cl
ENDBRANCH   9  11
ENDBRANCH   8   9
ENDBRANCH   1   8
BRANCH   7  20
HETATM   20  C16   D T9000       5.426  12.211   2.206  1.00 32.36     0.041 A 
HETATM   21  C6    D T9000       5.179  11.310   3.334  1.00 35.90     0.122 A 
HETATM   22  N24   D T9000       6.294  11.009   3.890  1.00 36.91    -0.168 NA
HETATM   23  N26   D T9000       7.261  11.595   3.279  1.00 38.66    -0.252 N 
HETATM   24  C7    D T9000       6.812  12.384   2.192  1.00 35.41     0.097 A 
BRANCH  23  25
HETATM   25  C20   D T9000       8.669  11.415   3.719  1.00 43.14     0.110 C 
HETATM   26  C8    D T9000       9.585  11.155   2.503  1.00 45.28     0.063 C 
HETATM   27  C10   D T9000      11.047  10.976   2.982  1.00 46.38     0.292 C 
HETATM   28  N25   D T9000      11.179   9.914   4.021  1.00 47.91     0.339 N 
HETATM   29  C11   D T9000      10.265  10.121   5.182  1.00 46.73     0.292 C 
HETATM   30  C9    D T9000       8.787  10.271   4.752  1.00 45.30     0.063 C 
ENDBRANCH  23  25
ENDBRANCH   7  20
TORSDOF 5
ENDMDL
MODEL 7
REMARK VINA RESULT:    -8.239      5.755      9.139
REMARK INTER + INTRA:         -11.180
REMARK INTER:                 -10.400
REMARK INTRA:                  -0.779
REMARK UNBOUND:                -0.533
REMARK  5 active torsions:
REMARK  status: ('A' for Active; 'I' for Inactive)
REMARK    1  A    between atoms: C17_7  and  C21_10 
REMARK    2  A    between atoms: C21_10  and  O27_12 
REMARK    3  A    between atoms: O27_12  and  C15_13 
REMARK    4  A    between atoms: C14_19  and  C16_20 
REMARK    5  A    between atoms: N26_23  and  C20_25 
ROOT
HETATM    1  C15   D T9000       5.131  15.136  -1.261  1.00 27.55     0.125 A 
HETATM    2  C4    D T9000       6.261  15.562  -2.040  1.00 28.27     0.029 A 
HETATM    3  C19   D T9000       3.848  15.598  -1.715  1.00 26.72     0.173 A 
HETATM    4  N22   D T9000       2.693  15.212  -1.001  1.00 25.80    -0.078 NA
HETATM    5  N23   D T9000       3.661  16.394  -2.805  1.00 24.81    -0.228 NA
HETATM    6  C5    D T9000       4.760  16.784  -3.525  1.00 28.27     0.100 A 
HETATM    7  C14   D T9000       6.100  16.401  -3.191  1.00 30.75     0.024 A 
ENDROOT
BRANCH   1   8
HETATM    8  O27   D T9000       5.190  14.299  -0.133  1.00 29.26    -0.326 OA
BRANCH   8   9
HETATM    9  C21   D T9000       5.855  12.985  -0.056  1.00 32.38     0.145 C 
HETATM   10  C1    D T9000       5.209  12.133  -1.164  1.00 32.72     0.038 C 
BRANCH   9  11
HETATM   11  C17   D T9000       5.749  12.263   1.343  1.00 34.58     0.029 A 
HETATM   12  C13   D T9000       4.456  12.173   2.013  1.00 34.39     0.057 A 
HETATM   13 CL     D T9000       2.987  12.821   1.350  1.00 35.41    -0.083 Cl
HETATM   14  C3    D T9000       4.344  11.528   3.280  1.00 34.67     0.013 A 
HETATM   15  C2    D T9000       5.475  10.964   3.917  1.00 35.13     0.031 A 
HETATM   16  C12   D T9000       6.754  11.028   3.302  1.00 37.02     0.150 A 
HETATM   17  F     D T9000       7.796  10.485   3.939  1.00 37.34    -0.203 F 
HETATM   18  C18   D T9000       6.915  11.670   2.021  1.00 36.91     0.084 A 
HETATM   19 CL2    D T9000       8.536  11.693   1.351  1.00 49.38    -0.080 Cl
ENDBRANCH   9  11
ENDBRANCH   8   9
ENDBRANCH   1   8
BRANCH   7  20
HETATM   20  C16   D T9000       7.319  16.837  -3.997  1.00 32.36     0.041 A 
HETATM   21  C6    D T9000       7.492  18.102  -4.716  1.00 35.90     0.122 A 
HETATM   22  N24   D T9000       8.645  18.119  -5.274  1.00 36.91    -0.168 NA
HETATM   23  N26   D T9000       9.271  17.024  -5.023  1.00 38.66    -0.252 N 
HETATM   24  C7    D T9000       8.510  16.142  -4.217  1.00 35.41     0.097 A 
BRANCH  23  25
HETATM   25  C20   D T9000      10.638  16.781  -5.551  1.00 43.14     0.110 C 
HETATM   26  C8    D T9000      10.752  17.286  -7.006  1.00 45.28     0.063 C 
HETATM   27  C10   D T9000      12.184  17.028  -7.535  1.00 46.38     0.292 C 
HETATM   28  N25   D T9000      12.591  15.598  -7.404  1.00 47.91     0.339 N 
HETATM   29  C11   D T9000      12.440  15.078  -6.013  1.00 46.73     0.292 C 
HETATM   30  C9    D T9000      11.013  15.284  -5.457  1.00 45.30     0.063 C 
ENDBRANCH  23  25
ENDBRANCH   7  20
TORSDOF 5
ENDMDL
MODEL 8
REMARK VINA RESULT:    -8.139      2.897      3.778
REMARK INTER + INTRA:         -11.050
REMARK INTER:                 -10.412
REMARK INTRA:                  -0.638
REMARK UNBOUND:                -0.533
REMARK  5 active torsions:
REMARK  status: ('A' for Active; 'I' for Inactive)
REMARK    1  A    between atoms: C17_7  and  C21_10 
REMARK    2  A    between atoms: C21_10  and  O27_12 
REMARK    3  A    between atoms: O27_12  and  C15_13 
REMARK    4  A    between atoms: C14_19  and  C16_20 
REMARK    5  A    between atoms: N26_23  and  C20_25 
ROOT
HETATM    1  C15   D T9000       6.563  13.479   1.240  1.00 27.55     0.125 A 
HETATM    2  C4    D T9000       7.058  12.602   2.265  1.00 28.27     0.029 A 
HETATM    3  C19   D T9000       7.563  14.185   0.486  1.00 26.72     0.173 A 
HETATM    4  N22   D T9000       7.149  15.058  -0.543  1.00 25.80    -0.078 NA
HETATM    5  N23   D T9000       8.905  14.068   0.692  1.00 24.81    -0.228 NA
HETATM    6  C5    D T9000       9.342  13.225   1.680  1.00 28.27     0.100 A 
HETATM    7  C14   D T9000       8.462  12.457   2.511  1.00 30.75     0.024 A 
ENDROOT
BRANCH   1   8
HETATM    8  O27   D T9000       5.209  13.668   0.914  1.00 29.26    -0.326 OA
BRANCH   8   9
HETATM    9  C21   D T9000       4.279  12.636   0.418  1.00 32.38     0.145 C 
HETATM   10  C1    D T9000       4.948  12.052  -0.839  1.00 32.72     0.038 C 
BRANCH   9  11
HETATM   11  C17   D T9000       2.822  13.149   0.095  1.00 34.58     0.029 A 
HETATM   12  C13   D T9000       2.608  14.050  -1.033  1.00 34.39     0.057 A 
HETATM   13 CL     D T9000       3.885  14.603  -2.072  1.00 35.41    -0.083 Cl
HETATM   14  C3    D T9000       1.299  14.526  -1.337  1.00 34.67     0.013 A 
HETATM   15  C2    D T9000       0.181  14.142  -0.557  1.00 35.13     0.031 A 
HETATM   16  C12   D T9000       0.342  13.267   0.550  1.00 37.02     0.150 A 
HETATM   17  F     D T9000      -0.739  12.931   1.261  1.00 37.34    -0.203 F 
HETATM   18  C18   D T9000       1.648  12.760   0.894  1.00 36.91     0.084 A 
HETATM   19 CL2    D T9000       1.735  11.686   2.278  1.00 49.38    -0.080 Cl
ENDBRANCH   9  11
ENDBRANCH   8   9
ENDBRANCH   1   8
BRANCH   7  20
HETATM   20  C16   D T9000       8.955  11.520   3.607  1.00 32.36     0.041 A 
HETATM   21  C6    D T9000       8.195  10.450   4.259  1.00 35.90     0.122 A 
HETATM   22  N24   D T9000       8.937   9.871   5.129  1.00 36.91    -0.168 NA
HETATM   23  N26   D T9000      10.101  10.417   5.147  1.00 38.66    -0.252 N 
HETATM   24  C7    D T9000      10.212  11.477   4.214  1.00 35.41     0.097 A 
BRANCH  23  25
HETATM   25  C20   D T9000      11.162   9.935   6.068  1.00 43.14     0.110 C 
HETATM   26  C8    D T9000      12.002  11.122   6.592  1.00 45.28     0.063 C 
HETATM   27  C10   D T9000      13.098  10.599   7.553  1.00 46.38     0.292 C 
HETATM   28  N25   D T9000      13.946   9.544   6.927  1.00 47.91     0.339 N 
HETATM   29  C11   D T9000      13.149   8.412   6.370  1.00 46.73     0.292 C 
HETATM   30  C9    D T9000      12.064   8.886   5.377  1.00 45.30     0.063 C 
ENDBRANCH  23  25
ENDBRANCH   7  20
TORSDOF 5
ENDMDL
MODEL 9
REMARK VINA RESULT:    -8.112      5.375      9.304
REMARK INTER + INTRA:         -11.016
REMARK INTER:                 -10.343
REMARK INTRA:                  -0.673
REMARK UNBOUND:                -0.533
REMARK  5 active torsions:
REMARK  status: ('A' for Active; 'I' for Inactive)
REMARK    1  A    between atoms: C17_7  and  C21_10 
REMARK    2  A    between atoms: C21_10  and  O27_12 
REMARK    3  A    between atoms: O27_12  and  C15_13 
REMARK    4  A    between atoms: C14_19  and  C16_20 
REMARK    5  A    between atoms: N26_23  and  C20_25 
ROOT
HETATM    1  C15   D T9000       5.580  12.977  -0.606  1.00 27.55     0.125 A 
HETATM    2  C4    D T9000       6.505  13.752  -1.386  1.00 28.27     0.029 A 
HETATM    3  C19   D T9000       4.199  13.075  -0.993  1.00 26.72     0.173 A 
HETATM    4  N22   D T9000       3.236  12.334  -0.275  1.00 25.80    -0.078 NA
HETATM    5  N23   D T9000       3.744  13.843  -2.023  1.00 24.81    -0.228 NA
HETATM    6  C5    D T9000       4.652  14.572  -2.745  1.00 28.27     0.100 A 
HETATM    7  C14   D T9000       6.060  14.572  -2.474  1.00 30.75     0.024 A 
ENDROOT
BRANCH   1   8
HETATM    8  O27   D T9000       5.926  12.130   0.461  1.00 29.26    -0.326 OA
BRANCH   8   9
HETATM    9  C21   D T9000       5.994  12.507   1.886  1.00 32.38     0.145 C 
HETATM   10  C1    D T9000       6.078  14.044   1.899  1.00 32.72     0.038 C 
BRANCH   9  11
HETATM   11  C17   D T9000       7.194  11.870   2.689  1.00 34.58     0.029 A 
HETATM   12  C13   D T9000       6.921  10.916   3.759  1.00 34.39     0.057 A 
HETATM   13 CL     D T9000       5.319  10.420   4.213  1.00 35.41    -0.083 Cl
HETATM   14  C3    D T9000       7.993  10.334   4.497  1.00 34.67     0.013 A 
HETATM   15  C2    D T9000       9.341  10.665   4.215  1.00 35.13     0.031 A 
HETATM   16  C12   D T9000       9.654  11.588   3.183  1.00 37.02     0.150 A 
HETATM   17  F     D T9000      10.939  11.875   2.951  1.00 37.34    -0.203 F 
HETATM   18  C18   D T9000       8.602  12.201   2.409  1.00 36.91     0.084 A 
HETATM   19 CL2    D T9000       9.099  13.326   1.159  1.00 49.38    -0.080 Cl
ENDBRANCH   9  11
ENDBRANCH   8   9
ENDBRANCH   1   8
BRANCH   7  20
HETATM   20  C16   D T9000       7.065  15.384  -3.282  1.00 32.36     0.041 A 
HETATM   21  C6    D T9000       7.831  16.546  -2.822  1.00 35.90     0.122 A 
HETATM   22  N24   D T9000       8.578  16.966  -3.775  1.00 36.91    -0.168 NA
HETATM   23  N26   D T9000       8.412  16.234  -4.819  1.00 38.66    -0.252 N 
HETATM   24  C7    D T9000       7.468  15.200  -4.606  1.00 35.41     0.097 A 
BRANCH  23  25
HETATM   25  C20   D T9000       9.163  16.502  -6.073  1.00 43.14     0.110 C 
HETATM   26  C8    D T9000       8.527  15.738  -7.256  1.00 45.28     0.063 C 
HETATM   27  C10   D T9000       9.321  16.034  -8.552  1.00 46.38     0.292 C 
HETATM   28  N25   D T9000      10.775  15.737  -8.409  1.00 47.91     0.339 N 
HETATM   29  C11   D T9000      11.397  16.427  -7.241  1.00 46.73     0.292 C 
HETATM   30  C9    D T9000      10.656  16.131  -5.917  1.00 45.30     0.063 C 
ENDBRANCH  23  25
ENDBRANCH   7  20
TORSDOF 5
ENDMDL
