MODEL 1
REMARK VINA RESULT:    -7.861      0.000      0.000
REMARK INTER + INTRA:         -10.900
REMARK INTER:                 -10.159
REMARK INTRA:                  -0.742
REMARK UNBOUND:                -0.742
REMARK  5 active torsions:
REMARK  status: ('A' for Active; 'I' for Inactive)
REMARK    1  A    between atoms: C17_7  and  C21_10 
REMARK    2  A    between atoms: C21_10  and  O27_12 
REMARK    3  A    between atoms: O27_12  and  C15_13 
REMARK    4  A    between atoms: C14_19  and  C16_20 
REMARK    5  A    between atoms: N26_23  and  C20_25 
ROOT
HETATM    1  C15   D T9000      -4.522  -5.403  -6.226  1.00 27.55     0.125 A 
HETATM    2  C4    D T9000      -5.308  -4.260  -6.600  1.00 28.27     0.029 A 
HETATM    3  C19   D T9000      -3.357  -5.129  -5.432  1.00 26.72     0.173 A 
HETATM    4  N22   D T9000      -2.541  -6.206  -5.023  1.00 25.80    -0.078 NA
HETATM    5  N23   D T9000      -2.974  -3.883  -5.034  1.00 24.81    -0.228 NA
HETATM    6  C5    D T9000      -3.745  -2.813  -5.410  1.00 28.27     0.100 A 
HETATM    7  C14   D T9000      -4.934  -2.934  -6.201  1.00 30.75     0.024 A 
ENDROOT
BRANCH   1   8
HETATM    8  O27   D T9000      -4.821  -6.738  -6.552  1.00 29.26    -0.326 OA
BRANCH   8   9
HETATM    9  C21   D T9000      -6.161  -7.353  -6.562  1.00 32.38     0.145 C 
HETATM   10  C1    D T9000      -6.532  -7.553  -5.082  1.00 32.72     0.038 C 
BRANCH   9  11
HETATM   11  C17   D T9000      -6.267  -8.713  -7.358  1.00 34.58     0.029 A 
HETATM   12  C13   D T9000      -7.536  -9.095  -7.967  1.00 34.39     0.057 A 
HETATM   13 CL     D T9000      -8.974  -8.124  -7.874  1.00 35.41    -0.083 Cl
HETATM   14  C3    D T9000      -7.650 -10.322  -8.685  1.00 34.67     0.013 A 
HETATM   15  C2    D T9000      -6.544 -11.195  -8.825  1.00 35.13     0.031 A 
HETATM   16  C12   D T9000      -5.289 -10.863  -8.248  1.00 37.02     0.150 A 
HETATM   17  F     D T9000      -4.271 -11.715  -8.402  1.00 37.34    -0.203 F 
HETATM   18  C18   D T9000      -5.126  -9.632  -7.513  1.00 36.91     0.084 A 
HETATM   19 CL2    D T9000      -3.536  -9.319  -6.845  1.00 49.38    -0.080 Cl
ENDBRANCH   9  11
ENDBRANCH   8   9
ENDBRANCH   1   8
BRANCH   7  20
HETATM   20  C16   D T9000      -5.788  -1.742  -6.614  1.00 32.36     0.041 A 
HETATM   21  C6    D T9000      -5.676  -0.963  -7.850  1.00 35.90     0.122 A 
HETATM   22  N24   D T9000      -6.563  -0.037  -7.851  1.00 36.91    -0.168 NA
HETATM   23  N26   D T9000      -7.258  -0.095  -6.772  1.00 38.66    -0.252 N 
HETATM   24  C7    D T9000      -6.842  -1.145  -5.919  1.00 35.41     0.097 A 
BRANCH  23  25
HETATM   25  C20   D T9000      -8.361   0.867  -6.517  1.00 43.14     0.110 C 
HETATM   26  C8    D T9000      -9.608   0.494  -7.350  1.00 45.28     0.063 C 
HETATM   27  C10   D T9000     -10.744   1.506  -7.065  1.00 46.38     0.292 C 
HETATM   28  N25   D T9000     -10.321   2.917  -7.291  1.00 47.91     0.339 N 
HETATM   29  C11   D T9000      -9.088   3.283  -6.532  1.00 46.73     0.292 C 
HETATM   30  C9    D T9000      -7.914   2.318  -6.812  1.00 45.30     0.063 C 
ENDBRANCH  23  25
ENDBRANCH   7  20
TORSDOF 5
ENDMDL
MODEL 2
REMARK VINA RESULT:    -7.758      0.965      2.133
REMARK INTER + INTRA:         -10.767
REMARK INTER:                 -10.214
REMARK INTRA:                  -0.553
REMARK UNBOUND:                -0.742
REMARK  5 active torsions:
REMARK  status: ('A' for Active; 'I' for Inactive)
REMARK    1  A    between atoms: C17_7  and  C21_10 
REMARK    2  A    between atoms: C21_10  and  O27_12 
REMARK    3  A    between atoms: O27_12  and  C15_13 
REMARK    4  A    between atoms: C14_19  and  C16_20 
REMARK    5  A    between atoms: N26_23  and  C20_25 
ROOT
HETATM    1  C15   D T9000      -4.403  -5.538  -6.251  1.00 27.55     0.125 A 
HETATM    2  C4    D T9000      -5.198  -4.425  -6.691  1.00 28.27     0.029 A 
HETATM    3  C19   D T9000      -3.256  -5.209  -5.450  1.00 26.72     0.173 A 
HETATM    4  N22   D T9000      -2.433  -6.252  -4.977  1.00 25.80    -0.078 NA
HETATM    5  N23   D T9000      -2.899  -3.939  -5.104  1.00 24.81    -0.228 NA
HETATM    6  C5    D T9000      -3.679  -2.900  -5.542  1.00 28.27     0.100 A 
HETATM    7  C14   D T9000      -4.852  -3.077  -6.348  1.00 30.75     0.024 A 
ENDROOT
BRANCH   1   8
HETATM    8  O27   D T9000      -4.676  -6.890  -6.519  1.00 29.26    -0.326 OA
BRANCH   8   9
HETATM    9  C21   D T9000      -6.012  -7.503  -6.636  1.00 32.38     0.145 C 
HETATM   10  C1    D T9000      -6.520  -7.657  -5.191  1.00 32.72     0.038 C 
BRANCH   9  11
HETATM   11  C17   D T9000      -6.050  -8.885  -7.398  1.00 34.58     0.029 A 
HETATM   12  C13   D T9000      -4.845  -9.706  -7.461  1.00 34.39     0.057 A 
HETATM   13 CL     D T9000      -3.336  -9.250  -6.731  1.00 35.41    -0.083 Cl
HETATM   14  C3    D T9000      -4.860 -10.956  -8.149  1.00 34.67     0.013 A 
HETATM   15  C2    D T9000      -6.034 -11.429  -8.784  1.00 35.13     0.031 A 
HETATM   16  C12   D T9000      -7.229 -10.663  -8.747  1.00 37.02     0.150 A 
HETATM   17  F     D T9000      -8.316 -11.145  -9.360  1.00 37.34    -0.203 F 
HETATM   18  C18   D T9000      -7.262  -9.393  -8.063  1.00 36.91     0.084 A 
HETATM   19 CL2    D T9000      -8.788  -8.531  -8.077  1.00 49.38    -0.080 Cl
ENDBRANCH   9  11
ENDBRANCH   8   9
ENDBRANCH   1   8
BRANCH   7  20
HETATM   20  C16   D T9000      -5.716  -1.918  -6.830  1.00 32.36     0.041 A 
HETATM   21  C6    D T9000      -5.451  -1.036  -7.970  1.00 35.90     0.122 A 
HETATM   22  N24   D T9000      -6.398  -0.178  -8.073  1.00 36.91    -0.168 NA
HETATM   23  N26   D T9000      -7.267  -0.371  -7.146  1.00 38.66    -0.252 N 
HETATM   24  C7    D T9000      -6.922  -1.455  -6.302  1.00 35.41     0.097 A 
BRANCH  23  25
HETATM   25  C20   D T9000      -8.474   0.487  -7.034  1.00 43.14     0.110 C 
HETATM   26  C8    D T9000      -8.073   1.975  -6.928  1.00 45.28     0.063 C 
HETATM   27  C10   D T9000      -9.346   2.850  -6.818  1.00 46.38     0.292 C 
HETATM   28  N25   D T9000     -10.232   2.427  -5.696  1.00 47.91     0.339 N 
HETATM   29  C11   D T9000     -10.591   0.979  -5.753  1.00 46.73     0.292 C 
HETATM   30  C9    D T9000      -9.348   0.064  -5.830  1.00 45.30     0.063 C 
ENDBRANCH  23  25
ENDBRANCH   7  20
TORSDOF 5
ENDMDL
MODEL 3
REMARK VINA RESULT:    -7.716      4.277      9.429
REMARK INTER + INTRA:         -10.714
REMARK INTER:                  -9.606
REMARK INTRA:                  -1.108
REMARK UNBOUND:                -0.742
REMARK  5 active torsions:
REMARK  status: ('A' for Active; 'I' for Inactive)
REMARK    1  A    between atoms: C17_7  and  C21_10 
REMARK    2  A    between atoms: C21_10  and  O27_12 
REMARK    3  A    between atoms: O27_12  and  C15_13 
REMARK    4  A    between atoms: C14_19  and  C16_20 
REMARK    5  A    between atoms: N26_23  and  C20_25 
ROOT
HETATM    1  C15   D T9000      -9.120  -2.950  -8.030  1.00 27.55     0.125 A 
HETATM    2  C4    D T9000      -8.324  -4.116  -7.769  1.00 28.27     0.029 A 
HETATM    3  C19   D T9000     -10.486  -3.195  -8.405  1.00 26.72     0.173 A 
HETATM    4  N22   D T9000     -11.328  -2.096  -8.670  1.00 25.80    -0.078 NA
HETATM    5  N23   D T9000     -11.038  -4.436  -8.523  1.00 24.81    -0.228 NA
HETATM    6  C5    D T9000     -10.249  -5.528  -8.268  1.00 28.27     0.100 A 
HETATM    7  C14   D T9000      -8.871  -5.436  -7.885  1.00 30.75     0.024 A 
ENDROOT
BRANCH   1   8
HETATM    8  O27   D T9000      -8.677  -1.620  -7.921  1.00 29.26    -0.326 OA
BRANCH   8   9
HETATM    9  C21   D T9000      -8.208  -0.956  -6.691  1.00 32.38     0.145 C 
HETATM   10  C1    D T9000      -8.363   0.552  -6.956  1.00 32.72     0.038 C 
BRANCH   9  11
HETATM   11  C17   D T9000      -6.728  -1.304  -6.265  1.00 34.58     0.029 A 
HETATM   12  C13   D T9000      -6.464  -1.808  -4.922  1.00 34.39     0.057 A 
HETATM   13 CL     D T9000      -7.705  -2.061  -3.733  1.00 35.41    -0.083 Cl
HETATM   14  C3    D T9000      -5.132  -2.123  -4.520  1.00 34.67     0.013 A 
HETATM   15  C2    D T9000      -4.040  -1.955  -5.405  1.00 35.13     0.031 A 
HETATM   16  C12   D T9000      -4.251  -1.467  -6.722  1.00 37.02     0.150 A 
HETATM   17  F     D T9000      -3.192  -1.322  -7.526  1.00 37.34    -0.203 F 
HETATM   18  C18   D T9000      -5.580  -1.136  -7.173  1.00 36.91     0.084 A 
HETATM   19 CL2    D T9000      -5.728  -0.543  -8.817  1.00 49.38    -0.080 Cl
ENDBRANCH   9  11
ENDBRANCH   8   9
ENDBRANCH   1   8
BRANCH   7  20
HETATM   20  C16   D T9000      -8.000  -6.654  -7.601  1.00 32.36     0.041 A 
HETATM   21  C6    D T9000      -6.820  -6.711  -6.734  1.00 35.90     0.122 A 
HETATM   22  N24   D T9000      -6.347  -7.902  -6.737  1.00 36.91    -0.168 NA
HETATM   23  N26   D T9000      -7.060  -8.654  -7.497  1.00 38.66    -0.252 N 
HETATM   24  C7    D T9000      -8.135  -7.953  -8.093  1.00 35.41     0.097 A 
BRANCH  23  25
HETATM   25  C20   D T9000      -6.732 -10.092  -7.680  1.00 43.14     0.110 C 
HETATM   26  C8    D T9000      -7.073 -10.892  -6.402  1.00 45.28     0.063 C 
HETATM   27  C10   D T9000      -6.728 -12.386  -6.618  1.00 46.38     0.292 C 
HETATM   28  N25   D T9000      -5.314 -12.588  -7.044  1.00 47.91     0.339 N 
HETATM   29  C11   D T9000      -4.950 -11.784  -8.248  1.00 46.73     0.292 C 
HETATM   30  C9    D T9000      -5.246 -10.278  -8.066  1.00 45.30     0.063 C 
ENDBRANCH  23  25
ENDBRANCH   7  20
TORSDOF 5
ENDMDL
MODEL 4
REMARK VINA RESULT:    -7.647      3.892      8.326
REMARK INTER + INTRA:         -10.624
REMARK INTER:                  -9.518
REMARK INTRA:                  -1.106
REMARK UNBOUND:                -0.742
REMARK  5 active torsions:
REMARK  status: ('A' for Active; 'I' for Inactive)
REMARK    1  A    between atoms: C17_7  and  C21_10 
REMARK    2  A    between atoms: C21_10  and  O27_12 
REMARK    3  A    between atoms: O27_12  and  C15_13 
REMARK    4  A    between atoms: C14_19  and  C16_20 
REMARK    5  A    between atoms: N26_23  and  C20_25 
ROOT
HETATM    1  C15   D T9000      -5.573  -1.973  -5.674  1.00 27.55     0.125 A 
HETATM    2  C4    D T9000      -5.763  -3.375  -5.931  1.00 28.27     0.029 A 
HETATM    3  C19   D T9000      -4.221  -1.563  -5.412  1.00 26.72     0.173 A 
HETATM    4  N22   D T9000      -3.959  -0.201  -5.158  1.00 25.80    -0.078 NA
HETATM    5  N23   D T9000      -3.152  -2.409  -5.393  1.00 24.81    -0.228 NA
HETATM    6  C5    D T9000      -3.369  -3.740  -5.640  1.00 28.27     0.100 A 
HETATM    7  C14   D T9000      -4.663  -4.293  -5.917  1.00 30.75     0.024 A 
ENDROOT
BRANCH   1   8
HETATM    8  O27   D T9000      -6.586  -0.999  -5.688  1.00 29.26    -0.326 OA
BRANCH   8   9
HETATM    9  C21   D T9000      -7.326  -0.528  -6.873  1.00 32.38     0.145 C 
HETATM   10  C1    D T9000      -7.604   0.964  -6.616  1.00 32.72     0.038 C 
BRANCH   9  11
HETATM   11  C17   D T9000      -8.665  -1.306  -7.178  1.00 34.58     0.029 A 
HETATM   12  C13   D T9000      -9.119  -1.448  -8.558  1.00 34.39     0.057 A 
HETATM   13 CL     D T9000      -8.256  -0.803  -9.920  1.00 35.41    -0.083 Cl
HETATM   14  C3    D T9000     -10.328  -2.144  -8.851  1.00 34.67     0.013 A 
HETATM   15  C2    D T9000     -11.116  -2.711  -7.819  1.00 35.13     0.031 A 
HETATM   16  C12   D T9000     -10.713  -2.597  -6.462  1.00 37.02     0.150 A 
HETATM   17  F     D T9000     -11.486  -3.145  -5.519  1.00 37.34    -0.203 F 
HETATM   18  C18   D T9000      -9.497  -1.902  -6.118  1.00 36.91     0.084 A 
HETATM   19 CL2    D T9000      -9.091  -1.822  -4.414  1.00 49.38    -0.080 Cl
ENDBRANCH   9  11
ENDBRANCH   8   9
ENDBRANCH   1   8
BRANCH   7  20
HETATM   20  C16   D T9000      -4.897  -5.773  -6.193  1.00 32.36     0.041 A 
HETATM   21  C6    D T9000      -3.898  -6.845  -6.156  1.00 35.90     0.122 A 
HETATM   22  N24   D T9000      -4.462  -7.961  -6.440  1.00 36.91    -0.168 NA
HETATM   23  N26   D T9000      -5.713  -7.775  -6.664  1.00 38.66    -0.252 N 
HETATM   24  C7    D T9000      -6.088  -6.416  -6.532  1.00 35.41     0.097 A 
BRANCH  23  25
HETATM   25  C20   D T9000      -6.607  -8.909  -7.015  1.00 43.14     0.110 C 
HETATM   26  C8    D T9000      -5.864  -9.926  -7.911  1.00 45.28     0.063 C 
HETATM   27  C10   D T9000      -6.812 -11.099  -8.260  1.00 46.38     0.292 C 
HETATM   28  N25   D T9000      -8.088 -10.637  -8.877  1.00 47.91     0.339 N 
HETATM   29  C11   D T9000      -8.796  -9.615  -8.050  1.00 46.73     0.292 C 
HETATM   30  C9    D T9000      -7.897  -8.407  -7.704  1.00 45.30     0.063 C 
ENDBRANCH  23  25
ENDBRANCH   7  20
TORSDOF 5
ENDMDL
MODEL 5
REMARK VINA RESULT:    -7.601      4.062      8.658
REMARK INTER + INTRA:         -10.564
REMARK INTER:                  -9.446
REMARK INTRA:                  -1.118
REMARK UNBOUND:                -0.742
REMARK  5 active torsions:
REMARK  status: ('A' for Active; 'I' for Inactive)
REMARK    1  A    between atoms: C17_7  and  C21_10 
REMARK    2  A    between atoms: C21_10  and  O27_12 
REMARK    3  A    between atoms: O27_12  and  C15_13 
REMARK    4  A    between atoms: C14_19  and  C16_20 
REMARK    5  A    between atoms: N26_23  and  C20_25 
ROOT
HETATM    1  C15   D T9000      -4.854  -2.243  -6.734  1.00 27.55     0.125 A 
HETATM    2  C4    D T9000      -5.053  -3.654  -6.916  1.00 28.27     0.029 A 
HETATM    3  C19   D T9000      -3.899  -1.871  -5.727  1.00 26.72     0.173 A 
HETATM    4  N22   D T9000      -3.648  -0.501  -5.498  1.00 25.80    -0.078 NA
HETATM    5  N23   D T9000      -3.202  -2.759  -4.963  1.00 24.81    -0.228 NA
HETATM    6  C5    D T9000      -3.417  -4.099  -5.162  1.00 28.27     0.100 A 
HETATM    7  C14   D T9000      -4.339  -4.617  -6.130  1.00 30.75     0.024 A 
ENDROOT
BRANCH   1   8
HETATM    8  O27   D T9000      -5.491  -1.229  -7.471  1.00 29.26    -0.326 OA
BRANCH   8   9
HETATM    9  C21   D T9000      -6.753  -1.359  -8.221  1.00 32.38     0.145 C 
HETATM   10  C1    D T9000      -6.788  -0.152  -9.175  1.00 32.72     0.038 C 
BRANCH   9  11
HETATM   11  C17   D T9000      -8.057  -1.412  -7.331  1.00 34.58     0.029 A 
HETATM   12  C13   D T9000      -8.857  -2.632  -7.297  1.00 34.39     0.057 A 
HETATM   13 CL     D T9000      -8.455  -4.067  -8.189  1.00 35.41    -0.083 Cl
HETATM   14  C3    D T9000     -10.040  -2.696  -6.502  1.00 34.67     0.013 A 
HETATM   15  C2    D T9000     -10.467  -1.586  -5.733  1.00 35.13     0.031 A 
HETATM   16  C12   D T9000      -9.719  -0.378  -5.737  1.00 37.02     0.150 A 
HETATM   17  F     D T9000     -10.157   0.647  -4.999  1.00 37.34    -0.203 F 
HETATM   18  C18   D T9000      -8.516  -0.267  -6.525  1.00 36.91     0.084 A 
HETATM   19 CL2    D T9000      -7.668   1.266  -6.457  1.00 49.38    -0.080 Cl
ENDBRANCH   9  11
ENDBRANCH   8   9
ENDBRANCH   1   8
BRANCH   7  20
HETATM   20  C16   D T9000      -4.572  -6.107  -6.347  1.00 32.36     0.041 A 
HETATM   21  C6    D T9000      -3.563  -7.169  -6.323  1.00 35.90     0.122 A 
HETATM   22  N24   D T9000      -4.128  -8.298  -6.544  1.00 36.91    -0.168 NA
HETATM   23  N26   D T9000      -5.391  -8.130  -6.715  1.00 38.66    -0.252 N 
HETATM   24  C7    D T9000      -5.771  -6.770  -6.610  1.00 35.41     0.097 A 
BRANCH  23  25
HETATM   25  C20   D T9000      -6.289  -9.281  -6.988  1.00 43.14     0.110 C 
HETATM   26  C8    D T9000      -5.607 -10.284  -7.946  1.00 45.28     0.063 C 
HETATM   27  C10   D T9000      -6.559 -11.476  -8.212  1.00 46.38     0.292 C 
HETATM   28  N25   D T9000      -7.892 -11.040  -8.715  1.00 47.91     0.339 N 
HETATM   29  C11   D T9000      -8.546 -10.032  -7.829  1.00 46.73     0.292 C 
HETATM   30  C9    D T9000      -7.644  -8.805  -7.562  1.00 45.30     0.063 C 
ENDBRANCH  23  25
ENDBRANCH   7  20
TORSDOF 5
ENDMDL
MODEL 6
REMARK VINA RESULT:    -7.474      4.021      8.481
REMARK INTER + INTRA:         -10.401
REMARK INTER:                  -9.207
REMARK INTRA:                  -1.193
REMARK UNBOUND:                -0.742
REMARK  5 active torsions:
REMARK  status: ('A' for Active; 'I' for Inactive)
REMARK    1  A    between atoms: C17_7  and  C21_10 
REMARK    2  A    between atoms: C21_10  and  O27_12 
REMARK    3  A    between atoms: O27_12  and  C15_13 
REMARK    4  A    between atoms: C14_19  and  C16_20 
REMARK    5  A    between atoms: N26_23  and  C20_25 
ROOT
HETATM    1  C15   D T9000      -4.680  -4.229  -6.061  1.00 27.55     0.125 A 
HETATM    2  C4    D T9000      -5.065  -5.537  -6.514  1.00 28.27     0.029 A 
HETATM    3  C19   D T9000      -3.477  -4.167  -5.278  1.00 26.72     0.173 A 
HETATM    4  N22   D T9000      -3.036  -2.913  -4.804  1.00 25.80    -0.078 NA
HETATM    5  N23   D T9000      -2.714  -5.249  -4.954  1.00 24.81    -0.228 NA
HETATM    6  C5    D T9000      -3.110  -6.483  -5.402  1.00 28.27     0.100 A 
HETATM    7  C14   D T9000      -4.287  -6.698  -6.191  1.00 30.75     0.024 A 
ENDROOT
BRANCH   1   8
HETATM    8  O27   D T9000      -5.366  -3.035  -6.345  1.00 29.26    -0.326 OA
BRANCH   8   9
HETATM    9  C21   D T9000      -6.557  -2.897  -7.203  1.00 32.38     0.145 C 
HETATM   10  C1    D T9000      -6.594  -1.416  -7.617  1.00 32.72     0.038 C 
BRANCH   9  11
HETATM   11  C17   D T9000      -7.919  -3.329  -6.531  1.00 34.58     0.029 A 
HETATM   12  C13   D T9000      -8.774  -4.306  -7.197  1.00 34.39     0.057 A 
HETATM   13 CL     D T9000      -8.377  -5.046  -8.717  1.00 35.41    -0.083 Cl
HETATM   14  C3    D T9000     -10.010  -4.704  -6.606  1.00 34.67     0.013 A 
HETATM   15  C2    D T9000     -10.437  -4.165  -5.368  1.00 35.13     0.031 A 
HETATM   16  C12   D T9000      -9.637  -3.211  -4.685  1.00 37.02     0.150 A 
HETATM   17  F     D T9000     -10.077  -2.725  -3.520  1.00 37.34    -0.203 F 
HETATM   18  C18   D T9000      -8.379  -2.779  -5.244  1.00 36.91     0.084 A 
HETATM   19 CL2    D T9000      -7.470  -1.600  -4.318  1.00 49.38    -0.080 Cl
ENDBRANCH   9  11
ENDBRANCH   8   9
ENDBRANCH   1   8
BRANCH   7  20
HETATM   20  C16   D T9000      -4.721  -8.072  -6.687  1.00 32.36     0.041 A 
HETATM   21  C6    D T9000      -3.852  -9.155  -7.155  1.00 35.90     0.122 A 
HETATM   22  N24   D T9000      -4.570 -10.162  -7.490  1.00 36.91    -0.168 NA
HETATM   23  N26   D T9000      -5.814  -9.894  -7.307  1.00 38.66    -0.252 N 
HETATM   24  C7    D T9000      -6.014  -8.587  -6.800  1.00 35.41     0.097 A 
BRANCH  23  25
HETATM   25  C20   D T9000      -6.869 -10.893  -7.616  1.00 43.14     0.110 C 
HETATM   26  C8    D T9000      -8.051 -10.223  -8.352  1.00 45.28     0.063 C 
HETATM   27  C10   D T9000      -9.134 -11.283  -8.667  1.00 46.38     0.292 C 
HETATM   28  N25   D T9000      -9.578 -12.022  -7.452  1.00 47.91     0.339 N 
HETATM   29  C11   D T9000      -8.445 -12.636  -6.699  1.00 46.73     0.292 C 
HETATM   30  C9    D T9000      -7.352 -11.606  -6.332  1.00 45.30     0.063 C 
ENDBRANCH  23  25
ENDBRANCH   7  20
TORSDOF 5
ENDMDL
MODEL 7
REMARK VINA RESULT:    -7.404      3.953      9.155
REMARK INTER + INTRA:         -10.309
REMARK INTER:                  -9.318
REMARK INTRA:                  -0.992
REMARK UNBOUND:                -0.742
REMARK  5 active torsions:
REMARK  status: ('A' for Active; 'I' for Inactive)
REMARK    1  A    between atoms: C17_7  and  C21_10 
REMARK    2  A    between atoms: C21_10  and  O27_12 
REMARK    3  A    between atoms: O27_12  and  C15_13 
REMARK    4  A    between atoms: C14_19  and  C16_20 
REMARK    5  A    between atoms: N26_23  and  C20_25 
ROOT
HETATM    1  C15   D T9000      -4.427  -4.237  -6.347  1.00 27.55     0.125 A 
HETATM    2  C4    D T9000      -4.951  -5.517  -6.737  1.00 28.27     0.029 A 
HETATM    3  C19   D T9000      -3.322  -4.268  -5.428  1.00 26.72     0.173 A 
HETATM    4  N22   D T9000      -2.753  -3.048  -5.007  1.00 25.80    -0.078 NA
HETATM    5  N23   D T9000      -2.772  -5.409  -4.926  1.00 24.81    -0.228 NA
HETATM    6  C5    D T9000      -3.298  -6.614  -5.318  1.00 28.27     0.100 A 
HETATM    7  C14   D T9000      -4.399  -6.737  -6.228  1.00 30.75     0.024 A 
ENDROOT
BRANCH   1   8
HETATM    8  O27   D T9000      -4.888  -2.993  -6.810  1.00 29.26    -0.326 OA
BRANCH   8   9
HETATM    9  C21   D T9000      -6.244  -2.696  -7.308  1.00 32.38     0.145 C 
HETATM   10  C1    D T9000      -6.232  -1.198  -7.661  1.00 32.72     0.038 C 
BRANCH   9  11
HETATM   11  C17   D T9000      -7.414  -3.029  -6.302  1.00 34.58     0.029 A 
HETATM   12  C13   D T9000      -7.311  -2.602  -4.910  1.00 34.39     0.057 A 
HETATM   13 CL     D T9000      -5.952  -1.726  -4.275  1.00 35.41    -0.083 Cl
HETATM   14  C3    D T9000      -8.357  -2.898  -3.986  1.00 34.67     0.013 A 
HETATM   15  C2    D T9000      -9.513  -3.609  -4.391  1.00 35.13     0.031 A 
HETATM   16  C12   D T9000      -9.655  -4.044  -5.736  1.00 37.02     0.150 A 
HETATM   17  F     D T9000     -10.761  -4.713  -6.076  1.00 37.34    -0.203 F 
HETATM   18  C18   D T9000      -8.623  -3.767  -6.705  1.00 36.91     0.084 A 
HETATM   19 CL2    D T9000      -8.901  -4.346  -8.336  1.00 49.38    -0.080 Cl
ENDBRANCH   9  11
ENDBRANCH   8   9
ENDBRANCH   1   8
BRANCH   7  20
HETATM   20  C16   D T9000      -4.978  -8.079  -6.661  1.00 32.36     0.041 A 
HETATM   21  C6    D T9000      -6.385  -8.486  -6.622  1.00 35.90     0.122 A 
HETATM   22  N24   D T9000      -6.494  -9.683  -7.068  1.00 36.91    -0.168 NA
HETATM   23  N26   D T9000      -5.338 -10.133  -7.401  1.00 38.66    -0.252 N 
HETATM   24  C7    D T9000      -4.307  -9.188  -7.179  1.00 35.41     0.097 A 
BRANCH  23  25
HETATM   25  C20   D T9000      -5.177 -11.503  -7.952  1.00 43.14     0.110 C 
HETATM   26  C8    D T9000      -6.171 -11.740  -9.112  1.00 45.28     0.063 C 
HETATM   27  C10   D T9000      -5.983 -13.171  -9.673  1.00 46.38     0.292 C 
HETATM   28  N25   D T9000      -6.095 -14.216  -8.617  1.00 47.91     0.339 N 
HETATM   29  C11   D T9000      -5.177 -13.978  -7.463  1.00 46.73     0.292 C 
HETATM   30  C9    D T9000      -5.354 -12.571  -6.848  1.00 45.30     0.063 C 
ENDBRANCH  23  25
ENDBRANCH   7  20
TORSDOF 5
ENDMDL
MODEL 8
REMARK VINA RESULT:    -7.218      4.173      9.790
REMARK INTER + INTRA:         -10.070
REMARK INTER:                  -8.917
REMARK INTRA:                  -1.153
REMARK UNBOUND:                -0.742
REMARK  5 active torsions:
REMARK  status: ('A' for Active; 'I' for Inactive)
REMARK    1  A    between atoms: C17_7  and  C21_10 
REMARK    2  A    between atoms: C21_10  and  O27_12 
REMARK    3  A    between atoms: O27_12  and  C15_13 
REMARK    4  A    between atoms: C14_19  and  C16_20 
REMARK    5  A    between atoms: N26_23  and  C20_25 
ROOT
HETATM    1  C15   D T9000      -8.092  -4.899  -6.187  1.00 27.55     0.125 A 
HETATM    2  C4    D T9000      -7.209  -6.032  -6.219  1.00 28.27     0.029 A 
HETATM    3  C19   D T9000      -9.093  -4.857  -7.217  1.00 26.72     0.173 A 
HETATM    4  N22   D T9000      -9.999  -3.776  -7.243  1.00 25.80    -0.078 NA
HETATM    5  N23   D T9000      -9.238  -5.804  -8.187  1.00 24.81    -0.228 NA
HETATM    6  C5    D T9000      -8.377  -6.871  -8.189  1.00 28.27     0.100 A 
HETATM    7  C14   D T9000      -7.330  -7.045  -7.225  1.00 30.75     0.024 A 
ENDROOT
BRANCH   1   8
HETATM    8  O27   D T9000      -8.062  -3.871  -5.229  1.00 29.26    -0.326 OA
BRANCH   8   9
HETATM    9  C21   D T9000      -6.866  -3.138  -4.773  1.00 32.38     0.145 C 
HETATM   10  C1    D T9000      -7.394  -2.033  -3.841  1.00 32.72     0.038 C 
BRANCH   9  11
HETATM   11  C17   D T9000      -5.977  -2.527  -5.926  1.00 34.58     0.029 A 
HETATM   12  C13   D T9000      -4.596  -2.970  -6.083  1.00 34.39     0.057 A 
HETATM   13 CL     D T9000      -3.850  -4.160  -5.061  1.00 35.41    -0.083 Cl
HETATM   14  C3    D T9000      -3.777  -2.425  -7.116  1.00 34.67     0.013 A 
HETATM   15  C2    D T9000      -4.278  -1.446  -8.008  1.00 35.13     0.031 A 
HETATM   16  C12   D T9000      -5.616  -0.985  -7.891  1.00 37.02     0.150 A 
HETATM   17  F     D T9000      -6.050  -0.059  -8.753  1.00 37.34    -0.203 F 
HETATM   18  C18   D T9000      -6.482  -1.508  -6.863  1.00 36.91     0.084 A 
HETATM   19 CL2    D T9000      -8.114  -0.872  -6.809  1.00 49.38    -0.080 Cl
ENDBRANCH   9  11
ENDBRANCH   8   9
ENDBRANCH   1   8
BRANCH   7  20
HETATM   20  C16   D T9000      -6.378  -8.236  -7.232  1.00 32.36     0.041 A 
HETATM   21  C6    D T9000      -4.976  -8.245  -6.806  1.00 35.90     0.122 A 
HETATM   22  N24   D T9000      -4.496  -9.425  -6.951  1.00 36.91    -0.168 NA
HETATM   23  N26   D T9000      -5.397 -10.210  -7.422  1.00 38.66    -0.252 N 
HETATM   24  C7    D T9000      -6.631  -9.548  -7.635  1.00 35.41     0.097 A 
BRANCH  23  25
HETATM   25  C20   D T9000      -5.106 -11.643  -7.686  1.00 43.14     0.110 C 
HETATM   26  C8    D T9000      -5.680 -12.068  -9.057  1.00 45.28     0.063 C 
HETATM   27  C10   D T9000      -5.360 -13.561  -9.312  1.00 46.38     0.292 C 
HETATM   28  N25   D T9000      -5.836 -14.442  -8.209  1.00 47.91     0.339 N 
HETATM   29  C11   D T9000      -5.333 -14.018  -6.868  1.00 46.73     0.292 C 
HETATM   30  C9    D T9000      -5.659 -12.540  -6.555  1.00 45.30     0.063 C 
ENDBRANCH  23  25
ENDBRANCH   7  20
TORSDOF 5
ENDMDL
MODEL 9
REMARK VINA RESULT:    -7.123      4.718     10.745
REMARK INTER + INTRA:          -9.947
REMARK INTER:                  -9.031
REMARK INTRA:                  -0.916
REMARK UNBOUND:                -0.742
REMARK  5 active torsions:
REMARK  status: ('A' for Active; 'I' for Inactive)
REMARK    1  A    between atoms: C17_7  and  C21_10 
REMARK    2  A    between atoms: C21_10  and  O27_12 
REMARK    3  A    between atoms: O27_12  and  C15_13 
REMARK    4  A    between atoms: C14_19  and  C16_20 
REMARK    5  A    between atoms: N26_23  and  C20_25 
ROOT
HETATM    1  C15   D T9000      -7.874  -6.760  -7.680  1.00 27.55     0.125 A 
HETATM    2  C4    D T9000      -7.006  -7.903  -7.611  1.00 28.27     0.029 A 
HETATM    3  C19   D T9000      -9.256  -7.040  -7.953  1.00 26.72     0.173 A 
HETATM    4  N22   D T9000     -10.167  -5.965  -8.029  1.00 25.80    -0.078 NA
HETATM    5  N23   D T9000      -9.764  -8.291  -8.145  1.00 24.81    -0.228 NA
HETATM    6  C5    D T9000      -8.907  -9.359  -8.074  1.00 28.27     0.100 A 
HETATM    7  C14   D T9000      -7.504  -9.232  -7.809  1.00 30.75     0.024 A 
ENDROOT
BRANCH   1   8
HETATM    8  O27   D T9000      -7.480  -5.426  -7.479  1.00 29.26    -0.326 OA
BRANCH   8   9
HETATM    9  C21   D T9000      -6.692  -4.911  -6.343  1.00 32.38     0.145 C 
HETATM   10  C1    D T9000      -7.725  -4.538  -5.265  1.00 32.72     0.038 C 
BRANCH   9  11
HETATM   11  C17   D T9000      -5.759  -3.683  -6.679  1.00 34.58     0.029 A 
HETATM   12  C13   D T9000      -4.337  -3.749  -6.357  1.00 34.39     0.057 A 
HETATM   13 CL     D T9000      -3.586  -5.129  -5.615  1.00 35.41    -0.083 Cl
HETATM   14  C3    D T9000      -3.480  -2.647  -6.650  1.00 34.67     0.013 A 
HETATM   15  C2    D T9000      -3.982  -1.468  -7.253  1.00 35.13     0.031 A 
HETATM   16  C12   D T9000      -5.359  -1.360  -7.583  1.00 37.02     0.150 A 
HETATM   17  F     D T9000      -5.793  -0.230  -8.150  1.00 37.34    -0.203 F 
HETATM   18  C18   D T9000      -6.264  -2.450  -7.306  1.00 36.91     0.084 A 
HETATM   19 CL2    D T9000      -7.941  -2.213  -7.755  1.00 49.38    -0.080 Cl
ENDBRANCH   9  11
ENDBRANCH   8   9
ENDBRANCH   1   8
BRANCH   7  20
HETATM   20  C16   D T9000      -6.558 -10.424  -7.729  1.00 32.36     0.041 A 
HETATM   21  C6    D T9000      -5.123 -10.432  -8.027  1.00 35.90     0.122 A 
HETATM   22  N24   D T9000      -4.658 -11.613  -7.847  1.00 36.91    -0.168 NA
HETATM   23  N26   D T9000      -5.598 -12.401  -7.466  1.00 38.66    -0.252 N 
HETATM   24  C7    D T9000      -6.846 -11.739  -7.362  1.00 35.41     0.097 A 
BRANCH  23  25
HETATM   25  C20   D T9000      -5.332 -13.835  -7.183  1.00 43.14     0.110 C 
HETATM   26  C8    D T9000      -5.647 -14.699  -8.424  1.00 45.28     0.063 C 
HETATM   27  C10   D T9000      -5.358 -16.187  -8.108  1.00 46.38     0.292 C 
HETATM   28  N25   D T9000      -6.082 -16.663  -6.896  1.00 47.91     0.339 N 
HETATM   29  C11   D T9000      -5.830 -15.811  -5.696  1.00 46.73     0.292 C 
HETATM   30  C9    D T9000      -6.138 -14.319  -5.955  1.00 45.30     0.063 C 
ENDBRANCH  23  25
ENDBRANCH   7  20
TORSDOF 5
ENDMDL
