MODEL 1
REMARK VINA RESULT:    -8.858      0.000      0.000
REMARK INTER + INTRA:         -12.576
REMARK INTER:                 -11.448
REMARK INTRA:                  -1.129
REMARK UNBOUND:                -1.129
REMARK  5 active torsions:
REMARK  status: ('A' for Active; 'I' for Inactive)
REMARK    1  A    between atoms: C17_7  and  C21_10 
REMARK    2  A    between atoms: C21_10  and  O27_12 
REMARK    3  A    between atoms: O27_12  and  C15_13 
REMARK    4  A    between atoms: C14_19  and  C16_20 
REMARK    5  A    between atoms: N26_23  and  C20_25 
ROOT
HETATM    1  C15   D T9000      -2.983   1.384   9.539  1.00 27.55     0.125 A 
HETATM    2  C4    D T9000      -3.103  -0.031   9.759  1.00 28.27     0.029 A 
HETATM    3  C19   D T9000      -4.219   2.094   9.352  1.00 26.72     0.173 A 
HETATM    4  N22   D T9000      -4.177   3.488   9.136  1.00 25.80    -0.078 NA
HETATM    5  N23   D T9000      -5.450   1.510   9.370  1.00 24.81    -0.228 NA
HETATM    6  C5    D T9000      -5.528   0.158   9.581  1.00 28.27     0.100 A 
HETATM    7  C14   D T9000      -4.381  -0.678   9.783  1.00 30.75     0.024 A 
ENDROOT
BRANCH   1   8
HETATM    8  O27   D T9000      -1.777   2.105   9.521  1.00 29.26    -0.326 OA
BRANCH   8   9
HETATM    9  C21   D T9000      -0.955   2.462  10.691  1.00 32.38     0.145 C 
HETATM   10  C1    D T9000      -0.161   3.711  10.271  1.00 32.72     0.038 C 
BRANCH   9  11
HETATM   11  C17   D T9000       0.013   1.323  11.200  1.00 34.58     0.029 A 
HETATM   12  C13   D T9000       0.369   1.257  12.614  1.00 34.39     0.057 A 
HETATM   13 CL     D T9000      -0.221   2.376  13.804  1.00 35.41    -0.083 Cl
HETATM   14  C3    D T9000       1.246   0.238  13.089  1.00 34.67     0.013 A 
HETATM   15  C2    D T9000       1.790  -0.729  12.209  1.00 35.13     0.031 A 
HETATM   16  C12   D T9000       1.471  -0.703  10.826  1.00 37.02     0.150 A 
HETATM   17  F     D T9000       2.007  -1.634  10.029  1.00 37.34    -0.203 F 
HETATM   18  C18   D T9000       0.588   0.309  10.300  1.00 36.91     0.084 A 
HETATM   19 CL2    D T9000       0.259   0.249   8.579  1.00 49.38    -0.080 Cl
ENDBRANCH   9  11
ENDBRANCH   8   9
ENDBRANCH   1   8
BRANCH   7  20
HETATM   20  C16   D T9000      -4.475  -2.180  10.018  1.00 32.36     0.041 A 
HETATM   21  C6    D T9000      -5.607  -3.054   9.694  1.00 35.90     0.122 A 
HETATM   22  N24   D T9000      -5.327  -4.258  10.031  1.00 36.91    -0.168 NA
HETATM   23  N26   D T9000      -4.147  -4.306  10.540  1.00 38.66    -0.252 N 
HETATM   24  C7    D T9000      -3.524  -3.036  10.576  1.00 35.41     0.097 A 
BRANCH  23  25
HETATM   25  C20   D T9000      -3.569  -5.589  11.016  1.00 43.14     0.110 C 
HETATM   26  C8    D T9000      -2.313  -5.330  11.878  1.00 45.28     0.063 C 
HETATM   27  C10   D T9000      -1.730  -6.679  12.367  1.00 46.38     0.292 C 
HETATM   28  N25   D T9000      -1.453  -7.619  11.242  1.00 47.91     0.339 N 
HETATM   29  C11   D T9000      -2.641  -7.844  10.367  1.00 46.73     0.292 C 
HETATM   30  C9    D T9000      -3.237  -6.523   9.828  1.00 45.30     0.063 C 
ENDBRANCH  23  25
ENDBRANCH   7  20
TORSDOF 5
ENDMDL
MODEL 2
REMARK VINA RESULT:    -8.761      2.615      4.126
REMARK INTER + INTRA:         -12.451
REMARK INTER:                 -11.427
REMARK INTRA:                  -1.024
REMARK UNBOUND:                -1.129
REMARK  5 active torsions:
REMARK  status: ('A' for Active; 'I' for Inactive)
REMARK    1  A    between atoms: C17_7  and  C21_10 
REMARK    2  A    between atoms: C21_10  and  O27_12 
REMARK    3  A    between atoms: O27_12  and  C15_13 
REMARK    4  A    between atoms: C14_19  and  C16_20 
REMARK    5  A    between atoms: N26_23  and  C20_25 
ROOT
HETATM    1  C15   D T9000      -4.697  -2.266  10.097  1.00 27.55     0.125 A 
HETATM    2  C4    D T9000      -3.889  -3.405  10.433  1.00 28.27     0.029 A 
HETATM    3  C19   D T9000      -5.995  -2.559   9.553  1.00 26.72     0.173 A 
HETATM    4  N22   D T9000      -6.845  -1.488   9.205  1.00 25.80    -0.078 NA
HETATM    5  N23   D T9000      -6.474  -3.818   9.346  1.00 24.81    -0.228 NA
HETATM    6  C5    D T9000      -5.676  -4.883   9.676  1.00 28.27     0.100 A 
HETATM    7  C14   D T9000      -4.360  -4.743  10.227  1.00 30.75     0.024 A 
ENDROOT
BRANCH   1   8
HETATM    8  O27   D T9000      -4.328  -0.923  10.283  1.00 29.26    -0.326 OA
BRANCH   8   9
HETATM    9  C21   D T9000      -3.254  -0.427  11.163  1.00 32.38     0.145 C 
HETATM   10  C1    D T9000      -3.633   1.027  11.495  1.00 32.72     0.038 C 
BRANCH   9  11
HETATM   11  C17   D T9000      -1.800  -0.505  10.552  1.00 34.58     0.029 A 
HETATM   12  C13   D T9000      -0.814  -1.401  11.148  1.00 34.39     0.057 A 
HETATM   13 CL     D T9000      -1.147  -2.416  12.518  1.00 35.41    -0.083 Cl
HETATM   14  C3    D T9000       0.505  -1.481  10.612  1.00 34.67     0.013 A 
HETATM   15  C2    D T9000       0.890  -0.698   9.496  1.00 35.13     0.031 A 
HETATM   16  C12   D T9000      -0.037   0.187   8.885  1.00 37.02     0.150 A 
HETATM   17  F     D T9000       0.369   0.909   7.834  1.00 37.34    -0.203 F 
HETATM   18  C18   D T9000      -1.381   0.301   9.393  1.00 36.91     0.084 A 
HETATM   19 CL2    D T9000      -2.444   1.421   8.563  1.00 49.38    -0.080 Cl
ENDBRANCH   9  11
ENDBRANCH   8   9
ENDBRANCH   1   8
BRANCH   7  20
HETATM   20  C16   D T9000      -3.479  -5.931  10.593  1.00 32.36     0.041 A 
HETATM   21  C6    D T9000      -2.317  -6.428   9.850  1.00 35.90     0.122 A 
HETATM   22  N24   D T9000      -1.824  -7.442  10.460  1.00 36.91    -0.168 NA
HETATM   23  N26   D T9000      -2.506  -7.689  11.521  1.00 38.66    -0.252 N 
HETATM   24  C7    D T9000      -3.580  -6.784  11.694  1.00 35.41     0.097 A 
BRANCH  23  25
HETATM   25  C20   D T9000      -2.146  -8.816  12.419  1.00 43.14     0.110 C 
HETATM   26  C8    D T9000      -3.386  -9.297  13.207  1.00 45.28     0.063 C 
HETATM   27  C10   D T9000      -2.990 -10.474  14.133  1.00 46.38     0.292 C 
HETATM   28  N25   D T9000      -1.851 -10.131  15.033  1.00 47.91     0.339 N 
HETATM   29  C11   D T9000      -0.661  -9.617  14.295  1.00 46.73     0.292 C 
HETATM   30  C9    D T9000      -1.003  -8.417  13.382  1.00 45.30     0.063 C 
ENDBRANCH  23  25
ENDBRANCH   7  20
TORSDOF 5
ENDMDL
MODEL 3
REMARK VINA RESULT:    -8.752      4.291      6.806
REMARK INTER + INTRA:         -12.439
REMARK INTER:                 -11.843
REMARK INTRA:                  -0.596
REMARK UNBOUND:                -1.129
REMARK  5 active torsions:
REMARK  status: ('A' for Active; 'I' for Inactive)
REMARK    1  A    between atoms: C17_7  and  C21_10 
REMARK    2  A    between atoms: C21_10  and  O27_12 
REMARK    3  A    between atoms: O27_12  and  C15_13 
REMARK    4  A    between atoms: C14_19  and  C16_20 
REMARK    5  A    between atoms: N26_23  and  C20_25 
ROOT
HETATM    1  C15   D T9000      -1.174   0.016  10.446  1.00 27.55     0.125 A 
HETATM    2  C4    D T9000      -0.313  -1.132  10.367  1.00 28.27     0.029 A 
HETATM    3  C19   D T9000      -0.732   1.179   9.727  1.00 26.72     0.173 A 
HETATM    4  N22   D T9000      -1.531   2.342   9.757  1.00 25.80    -0.078 NA
HETATM    5  N23   D T9000       0.421   1.242   9.004  1.00 24.81    -0.228 NA
HETATM    6  C5    D T9000       1.220   0.130   8.950  1.00 28.27     0.100 A 
HETATM    7  C14   D T9000       0.907  -1.100   9.617  1.00 30.75     0.024 A 
ENDROOT
BRANCH   1   8
HETATM    8  O27   D T9000      -2.396   0.070  11.138  1.00 29.26    -0.326 OA
BRANCH   8   9
HETATM    9  C21   D T9000      -3.737   0.169  10.535  1.00 32.38     0.145 C 
HETATM   10  C1    D T9000      -4.616   0.853  11.597  1.00 32.72     0.038 C 
BRANCH   9  11
HETATM   11  C17   D T9000      -4.368  -1.205  10.079  1.00 34.58     0.029 A 
HETATM   12  C13   D T9000      -5.353  -1.224   9.002  1.00 34.39     0.057 A 
HETATM   13 CL     D T9000      -5.887   0.202   8.166  1.00 35.41    -0.083 Cl
HETATM   14  C3    D T9000      -5.937  -2.455   8.582  1.00 34.67     0.013 A 
HETATM   15  C2    D T9000      -5.579  -3.682   9.193  1.00 35.13     0.031 A 
HETATM   16  C12   D T9000      -4.625  -3.709  10.244  1.00 37.02     0.150 A 
HETATM   17  F     D T9000      -4.317  -4.889  10.795  1.00 37.34    -0.203 F 
HETATM   18  C18   D T9000      -4.009  -2.490  10.702  1.00 36.91     0.084 A 
HETATM   19 CL2    D T9000      -2.843  -2.637  12.004  1.00 49.38    -0.080 Cl
ENDBRANCH   9  11
ENDBRANCH   8   9
ENDBRANCH   1   8
BRANCH   7  20
HETATM   20  C16   D T9000       1.800  -2.334   9.552  1.00 32.36     0.041 A 
HETATM   21  C6    D T9000       1.369  -3.725   9.388  1.00 35.90     0.122 A 
HETATM   22  N24   D T9000       2.397  -4.491   9.374  1.00 36.91    -0.168 NA
HETATM   23  N26   D T9000       3.466  -3.790   9.507  1.00 38.66    -0.252 N 
HETATM   24  C7    D T9000       3.192  -2.406   9.627  1.00 35.41     0.097 A 
BRANCH  23  25
HETATM   25  C20   D T9000       4.806  -4.430   9.521  1.00 43.14     0.110 C 
HETATM   26  C8    D T9000       4.847  -5.576  10.558  1.00 45.28     0.063 C 
HETATM   27  C10   D T9000       6.250  -6.231  10.554  1.00 46.38     0.292 C 
HETATM   28  N25   D T9000       7.342  -5.239  10.771  1.00 47.91     0.339 N 
HETATM   29  C11   D T9000       7.291  -4.098   9.811  1.00 46.73     0.292 C 
HETATM   30  C9    D T9000       5.916  -3.390   9.807  1.00 45.30     0.063 C 
ENDBRANCH  23  25
ENDBRANCH   7  20
TORSDOF 5
ENDMDL
MODEL 4
REMARK VINA RESULT:    -8.745      2.509      4.364
REMARK INTER + INTRA:         -12.429
REMARK INTER:                 -11.522
REMARK INTRA:                  -0.908
REMARK UNBOUND:                -1.129
REMARK  5 active torsions:
REMARK  status: ('A' for Active; 'I' for Inactive)
REMARK    1  A    between atoms: C17_7  and  C21_10 
REMARK    2  A    between atoms: C21_10  and  O27_12 
REMARK    3  A    between atoms: O27_12  and  C15_13 
REMARK    4  A    between atoms: C14_19  and  C16_20 
REMARK    5  A    between atoms: N26_23  and  C20_25 
ROOT
HETATM    1  C15   D T9000      -4.563  -2.336  10.226  1.00 27.55     0.125 A 
HETATM    2  C4    D T9000      -3.698  -3.329  10.800  1.00 28.27     0.029 A 
HETATM    3  C19   D T9000      -5.689  -2.839   9.487  1.00 26.72     0.173 A 
HETATM    4  N22   D T9000      -6.584  -1.920   8.900  1.00 25.80    -0.078 NA
HETATM    5  N23   D T9000      -5.961  -4.162   9.311  1.00 24.81    -0.228 NA
HETATM    6  C5    D T9000      -5.115  -5.084   9.871  1.00 28.27     0.100 A 
HETATM    7  C14   D T9000      -3.954  -4.729  10.633  1.00 30.75     0.024 A 
ENDROOT
BRANCH   1   8
HETATM    8  O27   D T9000      -4.404  -0.945  10.354  1.00 29.26    -0.326 OA
BRANCH   8   9
HETATM    9  C21   D T9000      -3.336  -0.255  11.099  1.00 32.38     0.145 C 
HETATM   10  C1    D T9000      -3.881   1.156  11.386  1.00 32.72     0.038 C 
BRANCH   9  11
HETATM   11  C17   D T9000      -1.943  -0.181  10.358  1.00 34.58     0.029 A 
HETATM   12  C13   D T9000      -1.809   0.633   9.155  1.00 34.39     0.057 A 
HETATM   13 CL     D T9000      -3.113   1.554   8.470  1.00 35.41    -0.083 Cl
HETATM   14  C3    D T9000      -0.560   0.707   8.470  1.00 34.67     0.013 A 
HETATM   15  C2    D T9000       0.573  -0.003   8.936  1.00 35.13     0.031 A 
HETATM   16  C12   D T9000       0.487  -0.808  10.103  1.00 37.02     0.150 A 
HETATM   17  F     D T9000       1.582  -1.463  10.508  1.00 37.34    -0.203 F 
HETATM   18  C18   D T9000      -0.754  -0.913  10.827  1.00 36.91     0.084 A 
HETATM   19 CL2    D T9000      -0.750  -1.931  12.254  1.00 49.38    -0.080 Cl
ENDBRANCH   9  11
ENDBRANCH   8   9
ENDBRANCH   1   8
BRANCH   7  20
HETATM   20  C16   D T9000      -3.017  -5.758  11.254  1.00 32.36     0.041 A 
HETATM   21  C6    D T9000      -1.562  -5.655  11.393  1.00 35.90     0.122 A 
HETATM   22  N24   D T9000      -1.113  -6.709  11.967  1.00 36.91    -0.168 NA
HETATM   23  N26   D T9000      -2.083  -7.510  12.232  1.00 38.66    -0.252 N 
HETATM   24  C7    D T9000      -3.335  -6.995  11.818  1.00 35.41     0.097 A 
BRANCH  23  25
HETATM   25  C20   D T9000      -1.841  -8.813  12.902  1.00 43.14     0.110 C 
HETATM   26  C8    D T9000      -1.030  -9.753  11.981  1.00 45.28     0.063 C 
HETATM   27  C10   D T9000      -0.785 -11.102  12.701  1.00 46.38     0.292 C 
HETATM   28  N25   D T9000      -2.052 -11.734  13.171  1.00 47.91     0.339 N 
HETATM   29  C11   D T9000      -2.874 -10.825  14.021  1.00 46.73     0.292 C 
HETATM   30  C9    D T9000      -3.173  -9.475  13.328  1.00 45.30     0.063 C 
ENDBRANCH  23  25
ENDBRANCH   7  20
TORSDOF 5
ENDMDL
MODEL 5
REMARK VINA RESULT:    -8.684      2.869      4.891
REMARK INTER + INTRA:         -12.351
REMARK INTER:                 -11.662
REMARK INTRA:                  -0.689
REMARK UNBOUND:                -1.129
REMARK  5 active torsions:
REMARK  status: ('A' for Active; 'I' for Inactive)
REMARK    1  A    between atoms: C17_7  and  C21_10 
REMARK    2  A    between atoms: C21_10  and  O27_12 
REMARK    3  A    between atoms: O27_12  and  C15_13 
REMARK    4  A    between atoms: C14_19  and  C16_20 
REMARK    5  A    between atoms: N26_23  and  C20_25 
ROOT
HETATM    1  C15   D T9000      -4.508  -2.607  10.145  1.00 27.55     0.125 A 
HETATM    2  C4    D T9000      -3.595  -3.574  10.689  1.00 28.27     0.029 A 
HETATM    3  C19   D T9000      -5.808  -3.105   9.792  1.00 26.72     0.173 A 
HETATM    4  N22   D T9000      -6.759  -2.208   9.257  1.00 25.80    -0.078 NA
HETATM    5  N23   D T9000      -6.201  -4.401   9.941  1.00 24.81    -0.228 NA
HETATM    6  C5    D T9000      -5.305  -5.299  10.461  1.00 28.27     0.100 A 
HETATM    7  C14   D T9000      -3.973  -4.946  10.857  1.00 30.75     0.024 A 
ENDROOT
BRANCH   1   8
HETATM    8  O27   D T9000      -4.232  -1.241   9.964  1.00 29.26    -0.326 OA
BRANCH   8   9
HETATM    9  C21   D T9000      -3.833  -0.284  11.012  1.00 32.38     0.145 C 
HETATM   10  C1    D T9000      -5.149   0.277  11.580  1.00 32.72     0.038 C 
BRANCH   9  11
HETATM   11  C17   D T9000      -2.885   0.882  10.527  1.00 34.58     0.029 A 
HETATM   12  C13   D T9000      -1.473   0.863  10.893  1.00 34.39     0.057 A 
HETATM   13 CL     D T9000      -0.747  -0.393  11.848  1.00 35.41    -0.083 Cl
HETATM   14  C3    D T9000      -0.604   1.911  10.467  1.00 34.67     0.013 A 
HETATM   15  C2    D T9000      -1.085   2.989   9.685  1.00 35.13     0.031 A 
HETATM   16  C12   D T9000      -2.452   3.048   9.306  1.00 37.02     0.150 A 
HETATM   17  F     D T9000      -2.866   4.084   8.568  1.00 37.34    -0.203 F 
HETATM   18  C18   D T9000      -3.368   2.011   9.713  1.00 36.91     0.084 A 
HETATM   19 CL2    D T9000      -5.032   2.180   9.190  1.00 49.38    -0.080 Cl
ENDBRANCH   9  11
ENDBRANCH   8   9
ENDBRANCH   1   8
BRANCH   7  20
HETATM   20  C16   D T9000      -2.982  -5.949  11.436  1.00 32.36     0.041 A 
HETATM   21  C6    D T9000      -1.552  -5.736  11.676  1.00 35.90     0.122 A 
HETATM   22  N24   D T9000      -1.041  -6.801  12.175  1.00 36.91    -0.168 NA
HETATM   23  N26   D T9000      -1.948  -7.703  12.302  1.00 38.66    -0.252 N 
HETATM   24  C7    D T9000      -3.216  -7.258  11.860  1.00 35.41     0.097 A 
BRANCH  23  25
HETATM   25  C20   D T9000      -1.625  -9.041  12.860  1.00 43.14     0.110 C 
HETATM   26  C8    D T9000      -0.932  -9.920  11.794  1.00 45.28     0.063 C 
HETATM   27  C10   D T9000      -0.601 -11.307  12.398  1.00 46.38     0.292 C 
HETATM   28  N25   D T9000      -1.801 -11.974  12.981  1.00 47.91     0.339 N 
HETATM   29  C11   D T9000      -2.513 -11.122  13.977  1.00 46.73     0.292 C 
HETATM   30  C9    D T9000      -2.895  -9.737  13.405  1.00 45.30     0.063 C 
ENDBRANCH  23  25
ENDBRANCH   7  20
TORSDOF 5
ENDMDL
MODEL 6
REMARK VINA RESULT:    -8.486      1.611      1.928
REMARK INTER + INTRA:         -12.095
REMARK INTER:                 -11.541
REMARK INTRA:                  -0.554
REMARK UNBOUND:                -1.129
REMARK  5 active torsions:
REMARK  status: ('A' for Active; 'I' for Inactive)
REMARK    1  A    between atoms: C17_7  and  C21_10 
REMARK    2  A    between atoms: C21_10  and  O27_12 
REMARK    3  A    between atoms: O27_12  and  C15_13 
REMARK    4  A    between atoms: C14_19  and  C16_20 
REMARK    5  A    between atoms: N26_23  and  C20_25 
ROOT
HETATM    1  C15   D T9000      -3.456   0.358  10.614  1.00 27.55     0.125 A 
HETATM    2  C4    D T9000      -3.401  -1.068  10.783  1.00 28.27     0.029 A 
HETATM    3  C19   D T9000      -4.681   0.875  10.068  1.00 26.72     0.173 A 
HETATM    4  N22   D T9000      -4.808   2.269   9.880  1.00 25.80    -0.078 NA
HETATM    5  N23   D T9000      -5.749   0.107   9.714  1.00 24.81    -0.228 NA
HETATM    6  C5    D T9000      -5.662  -1.250   9.886  1.00 28.27     0.100 A 
HETATM    7  C14   D T9000      -4.504  -1.906  10.420  1.00 30.75     0.024 A 
ENDROOT
BRANCH   1   8
HETATM    8  O27   D T9000      -2.435   1.259  10.961  1.00 29.26    -0.326 OA
BRANCH   8   9
HETATM    9  C21   D T9000      -1.333   1.706  10.090  1.00 32.38     0.145 C 
HETATM   10  C1    D T9000      -1.606   1.065   8.718  1.00 32.72     0.038 C 
BRANCH   9  11
HETATM   11  C17   D T9000       0.116   1.341  10.604  1.00 34.58     0.029 A 
HETATM   12  C13   D T9000       1.019   2.405  11.030  1.00 34.39     0.057 A 
HETATM   13 CL     D T9000       0.593   4.089  11.011  1.00 35.41    -0.083 Cl
HETATM   14  C3    D T9000       2.331   2.094  11.492  1.00 34.67     0.013 A 
HETATM   15  C2    D T9000       2.789   0.755  11.549  1.00 35.13     0.031 A 
HETATM   16  C12   D T9000       1.944  -0.312  11.145  1.00 37.02     0.150 A 
HETATM   17  F     D T9000       2.416  -1.562  11.214  1.00 37.34    -0.203 F 
HETATM   18  C18   D T9000       0.609  -0.045  10.671  1.00 36.91     0.084 A 
HETATM   19 CL2    D T9000      -0.351  -1.434  10.199  1.00 49.38    -0.080 Cl
ENDBRANCH   9  11
ENDBRANCH   8   9
ENDBRANCH   1   8
BRANCH   7  20
HETATM   20  C16   D T9000      -4.414  -3.416  10.610  1.00 32.36     0.041 A 
HETATM   21  C6    D T9000      -5.485  -4.395  10.400  1.00 35.90     0.122 A 
HETATM   22  N24   D T9000      -5.043  -5.571  10.654  1.00 36.91    -0.168 NA
HETATM   23  N26   D T9000      -3.808  -5.507  11.009  1.00 38.66    -0.252 N 
HETATM   24  C7    D T9000      -3.317  -4.179  11.012  1.00 35.41     0.097 A 
BRANCH  23  25
HETATM   25  C20   D T9000      -3.047  -6.732  11.360  1.00 43.14     0.110 C 
HETATM   26  C8    D T9000      -3.880  -7.637  12.296  1.00 45.28     0.063 C 
HETATM   27  C10   D T9000      -3.069  -8.910  12.646  1.00 46.38     0.292 C 
HETATM   28  N25   D T9000      -1.730  -8.591  13.220  1.00 47.91     0.339 N 
HETATM   29  C11   D T9000      -0.929  -7.678  12.355  1.00 46.73     0.292 C 
HETATM   30  C9    D T9000      -1.687  -6.375  12.007  1.00 45.30     0.063 C 
ENDBRANCH  23  25
ENDBRANCH   7  20
TORSDOF 5
ENDMDL
MODEL 7
REMARK VINA RESULT:    -8.441      3.904      8.033
REMARK INTER + INTRA:         -12.037
REMARK INTER:                 -11.161
REMARK INTRA:                  -0.876
REMARK UNBOUND:                -1.129
REMARK  5 active torsions:
REMARK  status: ('A' for Active; 'I' for Inactive)
REMARK    1  A    between atoms: C17_7  and  C21_10 
REMARK    2  A    between atoms: C21_10  and  O27_12 
REMARK    3  A    between atoms: O27_12  and  C15_13 
REMARK    4  A    between atoms: C14_19  and  C16_20 
REMARK    5  A    between atoms: N26_23  and  C20_25 
ROOT
HETATM    1  C15   D T9000      -3.421  -3.973  11.180  1.00 27.55     0.125 A 
HETATM    2  C4    D T9000      -2.813  -2.672  11.183  1.00 28.27     0.029 A 
HETATM    3  C19   D T9000      -4.720  -4.055  10.571  1.00 26.72     0.173 A 
HETATM    4  N22   D T9000      -5.375  -5.305  10.528  1.00 25.80    -0.078 NA
HETATM    5  N23   D T9000      -5.377  -2.996  10.020  1.00 24.81    -0.228 NA
HETATM    6  C5    D T9000      -4.770  -1.768  10.040  1.00 28.27     0.100 A 
HETATM    7  C14   D T9000      -3.476  -1.536  10.614  1.00 30.75     0.024 A 
ENDROOT
BRANCH   1   8
HETATM    8  O27   D T9000      -2.838  -5.144  11.695  1.00 29.26    -0.326 OA
BRANCH   8   9
HETATM    9  C21   D T9000      -1.657  -5.842  11.154  1.00 32.38     0.145 C 
HETATM   10  C1    D T9000      -2.066  -6.314   9.748  1.00 32.72     0.038 C 
BRANCH   9  11
HETATM   11  C17   D T9000      -1.138  -7.051  12.027  1.00 34.58     0.029 A 
HETATM   12  C13   D T9000       0.293  -7.210  12.261  1.00 34.39     0.057 A 
HETATM   13 CL     D T9000       1.494  -6.125  11.630  1.00 35.41    -0.083 Cl
HETATM   14  C3    D T9000       0.779  -8.299  13.043  1.00 34.67     0.013 A 
HETATM   15  C2    D T9000      -0.108  -9.248  13.608  1.00 35.13     0.031 A 
HETATM   16  C12   D T9000      -1.508  -9.133  13.405  1.00 37.02     0.150 A 
HETATM   17  F     D T9000      -2.310 -10.051  13.955  1.00 37.34    -0.203 F 
HETATM   18  C18   D T9000      -2.045  -8.048  12.622  1.00 36.91     0.084 A 
HETATM   19 CL2    D T9000      -3.788  -7.998  12.437  1.00 49.38    -0.080 Cl
ENDBRANCH   9  11
ENDBRANCH   8   9
ENDBRANCH   1   8
BRANCH   7  20
HETATM   20  C16   D T9000      -2.806  -0.168  10.632  1.00 32.36     0.041 A 
HETATM   21  C6    D T9000      -3.469   1.139  10.595  1.00 35.90     0.122 A 
HETATM   22  N24   D T9000      -2.585   2.067  10.629  1.00 36.91    -0.168 NA
HETATM   23  N26   D T9000      -1.410   1.549  10.685  1.00 38.66    -0.252 N 
HETATM   24  C7    D T9000      -1.444   0.134  10.692  1.00 35.41     0.097 A 
BRANCH  23  25
HETATM   25  C20   D T9000      -0.196   2.404  10.736  1.00 43.14     0.110 C 
HETATM   26  C8    D T9000       1.009   1.672  10.105  1.00 45.28     0.063 C 
HETATM   27  C10   D T9000       2.261   2.582  10.165  1.00 46.38     0.292 C 
HETATM   28  N25   D T9000       2.554   3.056  11.549  1.00 47.91     0.339 N 
HETATM   29  C11   D T9000       1.386   3.722  12.195  1.00 46.73     0.292 C 
HETATM   30  C9    D T9000       0.119   2.834  12.188  1.00 45.30     0.063 C 
ENDBRANCH  23  25
ENDBRANCH   7  20
TORSDOF 5
ENDMDL
MODEL 8
REMARK VINA RESULT:    -8.435      4.038      6.698
REMARK INTER + INTRA:         -12.030
REMARK INTER:                 -11.508
REMARK INTRA:                  -0.521
REMARK UNBOUND:                -1.129
REMARK  5 active torsions:
REMARK  status: ('A' for Active; 'I' for Inactive)
REMARK    1  A    between atoms: C17_7  and  C21_10 
REMARK    2  A    between atoms: C21_10  and  O27_12 
REMARK    3  A    between atoms: O27_12  and  C15_13 
REMARK    4  A    between atoms: C14_19  and  C16_20 
REMARK    5  A    between atoms: N26_23  and  C20_25 
ROOT
HETATM    1  C15   D T9000      -1.874   0.079  10.558  1.00 27.55     0.125 A 
HETATM    2  C4    D T9000      -0.599  -0.556  10.372  1.00 28.27     0.029 A 
HETATM    3  C19   D T9000      -1.989   1.414  10.037  1.00 26.72     0.173 A 
HETATM    4  N22   D T9000      -3.215   2.097  10.179  1.00 25.80    -0.078 NA
HETATM    5  N23   D T9000      -0.983   2.079   9.402  1.00 24.81    -0.228 NA
HETATM    6  C5    D T9000       0.221   1.444   9.242  1.00 28.27     0.100 A 
HETATM    7  C14   D T9000       0.481   0.114   9.711  1.00 30.75     0.024 A 
ENDROOT
BRANCH   1   8
HETATM    8  O27   D T9000      -2.993  -0.506  11.174  1.00 29.26    -0.326 OA
BRANCH   8   9
HETATM    9  C21   D T9000      -4.135  -1.137  10.490  1.00 32.38     0.145 C 
HETATM   10  C1    D T9000      -5.390  -0.578  11.183  1.00 32.72     0.038 C 
BRANCH   9  11
HETATM   11  C17   D T9000      -4.137  -2.717  10.509  1.00 34.58     0.029 A 
HETATM   12  C13   D T9000      -5.057  -3.448   9.644  1.00 34.39     0.057 A 
HETATM   13 CL     D T9000      -6.175  -2.674   8.563  1.00 35.41    -0.083 Cl
HETATM   14  C3    D T9000      -5.075  -4.873   9.652  1.00 34.67     0.013 A 
HETATM   15  C2    D T9000      -4.208  -5.612  10.495  1.00 35.13     0.031 A 
HETATM   16  C12   D T9000      -3.297  -4.941  11.353  1.00 37.02     0.150 A 
HETATM   17  F     D T9000      -2.496  -5.677  12.133  1.00 37.34    -0.203 F 
HETATM   18  C18   D T9000      -3.243  -3.501  11.378  1.00 36.91     0.084 A 
HETATM   19 CL2    D T9000      -2.081  -2.776  12.472  1.00 49.38    -0.080 Cl
ENDBRANCH   9  11
ENDBRANCH   8   9
ENDBRANCH   1   8
BRANCH   7  20
HETATM   20  C16   D T9000       1.822  -0.586   9.529  1.00 32.36     0.041 A 
HETATM   21  C6    D T9000       3.039  -0.020   8.939  1.00 35.90     0.122 A 
HETATM   22  N24   D T9000       3.970  -0.901   8.956  1.00 36.91    -0.168 NA
HETATM   23  N26   D T9000       3.534  -1.989   9.484  1.00 38.66    -0.252 N 
HETATM   24  C7    D T9000       2.178  -1.890   9.881  1.00 35.41     0.097 A 
BRANCH  23  25
HETATM   25  C20   D T9000       4.413  -3.177   9.630  1.00 43.14     0.110 C 
HETATM   26  C8    D T9000       3.688  -4.450   9.139  1.00 45.28     0.063 C 
HETATM   27  C10   D T9000       4.623  -5.675   9.296  1.00 46.38     0.292 C 
HETATM   28  N25   D T9000       5.136  -5.824  10.688  1.00 47.91     0.339 N 
HETATM   29  C11   D T9000       5.796  -4.588  11.200  1.00 46.73     0.292 C 
HETATM   30  C9    D T9000       4.884  -3.343  11.094  1.00 45.30     0.063 C 
ENDBRANCH  23  25
ENDBRANCH   7  20
TORSDOF 5
ENDMDL
MODEL 9
REMARK VINA RESULT:    -8.298      4.901      9.389
REMARK INTER + INTRA:         -11.852
REMARK INTER:                 -11.130
REMARK INTRA:                  -0.723
REMARK UNBOUND:                -1.129
REMARK  5 active torsions:
REMARK  status: ('A' for Active; 'I' for Inactive)
REMARK    1  A    between atoms: C17_7  and  C21_10 
REMARK    2  A    between atoms: C21_10  and  O27_12 
REMARK    3  A    between atoms: O27_12  and  C15_13 
REMARK    4  A    between atoms: C14_19  and  C16_20 
REMARK    5  A    between atoms: N26_23  and  C20_25 
ROOT
HETATM    1  C15   D T9000       0.458  -1.600   9.782  1.00 27.55     0.125 A 
HETATM    2  C4    D T9000       0.998  -0.275   9.653  1.00 28.27     0.029 A 
HETATM    3  C19   D T9000       1.395  -2.676   9.606  1.00 26.72     0.173 A 
HETATM    4  N22   D T9000       0.936  -4.005   9.725  1.00 25.80    -0.078 NA
HETATM    5  N23   D T9000       2.718  -2.504   9.331  1.00 24.81    -0.228 NA
HETATM    6  C5    D T9000       3.200  -1.227   9.213  1.00 28.27     0.100 A 
HETATM    7  C14   D T9000       2.384  -0.057   9.362  1.00 30.75     0.024 A 
ENDROOT
BRANCH   1   8
HETATM    8  O27   D T9000      -0.879  -1.908  10.085  1.00 29.26    -0.326 OA
BRANCH   8   9
HETATM    9  C21   D T9000      -1.659  -1.387  11.222  1.00 32.38     0.145 C 
HETATM   10  C1    D T9000      -1.925  -2.600  12.130  1.00 32.72     0.038 C 
BRANCH   9  11
HETATM   11  C17   D T9000      -3.009  -0.667  10.832  1.00 34.58     0.029 A 
HETATM   12  C13   D T9000      -3.095   0.789  10.893  1.00 34.39     0.057 A 
HETATM   13 CL     D T9000      -1.773   1.807  11.374  1.00 35.41    -0.083 Cl
HETATM   14  C3    D T9000      -4.308   1.454  10.548  1.00 34.67     0.013 A 
HETATM   15  C2    D T9000      -5.453   0.726  10.142  1.00 35.13     0.031 A 
HETATM   16  C12   D T9000      -5.415  -0.692  10.069  1.00 37.02     0.150 A 
HETATM   17  F     D T9000      -6.518  -1.341   9.681  1.00 37.34    -0.203 F 
HETATM   18  C18   D T9000      -4.210  -1.407  10.407  1.00 36.91     0.084 A 
HETATM   19 CL2    D T9000      -4.270  -3.155  10.280  1.00 49.38    -0.080 Cl
ENDBRANCH   9  11
ENDBRANCH   8   9
ENDBRANCH   1   8
BRANCH   7  20
HETATM   20  C16   D T9000       2.926   1.361   9.231  1.00 32.36     0.041 A 
HETATM   21  C6    D T9000       2.609   2.508  10.086  1.00 35.90     0.122 A 
HETATM   22  N24   D T9000       3.255   3.537   9.676  1.00 36.91    -0.168 NA
HETATM   23  N26   D T9000       3.968   3.226   8.652  1.00 38.66    -0.252 N 
HETATM   24  C7    D T9000       3.828   1.864   8.291  1.00 35.41     0.097 A 
BRANCH  23  25
HETATM   25  C20   D T9000       4.821   4.237   7.976  1.00 43.14     0.110 C 
HETATM   26  C8    D T9000       6.106   4.494   8.795  1.00 45.28     0.063 C 
HETATM   27  C10   D T9000       6.982   5.547   8.071  1.00 46.38     0.292 C 
HETATM   28  N25   D T9000       6.237   6.807   7.786  1.00 47.91     0.339 N 
HETATM   29  C11   D T9000       4.967   6.575   7.039  1.00 46.73     0.292 C 
HETATM   30  C9    D T9000       4.044   5.554   7.744  1.00 45.30     0.063 C 
ENDBRANCH  23  25
ENDBRANCH   7  20
TORSDOF 5
ENDMDL
