MODEL 1
REMARK VINA RESULT:    -8.276      0.000      0.000
REMARK INTER + INTRA:         -11.560
REMARK INTER:                 -10.695
REMARK INTRA:                  -0.865
REMARK UNBOUND:                -0.865
REMARK  5 active torsions:
REMARK  status: ('A' for Active; 'I' for Inactive)
REMARK    1  A    between atoms: C17_7  and  C21_10 
REMARK    2  A    between atoms: C21_10  and  O27_12 
REMARK    3  A    between atoms: O27_12  and  C15_13 
REMARK    4  A    between atoms: C14_19  and  C16_20 
REMARK    5  A    between atoms: N26_23  and  C20_25 
ROOT
HETATM    1  C15   D T9000      -1.967   1.853  14.337  1.00 27.55     0.125 A 
HETATM    2  C4    D T9000      -1.422   0.672  14.948  1.00 28.27     0.029 A 
HETATM    3  C19   D T9000      -3.401   1.916  14.266  1.00 26.72     0.173 A 
HETATM    4  N22   D T9000      -4.005   3.050  13.684  1.00 25.80    -0.078 NA
HETATM    5  N23   D T9000      -4.236   0.942  14.729  1.00 24.81    -0.228 NA
HETATM    6  C5    D T9000      -3.684  -0.172  15.304  1.00 28.27     0.100 A 
HETATM    7  C14   D T9000      -2.271  -0.372  15.443  1.00 30.75     0.024 A 
ENDROOT
BRANCH   1   8
HETATM    8  O27   D T9000      -1.216   2.934  13.844  1.00 29.26    -0.326 OA
BRANCH   8   9
HETATM    9  C21   D T9000       0.193   2.891  13.411  1.00 32.38     0.145 C 
HETATM   10  C1    D T9000       0.996   3.508  14.570  1.00 32.72     0.038 C 
BRANCH   9  11
HETATM   11  C17   D T9000       0.499   3.638  12.054  1.00 34.58     0.029 A 
HETATM   12  C13   D T9000       1.292   2.972  11.027  1.00 34.39     0.057 A 
HETATM   13 CL     D T9000       1.936   1.368  11.203  1.00 35.41    -0.083 Cl
HETATM   14  C3    D T9000       1.581   3.634   9.797  1.00 34.67     0.013 A 
HETATM   15  C2    D T9000       1.111   4.944   9.542  1.00 35.13     0.031 A 
HETATM   16  C12   D T9000       0.334   5.630  10.514  1.00 37.02     0.150 A 
HETATM   17  F     D T9000      -0.089   6.869  10.234  1.00 37.34    -0.203 F 
HETATM   18  C18   D T9000       0.016   5.001  11.772  1.00 36.91     0.084 A 
HETATM   19 CL2    D T9000      -0.948   5.936  12.898  1.00 49.38    -0.080 Cl
ENDBRANCH   9  11
ENDBRANCH   8   9
ENDBRANCH   1   8
BRANCH   7  20
HETATM   20  C16   D T9000      -1.663  -1.613  16.086  1.00 32.36     0.041 A 
HETATM   21  C6    D T9000      -0.255  -2.020  16.058  1.00 35.90     0.122 A 
HETATM   22  N24   D T9000      -0.116  -3.117  16.708  1.00 36.91    -0.168 NA
HETATM   23  N26   D T9000      -1.254  -3.499  17.168  1.00 38.66    -0.252 N 
HETATM   24  C7    D T9000      -2.301  -2.610  16.826  1.00 35.41     0.097 A 
BRANCH  23  25
HETATM   25  C20   D T9000      -1.378  -4.747  17.965  1.00 43.14     0.110 C 
HETATM   26  C8    D T9000      -2.854  -5.199  18.033  1.00 45.28     0.063 C 
HETATM   27  C10   D T9000      -2.961  -6.503  18.863  1.00 46.38     0.292 C 
HETATM   28  N25   D T9000      -2.354  -6.365  20.218  1.00 47.91     0.339 N 
HETATM   29  C11   D T9000      -0.943  -5.881  20.176  1.00 46.73     0.292 C 
HETATM   30  C9    D T9000      -0.794  -4.561  19.384  1.00 45.30     0.063 C 
ENDBRANCH  23  25
ENDBRANCH   7  20
TORSDOF 5
ENDMDL
MODEL 2
REMARK VINA RESULT:    -8.048      1.033      2.162
REMARK INTER + INTRA:         -11.265
REMARK INTER:                 -10.531
REMARK INTRA:                  -0.734
REMARK UNBOUND:                -0.865
REMARK  5 active torsions:
REMARK  status: ('A' for Active; 'I' for Inactive)
REMARK    1  A    between atoms: C17_7  and  C21_10 
REMARK    2  A    between atoms: C21_10  and  O27_12 
REMARK    3  A    between atoms: O27_12  and  C15_13 
REMARK    4  A    between atoms: C14_19  and  C16_20 
REMARK    5  A    between atoms: N26_23  and  C20_25 
ROOT
HETATM    1  C15   D T9000      -1.945   1.874  14.301  1.00 27.55     0.125 A 
HETATM    2  C4    D T9000      -1.414   0.705  14.947  1.00 28.27     0.029 A 
HETATM    3  C19   D T9000      -3.377   1.938  14.201  1.00 26.72     0.173 A 
HETATM    4  N22   D T9000      -3.966   3.061  13.584  1.00 25.80    -0.078 NA
HETATM    5  N23   D T9000      -4.222   0.976  14.668  1.00 24.81    -0.228 NA
HETATM    6  C5    D T9000      -3.684  -0.127  15.277  1.00 28.27     0.100 A 
HETATM    7  C14   D T9000      -2.275  -0.326  15.448  1.00 30.75     0.024 A 
ENDROOT
BRANCH   1   8
HETATM    8  O27   D T9000      -1.181   2.942  13.799  1.00 29.26    -0.326 OA
BRANCH   8   9
HETATM    9  C21   D T9000       0.251   2.904  13.452  1.00 32.38     0.145 C 
HETATM   10  C1    D T9000       0.977   3.577  14.630  1.00 32.72     0.038 C 
BRANCH   9  11
HETATM   11  C17   D T9000       0.627   3.602  12.087  1.00 34.58     0.029 A 
HETATM   12  C13   D T9000       0.076   4.916  11.773  1.00 34.39     0.057 A 
HETATM   13 CL     D T9000      -0.991   5.786  12.831  1.00 35.41    -0.083 Cl
HETATM   14  C3    D T9000       0.402   5.559  10.542  1.00 34.67     0.013 A 
HETATM   15  C2    D T9000       1.261   4.944   9.600  1.00 35.13     0.031 A 
HETATM   16  C12   D T9000       1.821   3.665   9.864  1.00 37.02     0.150 A 
HETATM   17  F     D T9000       2.627   3.120   8.946  1.00 37.34    -0.203 F 
HETATM   18  C18   D T9000       1.521   2.978  11.095  1.00 36.91     0.084 A 
HETATM   19 CL2    D T9000       2.264   1.407  11.322  1.00 49.38    -0.080 Cl
ENDBRANCH   9  11
ENDBRANCH   8   9
ENDBRANCH   1   8
BRANCH   7  20
HETATM   20  C16   D T9000      -1.682  -1.555  16.128  1.00 32.36     0.041 A 
HETATM   21  C6    D T9000      -0.305  -2.044  16.020  1.00 35.90     0.122 A 
HETATM   22  N24   D T9000      -0.171  -3.100  16.733  1.00 36.91    -0.168 NA
HETATM   23  N26   D T9000      -1.285  -3.385  17.307  1.00 38.66    -0.252 N 
HETATM   24  C7    D T9000      -2.309  -2.461  16.986  1.00 35.41     0.097 A 
BRANCH  23  25
HETATM   25  C20   D T9000      -1.410  -4.566  18.200  1.00 43.14     0.110 C 
HETATM   26  C8    D T9000      -0.314  -5.607  17.874  1.00 45.28     0.063 C 
HETATM   27  C10   D T9000      -0.459  -6.826  18.817  1.00 46.38     0.292 C 
HETATM   28  N25   D T9000      -1.826  -7.420  18.774  1.00 47.91     0.339 N 
HETATM   29  C11   D T9000      -2.902  -6.419  19.038  1.00 46.73     0.292 C 
HETATM   30  C9    D T9000      -2.817  -5.197  18.094  1.00 45.30     0.063 C 
ENDBRANCH  23  25
ENDBRANCH   7  20
TORSDOF 5
ENDMDL
MODEL 3
REMARK VINA RESULT:    -8.000      1.555      2.023
REMARK INTER + INTRA:         -11.203
REMARK INTER:                 -10.347
REMARK INTRA:                  -0.856
REMARK UNBOUND:                -0.865
REMARK  5 active torsions:
REMARK  status: ('A' for Active; 'I' for Inactive)
REMARK    1  A    between atoms: C17_7  and  C21_10 
REMARK    2  A    between atoms: C21_10  and  O27_12 
REMARK    3  A    between atoms: O27_12  and  C15_13 
REMARK    4  A    between atoms: C14_19  and  C16_20 
REMARK    5  A    between atoms: N26_23  and  C20_25 
ROOT
HETATM    1  C15   D T9000      -1.917   1.767  14.394  1.00 27.55     0.125 A 
HETATM    2  C4    D T9000      -1.319   0.603  14.990  1.00 28.27     0.029 A 
HETATM    3  C19   D T9000      -3.352   1.770  14.331  1.00 26.72     0.173 A 
HETATM    4  N22   D T9000      -4.006   2.884  13.764  1.00 25.80    -0.078 NA
HETATM    5  N23   D T9000      -4.143   0.759  14.790  1.00 24.81    -0.228 NA
HETATM    6  C5    D T9000      -3.542  -0.337  15.352  1.00 28.27     0.100 A 
HETATM    7  C14   D T9000      -2.122  -0.479  15.481  1.00 30.75     0.024 A 
ENDROOT
BRANCH   1   8
HETATM    8  O27   D T9000      -1.214   2.881  13.906  1.00 29.26    -0.326 OA
BRANCH   8   9
HETATM    9  C21   D T9000       0.195   2.903  13.472  1.00 32.38     0.145 C 
HETATM   10  C1    D T9000       0.965   3.593  14.612  1.00 32.72     0.038 C 
BRANCH   9  11
HETATM   11  C17   D T9000       0.460   3.628  12.094  1.00 34.58     0.029 A 
HETATM   12  C13   D T9000       1.274   2.970  11.078  1.00 34.39     0.057 A 
HETATM   13 CL     D T9000       1.985   1.400  11.288  1.00 35.41    -0.083 Cl
HETATM   14  C3    D T9000       1.526   3.612   9.829  1.00 34.67     0.013 A 
HETATM   15  C2    D T9000       0.999   4.895   9.546  1.00 35.13     0.031 A 
HETATM   16  C12   D T9000       0.200   5.572  10.507  1.00 37.02     0.150 A 
HETATM   17  F     D T9000      -0.277   6.784  10.199  1.00 37.34    -0.203 F 
HETATM   18  C18   D T9000      -0.082   4.962  11.782  1.00 36.91     0.084 A 
HETATM   19 CL2    D T9000      -1.078   5.882  12.893  1.00 49.38    -0.080 Cl
ENDBRANCH   9  11
ENDBRANCH   8   9
ENDBRANCH   1   8
BRANCH   7  20
HETATM   20  C16   D T9000      -1.459  -1.700  16.108  1.00 32.36     0.041 A 
HETATM   21  C6    D T9000      -2.120  -2.779  16.848  1.00 35.90     0.122 A 
HETATM   22  N24   D T9000      -1.244  -3.636  17.224  1.00 36.91    -0.168 NA
HETATM   23  N26   D T9000      -0.077  -3.269  16.831  1.00 38.66    -0.252 N 
HETATM   24  C7    D T9000      -0.108  -2.050  16.112  1.00 35.41     0.097 A 
BRANCH  23  25
HETATM   25  C20   D T9000       1.127  -4.088  17.132  1.00 43.14     0.110 C 
HETATM   26  C8    D T9000       1.195  -5.313  16.194  1.00 45.28     0.063 C 
HETATM   27  C10   D T9000       2.457  -6.149  16.520  1.00 46.38     0.292 C 
HETATM   28  N25   D T9000       2.525  -6.538  17.958  1.00 47.91     0.339 N 
HETATM   29  C11   D T9000       2.411  -5.372  18.882  1.00 46.73     0.292 C 
HETATM   30  C9    D T9000       1.144  -4.527  18.614  1.00 45.30     0.063 C 
ENDBRANCH  23  25
ENDBRANCH   7  20
TORSDOF 5
ENDMDL
MODEL 4
REMARK VINA RESULT:    -7.987      5.470      8.338
REMARK INTER + INTRA:         -11.186
REMARK INTER:                 -10.724
REMARK INTRA:                  -0.462
REMARK UNBOUND:                -0.865
REMARK  5 active torsions:
REMARK  status: ('A' for Active; 'I' for Inactive)
REMARK    1  A    between atoms: C17_7  and  C21_10 
REMARK    2  A    between atoms: C21_10  and  O27_12 
REMARK    3  A    between atoms: O27_12  and  C15_13 
REMARK    4  A    between atoms: C14_19  and  C16_20 
REMARK    5  A    between atoms: N26_23  and  C20_25 
ROOT
HETATM    1  C15   D T9000       0.291   4.219  11.804  1.00 27.55     0.125 A 
HETATM    2  C4    D T9000       1.182   3.099  11.934  1.00 28.27     0.029 A 
HETATM    3  C19   D T9000       0.539   5.089  10.688  1.00 26.72     0.173 A 
HETATM    4  N22   D T9000      -0.301   6.206  10.496  1.00 25.80    -0.078 NA
HETATM    5  N23   D T9000       1.542   4.910   9.782  1.00 24.81    -0.228 NA
HETATM    6  C5    D T9000       2.375   3.832   9.935  1.00 28.27     0.100 A 
HETATM    7  C14   D T9000       2.249   2.882  11.001  1.00 30.75     0.024 A 
ENDROOT
BRANCH   1   8
HETATM    8  O27   D T9000      -0.791   4.500  12.656  1.00 29.26    -0.326 OA
BRANCH   8   9
HETATM    9  C21   D T9000      -2.220   4.439  12.300  1.00 32.38     0.145 C 
HETATM   10  C1    D T9000      -2.834   5.740  12.847  1.00 32.72     0.038 C 
BRANCH   9  11
HETATM   11  C17   D T9000      -2.994   3.177  12.849  1.00 34.58     0.029 A 
HETATM   12  C13   D T9000      -4.270   2.798  12.253  1.00 34.39     0.057 A 
HETATM   13 CL     D T9000      -5.011   3.664  10.942  1.00 35.41    -0.083 Cl
HETATM   14  C3    D T9000      -4.984   1.663  12.739  1.00 34.67     0.013 A 
HETATM   15  C2    D T9000      -4.479   0.882  13.806  1.00 35.13     0.031 A 
HETATM   16  C12   D T9000      -3.239   1.214  14.416  1.00 37.02     0.150 A 
HETATM   17  F     D T9000      -2.798   0.450  15.422  1.00 37.34    -0.203 F 
HETATM   18  C18   D T9000      -2.482   2.352  13.957  1.00 36.91     0.084 A 
HETATM   19 CL2    D T9000      -0.966   2.672  14.778  1.00 49.38    -0.080 Cl
ENDBRANCH   9  11
ENDBRANCH   8   9
ENDBRANCH   1   8
BRANCH   7  20
HETATM   20  C16   D T9000       3.177   1.684  11.164  1.00 32.36     0.041 A 
HETATM   21  C6    D T9000       3.315   0.830  12.348  1.00 35.90     0.122 A 
HETATM   22  N24   D T9000       4.189  -0.079  12.118  1.00 36.91    -0.168 NA
HETATM   23  N26   D T9000       4.658   0.056  10.929  1.00 38.66    -0.252 N 
HETATM   24  C7    D T9000       4.078   1.149  10.241  1.00 35.41     0.097 A 
BRANCH  23  25
HETATM   25  C20   D T9000       5.692  -0.872  10.402  1.00 43.14     0.110 C 
HETATM   26  C8    D T9000       5.856  -2.087  11.342  1.00 45.28     0.063 C 
HETATM   27  C10   D T9000       6.933  -3.043  10.772  1.00 46.38     0.292 C 
HETATM   28  N25   D T9000       8.229  -2.352  10.516  1.00 47.91     0.339 N 
HETATM   29  C11   D T9000       8.083  -1.146   9.649  1.00 46.73     0.292 C 
HETATM   30  C9    D T9000       7.041  -0.146  10.199  1.00 45.30     0.063 C 
ENDBRANCH  23  25
ENDBRANCH   7  20
TORSDOF 5
ENDMDL
MODEL 5
REMARK VINA RESULT:    -7.385      5.279      9.101
REMARK INTER + INTRA:         -10.409
REMARK INTER:                 -10.178
REMARK INTRA:                  -0.231
REMARK UNBOUND:                -0.865
REMARK  5 active torsions:
REMARK  status: ('A' for Active; 'I' for Inactive)
REMARK    1  A    between atoms: C17_7  and  C21_10 
REMARK    2  A    between atoms: C21_10  and  O27_12 
REMARK    3  A    between atoms: O27_12  and  C15_13 
REMARK    4  A    between atoms: C14_19  and  C16_20 
REMARK    5  A    between atoms: N26_23  and  C20_25 
ROOT
HETATM    1  C15   D T9000       0.392   4.218  11.894  1.00 27.55     0.125 A 
HETATM    2  C4    D T9000       1.414   3.214  11.782  1.00 28.27     0.029 A 
HETATM    3  C19   D T9000       0.366   5.203  10.849  1.00 26.72     0.173 A 
HETATM    4  N22   D T9000      -0.615   6.215  10.892  1.00 25.80    -0.078 NA
HETATM    5  N23   D T9000       1.234   5.231   9.799  1.00 24.81    -0.228 NA
HETATM    6  C5    D T9000       2.199   4.261   9.722  1.00 28.27     0.100 A 
HETATM    7  C14   D T9000       2.345   3.215  10.692  1.00 30.75     0.024 A 
ENDROOT
BRANCH   1   8
HETATM    8  O27   D T9000      -0.574   4.284  12.913  1.00 29.26    -0.326 OA
BRANCH   8   9
HETATM    9  C21   D T9000      -1.969   3.814  12.825  1.00 32.38     0.145 C 
HETATM   10  C1    D T9000      -2.836   5.033  13.188  1.00 32.72     0.038 C 
BRANCH   9  11
HETATM   11  C17   D T9000      -2.319   2.581  13.747  1.00 34.58     0.029 A 
HETATM   12  C13   D T9000      -1.371   2.155  14.771  1.00 34.39     0.057 A 
HETATM   13 CL     D T9000       0.153   2.938  15.053  1.00 35.41    -0.083 Cl
HETATM   14  C3    D T9000      -1.670   1.040  15.610  1.00 34.67     0.013 A 
HETATM   15  C2    D T9000      -2.882   0.323  15.471  1.00 35.13     0.031 A 
HETATM   16  C12   D T9000      -3.834   0.703  14.487  1.00 37.02     0.150 A 
HETATM   17  F     D T9000      -4.966  -0.003  14.388  1.00 37.34    -0.203 F 
HETATM   18  C18   D T9000      -3.576   1.824  13.617  1.00 36.91     0.084 A 
HETATM   19 CL2    D T9000      -4.816   2.208  12.440  1.00 49.38    -0.080 Cl
ENDBRANCH   9  11
ENDBRANCH   8   9
ENDBRANCH   1   8
BRANCH   7  20
HETATM   20  C16   D T9000       3.419   2.137  10.600  1.00 32.36     0.041 A 
HETATM   21  C6    D T9000       3.210   0.687  10.559  1.00 35.90     0.122 A 
HETATM   22  N24   D T9000       4.344   0.095  10.479  1.00 36.91    -0.168 NA
HETATM   23  N26   D T9000       5.291   0.965  10.462  1.00 38.66    -0.252 N 
HETATM   24  C7    D T9000       4.804   2.293  10.535  1.00 35.41     0.097 A 
BRANCH  23  25
HETATM   25  C20   D T9000       6.714   0.549  10.371  1.00 43.14     0.110 C 
HETATM   26  C8    D T9000       7.526   1.576   9.550  1.00 45.28     0.063 C 
HETATM   27  C10   D T9000       9.006   1.127   9.472  1.00 46.38     0.292 C 
HETATM   28  N25   D T9000       9.152  -0.258   8.939  1.00 47.91     0.339 N 
HETATM   29  C11   D T9000       8.336  -1.258   9.688  1.00 46.73     0.292 C 
HETATM   30  C9    D T9000       6.842  -0.866   9.762  1.00 45.30     0.063 C 
ENDBRANCH  23  25
ENDBRANCH   7  20
TORSDOF 5
ENDMDL
MODEL 6
REMARK VINA RESULT:    -7.314      4.653      7.585
REMARK INTER + INTRA:         -10.317
REMARK INTER:                  -9.799
REMARK INTRA:                  -0.518
REMARK UNBOUND:                -0.865
REMARK  5 active torsions:
REMARK  status: ('A' for Active; 'I' for Inactive)
REMARK    1  A    between atoms: C17_7  and  C21_10 
REMARK    2  A    between atoms: C21_10  and  O27_12 
REMARK    3  A    between atoms: O27_12  and  C15_13 
REMARK    4  A    between atoms: C14_19  and  C16_20 
REMARK    5  A    between atoms: N26_23  and  C20_25 
ROOT
HETATM    1  C15   D T9000       3.114   4.714  11.361  1.00 27.55     0.125 A 
HETATM    2  C4    D T9000       1.827   4.412  11.925  1.00 28.27     0.029 A 
HETATM    3  C19   D T9000       3.143   5.790  10.408  1.00 26.72     0.173 A 
HETATM    4  N22   D T9000       4.374   6.144   9.819  1.00 25.80    -0.078 NA
HETATM    5  N23   D T9000       2.048   6.507  10.028  1.00 24.81    -0.228 NA
HETATM    6  C5    D T9000       0.835   6.193  10.583  1.00 28.27     0.100 A 
HETATM    7  C14   D T9000       0.655   5.145  11.545  1.00 30.75     0.024 A 
ENDROOT
BRANCH   1   8
HETATM    8  O27   D T9000       4.317   4.065  11.687  1.00 29.26    -0.326 OA
BRANCH   8   9
HETATM    9  C21   D T9000       4.533   2.608  11.754  1.00 32.38     0.145 C 
HETATM   10  C1    D T9000       4.254   2.087  10.333  1.00 32.72     0.038 C 
BRANCH   9  11
HETATM   11  C17   D T9000       3.645   1.849  12.816  1.00 34.58     0.029 A 
HETATM   12  C13   D T9000       4.066   1.810  14.213  1.00 34.39     0.057 A 
HETATM   13 CL     D T9000       5.515   2.567  14.798  1.00 35.41    -0.083 Cl
HETATM   14  C3    D T9000       3.278   1.125  15.185  1.00 34.67     0.013 A 
HETATM   15  C2    D T9000       2.077   0.469  14.823  1.00 35.13     0.031 A 
HETATM   16  C12   D T9000       1.629   0.482  13.475  1.00 37.02     0.150 A 
HETATM   17  F     D T9000       0.489  -0.152  13.176  1.00 37.34    -0.203 F 
HETATM   18  C18   D T9000       2.391   1.162  12.459  1.00 36.91     0.084 A 
HETATM   19 CL2    D T9000       1.748   1.117  10.829  1.00 49.38    -0.080 Cl
ENDBRANCH   9  11
ENDBRANCH   8   9
ENDBRANCH   1   8
BRANCH   7  20
HETATM   20  C16   D T9000      -0.696   4.801  12.161  1.00 32.36     0.041 A 
HETATM   21  C6    D T9000      -1.850   5.693  12.307  1.00 35.90     0.122 A 
HETATM   22  N24   D T9000      -2.811   5.056  12.868  1.00 36.91    -0.168 NA
HETATM   23  N26   D T9000      -2.449   3.849  13.119  1.00 38.66    -0.252 N 
HETATM   24  C7    D T9000      -1.120   3.588  12.707  1.00 35.41     0.097 A 
BRANCH  23  25
HETATM   25  C20   D T9000      -3.377   2.888  13.769  1.00 43.14     0.110 C 
HETATM   26  C8    D T9000      -2.586   1.745  14.444  1.00 45.28     0.063 C 
HETATM   27  C10   D T9000      -3.571   0.759  15.119  1.00 46.38     0.292 C 
HETATM   28  N25   D T9000      -4.600   0.244  14.171  1.00 47.91     0.339 N 
HETATM   29  C11   D T9000      -5.342   1.334  13.471  1.00 46.73     0.292 C 
HETATM   30  C9    D T9000      -4.397   2.326  12.753  1.00 45.30     0.063 C 
ENDBRANCH  23  25
ENDBRANCH   7  20
TORSDOF 5
ENDMDL
MODEL 7
REMARK VINA RESULT:    -7.261      2.231      3.234
REMARK INTER + INTRA:         -10.248
REMARK INTER:                  -9.452
REMARK INTRA:                  -0.797
REMARK UNBOUND:                -0.865
REMARK  5 active torsions:
REMARK  status: ('A' for Active; 'I' for Inactive)
REMARK    1  A    between atoms: C17_7  and  C21_10 
REMARK    2  A    between atoms: C21_10  and  O27_12 
REMARK    3  A    between atoms: O27_12  and  C15_13 
REMARK    4  A    between atoms: C14_19  and  C16_20 
REMARK    5  A    between atoms: N26_23  and  C20_25 
ROOT
HETATM    1  C15   D T9000      -1.638   1.359  14.354  1.00 27.55     0.125 A 
HETATM    2  C4    D T9000      -1.178   0.166  15.009  1.00 28.27     0.029 A 
HETATM    3  C19   D T9000      -3.048   1.620  14.448  1.00 26.72     0.173 A 
HETATM    4  N22   D T9000      -3.568   2.777  13.832  1.00 25.80    -0.078 NA
HETATM    5  N23   D T9000      -3.936   0.817  15.101  1.00 24.81    -0.228 NA
HETATM    6  C5    D T9000      -3.464  -0.314  15.714  1.00 28.27     0.100 A 
HETATM    7  C14   D T9000      -2.084  -0.702  15.704  1.00 30.75     0.024 A 
ENDROOT
BRANCH   1   8
HETATM    8  O27   D T9000      -0.823   2.276  13.669  1.00 29.26    -0.326 OA
BRANCH   8   9
HETATM    9  C21   D T9000       0.650   2.329  13.704  1.00 32.38     0.145 C 
HETATM   10  C1    D T9000       0.997   3.485  14.659  1.00 32.72     0.038 C 
BRANCH   9  11
HETATM   11  C17   D T9000       1.345   2.531  12.300  1.00 34.58     0.029 A 
HETATM   12  C13   D T9000       0.848   3.558  11.391  1.00 34.39     0.057 A 
HETATM   13 CL     D T9000      -0.490   4.602  11.762  1.00 35.41    -0.083 Cl
HETATM   14  C3    D T9000       1.462   3.752  10.118  1.00 34.67     0.013 A 
HETATM   15  C2    D T9000       2.559   2.959   9.706  1.00 35.13     0.031 A 
HETATM   16  C12   D T9000       3.076   1.948  10.559  1.00 37.02     0.150 A 
HETATM   17  F     D T9000       4.113   1.219  10.130  1.00 37.34    -0.203 F 
HETATM   18  C18   D T9000       2.489   1.717  11.856  1.00 36.91     0.084 A 
HETATM   19 CL2    D T9000       3.204   0.446  12.829  1.00 49.38    -0.080 Cl
ENDBRANCH   9  11
ENDBRANCH   8   9
ENDBRANCH   1   8
BRANCH   7  20
HETATM   20  C16   D T9000      -1.566  -1.961  16.389  1.00 32.36     0.041 A 
HETATM   21  C6    D T9000      -2.367  -3.032  16.986  1.00 35.90     0.122 A 
HETATM   22  N24   D T9000      -1.588  -3.929  17.467  1.00 36.91    -0.168 NA
HETATM   23  N26   D T9000      -0.363  -3.596  17.269  1.00 38.66    -0.252 N 
HETATM   24  C7    D T9000      -0.243  -2.359  16.591  1.00 35.41     0.097 A 
BRANCH  23  25
HETATM   25  C20   D T9000       0.753  -4.464  17.728  1.00 43.14     0.110 C 
HETATM   26  C8    D T9000       2.111  -3.880  17.278  1.00 45.28     0.063 C 
HETATM   27  C10   D T9000       3.259  -4.796  17.770  1.00 46.38     0.292 C 
HETATM   28  N25   D T9000       3.084  -6.211  17.332  1.00 47.91     0.339 N 
HETATM   29  C11   D T9000       1.758  -6.777  17.714  1.00 46.73     0.292 C 
HETATM   30  C9    D T9000       0.579  -5.911  17.214  1.00 45.30     0.063 C 
ENDBRANCH  23  25
ENDBRANCH   7  20
TORSDOF 5
ENDMDL
MODEL 8
REMARK VINA RESULT:    -7.154      5.932     11.491
REMARK INTER + INTRA:         -10.111
REMARK INTER:                  -9.308
REMARK INTRA:                  -0.802
REMARK UNBOUND:                -0.865
REMARK  5 active torsions:
REMARK  status: ('A' for Active; 'I' for Inactive)
REMARK    1  A    between atoms: C17_7  and  C21_10 
REMARK    2  A    between atoms: C21_10  and  O27_12 
REMARK    3  A    between atoms: O27_12  and  C15_13 
REMARK    4  A    between atoms: C14_19  and  C16_20 
REMARK    5  A    between atoms: N26_23  and  C20_25 
ROOT
HETATM    1  C15   D T9000       1.470   3.356  11.747  1.00 27.55     0.125 A 
HETATM    2  C4    D T9000       2.335   4.132  10.900  1.00 28.27     0.029 A 
HETATM    3  C19   D T9000       1.751   1.948  11.805  1.00 26.72     0.173 A 
HETATM    4  N22   D T9000       0.946   1.127  12.621  1.00 25.80    -0.078 NA
HETATM    5  N23   D T9000       2.758   1.338  11.118  1.00 24.81    -0.228 NA
HETATM    6  C5    D T9000       3.563   2.106  10.318  1.00 28.27     0.100 A 
HETATM    7  C14   D T9000       3.402   3.522  10.162  1.00 30.75     0.024 A 
ENDROOT
BRANCH   1   8
HETATM    8  O27   D T9000       0.416   3.870  12.520  1.00 29.26    -0.326 OA
BRANCH   8   9
HETATM    9  C21   D T9000      -0.693   4.712  12.035  1.00 32.38     0.145 C 
HETATM   10  C1    D T9000      -0.645   5.988  12.893  1.00 32.72     0.038 C 
BRANCH   9  11
HETATM   11  C17   D T9000      -2.121   4.041  12.104  1.00 34.58     0.029 A 
HETATM   12  C13   D T9000      -3.112   4.349  11.078  1.00 34.39     0.057 A 
HETATM   13 CL     D T9000      -2.815   5.429   9.751  1.00 35.41    -0.083 Cl
HETATM   14  C3    D T9000      -4.408   3.755  11.126  1.00 34.67     0.013 A 
HETATM   15  C2    D T9000      -4.765   2.860  12.163  1.00 35.13     0.031 A 
HETATM   16  C12   D T9000      -3.831   2.531  13.182  1.00 37.02     0.150 A 
HETATM   17  F     D T9000      -4.210   1.682  14.144  1.00 37.34    -0.203 F 
HETATM   18  C18   D T9000      -2.509   3.106  13.174  1.00 36.91     0.084 A 
HETATM   19 CL2    D T9000      -1.436   2.633  14.476  1.00 49.38    -0.080 Cl
ENDBRANCH   9  11
ENDBRANCH   8   9
ENDBRANCH   1   8
BRANCH   7  20
HETATM   20  C16   D T9000       4.302   4.371   9.272  1.00 32.36     0.041 A 
HETATM   21  C6    D T9000       5.649   4.034   8.804  1.00 35.90     0.122 A 
HETATM   22  N24   D T9000       6.096   4.988   8.073  1.00 36.91    -0.168 NA
HETATM   23  N26   D T9000       5.220   5.925   7.992  1.00 38.66    -0.252 N 
HETATM   24  C7    D T9000       4.043   5.627   8.721  1.00 35.41     0.097 A 
BRANCH  23  25
HETATM   25  C20   D T9000       5.482   7.154   7.199  1.00 43.14     0.110 C 
HETATM   26  C8    D T9000       6.051   6.790   5.810  1.00 45.28     0.063 C 
HETATM   27  C10   D T9000       6.311   8.084   4.999  1.00 46.38     0.292 C 
HETATM   28  N25   D T9000       7.186   9.045   5.729  1.00 47.91     0.339 N 
HETATM   29  C11   D T9000       6.679   9.371   7.094  1.00 46.73     0.292 C 
HETATM   30  C9    D T9000       6.437   8.108   7.952  1.00 45.30     0.063 C 
ENDBRANCH  23  25
ENDBRANCH   7  20
TORSDOF 5
ENDMDL
MODEL 9
REMARK VINA RESULT:    -7.137      5.147      7.660
REMARK INTER + INTRA:         -10.088
REMARK INTER:                  -9.891
REMARK INTRA:                  -0.196
REMARK UNBOUND:                -0.865
REMARK  5 active torsions:
REMARK  status: ('A' for Active; 'I' for Inactive)
REMARK    1  A    between atoms: C17_7  and  C21_10 
REMARK    2  A    between atoms: C21_10  and  O27_12 
REMARK    3  A    between atoms: O27_12  and  C15_13 
REMARK    4  A    between atoms: C14_19  and  C16_20 
REMARK    5  A    between atoms: N26_23  and  C20_25 
ROOT
HETATM    1  C15   D T9000       0.408   3.936  11.959  1.00 27.55     0.125 A 
HETATM    2  C4    D T9000       1.390   2.892  12.069  1.00 28.27     0.029 A 
HETATM    3  C19   D T9000       0.444   4.703  10.744  1.00 26.72     0.173 A 
HETATM    4  N22   D T9000      -0.495   5.740  10.566  1.00 25.80    -0.078 NA
HETATM    5  N23   D T9000       1.334   4.496   9.732  1.00 24.81    -0.228 NA
HETATM    6  C5    D T9000       2.258   3.493   9.869  1.00 28.27     0.100 A 
HETATM    7  C14   D T9000       2.342   2.649  11.025  1.00 30.75     0.024 A 
ENDROOT
BRANCH   1   8
HETATM    8  O27   D T9000      -0.574   4.233  12.920  1.00 29.26    -0.326 OA
BRANCH   8   9
HETATM    9  C21   D T9000      -2.018   3.963  12.803  1.00 32.38     0.145 C 
HETATM   10  C1    D T9000      -2.715   5.254  13.267  1.00 32.72     0.038 C 
BRANCH   9  11
HETATM   11  C17   D T9000      -2.534   2.718  13.626  1.00 34.58     0.029 A 
HETATM   12  C13   D T9000      -1.695   2.149  14.676  1.00 34.39     0.057 A 
HETATM   13 CL     D T9000      -0.128   2.770  15.092  1.00 35.41    -0.083 Cl
HETATM   14  C3    D T9000      -2.145   1.022  15.426  1.00 34.67     0.013 A 
HETATM   15  C2    D T9000      -3.405   0.430  15.174  1.00 35.13     0.031 A 
HETATM   16  C12   D T9000      -4.255   0.951  14.162  1.00 37.02     0.150 A 
HETATM   17  F     D T9000      -5.438   0.360  13.955  1.00 37.34    -0.203 F 
HETATM   18  C18   D T9000      -3.844   2.090  13.379  1.00 36.91     0.084 A 
HETATM   19 CL2    D T9000      -4.968   2.653  12.157  1.00 49.38    -0.080 Cl
ENDBRANCH   9  11
ENDBRANCH   8   9
ENDBRANCH   1   8
BRANCH   7  20
HETATM   20  C16   D T9000       3.371   1.534  11.171  1.00 32.36     0.041 A 
HETATM   21  C6    D T9000       3.671   0.479  10.199  1.00 35.90     0.122 A 
HETATM   22  N24   D T9000       4.595  -0.278  10.663  1.00 36.91    -0.168 NA
HETATM   23  N26   D T9000       4.955   0.135  11.826  1.00 38.66    -0.252 N 
HETATM   24  C7    D T9000       4.235   1.282  12.238  1.00 35.41     0.097 A 
BRANCH  23  25
HETATM   25  C20   D T9000       6.018  -0.563  12.594  1.00 43.14     0.110 C 
HETATM   26  C8    D T9000       6.199  -2.007  12.074  1.00 45.28     0.063 C 
HETATM   27  C10   D T9000       7.315  -2.715  12.883  1.00 46.38     0.292 C 
HETATM   28  N25   D T9000       7.063  -2.675  14.353  1.00 47.91     0.339 N 
HETATM   29  C11   D T9000       6.836  -1.292  14.866  1.00 46.73     0.292 C 
HETATM   30  C9    D T9000       5.706  -0.558  14.108  1.00 45.30     0.063 C 
ENDBRANCH  23  25
ENDBRANCH   7  20
TORSDOF 5
ENDMDL
