MODEL 1
REMARK VINA RESULT:    -9.358      0.000      0.000
REMARK INTER + INTRA:         -13.658
REMARK INTER:                 -12.640
REMARK INTRA:                  -1.018
REMARK UNBOUND:                -1.018
REMARK  6 active torsions:
REMARK  status: ('A' for Active; 'I' for Inactive)
REMARK    1  A    between atoms: C3_3  and  C19_19 
REMARK    2  A    between atoms: C4_4  and  O9_9 
REMARK    3  A    between atoms: O9_9  and  C10_10 
REMARK    4  A    between atoms: C13_13  and  N16_16 
REMARK    5  A    between atoms: C22_22  and  C24_24 
REMARK       I    between atoms: C24_24  and  N26_26 
REMARK    6  A    between atoms: N26_26  and  C27_27 
ROOT
HETATM    1  C1    D T1226      25.330   0.478 -29.596  1.00  8.42     0.055 A 
HETATM    2  C2    D T1226      26.705   0.430 -29.403  1.00  8.23     0.137 A 
HETATM    3  C3    D T1226      27.214  -0.208 -28.301  1.00  9.08     0.073 A 
HETATM    4  C4    D T1226      26.400  -0.885 -27.424  1.00  9.37     0.106 A 
HETATM    5  C5    D T1226      25.012  -0.907 -27.624  1.00  8.83     0.052 A 
HETATM    6  C6    D T1226      24.504  -0.213 -28.721  1.00  8.45     0.135 A 
HETATM    7  O7    D T1226      23.166  -0.212 -28.894  1.00  8.60    -0.190 OA
HETATM    8  O8    D T1226      27.524   1.112 -30.261  1.00  8.68    -0.190 OA
ENDROOT
BRANCH   3   9
HETATM    9  C19   D T1226      28.663  -0.198 -28.095  1.00  9.48     0.131 A 
HETATM   10  O20   D T1226      29.440  -1.281 -28.138  1.00 10.60    -0.211 OA
HETATM   11  N21   D T1226      30.850  -0.878 -27.905  1.00 11.15    -0.121 NA
HETATM   12  C22   D T1226      30.798   0.435 -27.715  1.00 10.03     0.167 A 
HETATM   13  C23   D T1226      29.489   0.898 -27.852  1.00 10.23     0.053 A 
BRANCH  12  14
HETATM   14  C24   D T1226      31.983   1.283 -27.416  1.00 10.68     0.295 C 
HETATM   15  O25   D T1226      32.070   2.381 -27.967  1.00 10.93    -0.264 OA
HETATM   16  N26   D T1226      32.861   0.782 -26.537  1.00 11.03    -0.235 NA
BRANCH  16  17
HETATM   17  C27   D T1226      34.057   1.508 -26.121  1.00 11.67     0.111 C 
HETATM   18  C28   D T1226      35.199   1.108 -27.100  1.00 12.92     0.060 C 
HETATM   19  C29   D T1226      36.523   1.648 -26.505  1.00 12.85     0.252 C 
HETATM   20  N30   D T1226      36.760   1.052 -25.169  1.00 13.15     0.139 N 
HETATM   21  C31   D T1226      35.728   1.508 -24.239  1.00 12.56     0.252 C 
HETATM   22  C33   D T1226      38.095   1.472 -24.621  1.00 13.44     0.285 C 
HETATM   23  C32   D T1226      34.364   0.990 -24.714  1.00 11.99     0.060 C 
ENDBRANCH  16  17
ENDBRANCH  12  14
ENDBRANCH   3   9
BRANCH   4  24
HETATM   24  O9    D T1226      26.974  -1.567 -26.417  1.00 10.58    -0.307 OA
BRANCH  24  25
HETATM   25  C10   D T1226      26.780  -2.900 -26.290  1.00 12.96     0.100 A 
HETATM   26  C11   D T1226      26.185  -3.261 -25.078  1.00 15.50     0.026 A 
HETATM   27  C12   D T1226      25.910  -4.602 -24.877  1.00 17.75     0.026 A 
HETATM   28  C13   D T1226      26.294  -5.517 -25.826  1.00 19.96     0.127 A 
HETATM   29  C14   D T1226      26.885  -5.160 -27.046  1.00 17.19     0.026 A 
HETATM   30  C15   D T1226      27.150  -3.810 -27.288  1.00 14.44     0.026 A 
BRANCH  28  31
HETATM   31  N16   D T1226      25.966  -6.839 -25.525  1.00 25.47    -0.114 N 
HETATM   32  O17   D T1226      24.995  -6.996 -24.800  1.00 30.97    -0.532 OA
HETATM   33  O18   D T1226      26.655  -7.767 -25.939  1.00 31.23    -0.532 OA
ENDBRANCH  28  31
ENDBRANCH  24  25
ENDBRANCH   4  24
TORSDOF 6
ENDMDL
MODEL 2
REMARK VINA RESULT:    -9.187      1.490      1.772
REMARK INTER + INTRA:         -13.426
REMARK INTER:                 -12.328
REMARK INTRA:                  -1.099
REMARK UNBOUND:                -1.018
REMARK  6 active torsions:
REMARK  status: ('A' for Active; 'I' for Inactive)
REMARK    1  A    between atoms: C3_3  and  C19_19 
REMARK    2  A    between atoms: C4_4  and  O9_9 
REMARK    3  A    between atoms: O9_9  and  C10_10 
REMARK    4  A    between atoms: C13_13  and  N16_16 
REMARK    5  A    between atoms: C22_22  and  C24_24 
REMARK       I    between atoms: C24_24  and  N26_26 
REMARK    6  A    between atoms: N26_26  and  C27_27 
ROOT
HETATM    1  C1    D T1226      25.495   0.505 -29.566  1.00  8.42     0.055 A 
HETATM    2  C2    D T1226      26.864   0.405 -29.345  1.00  8.23     0.137 A 
HETATM    3  C3    D T1226      27.326  -0.249 -28.232  1.00  9.08     0.073 A 
HETATM    4  C4    D T1226      26.469  -0.894 -27.370  1.00  9.37     0.106 A 
HETATM    5  C5    D T1226      25.086  -0.864 -27.599  1.00  8.83     0.052 A 
HETATM    6  C6    D T1226      24.627  -0.152 -28.706  1.00  8.45     0.135 A 
HETATM    7  O7    D T1226      23.294  -0.101 -28.906  1.00  8.60    -0.190 OA
HETATM    8  O8    D T1226      27.724   1.054 -30.187  1.00  8.68    -0.190 OA
ENDROOT
BRANCH   3   9
HETATM    9  C19   D T1226      28.770  -0.295 -27.997  1.00  9.48     0.131 A 
HETATM   10  O20   D T1226      29.517  -1.396 -28.088  1.00 10.60    -0.211 OA
HETATM   11  N21   D T1226      30.932  -1.048 -27.804  1.00 11.15    -0.121 NA
HETATM   12  C22   D T1226      30.913   0.253 -27.540  1.00 10.03     0.167 A 
HETATM   13  C23   D T1226      29.621   0.761 -27.675  1.00 10.23     0.053 A 
BRANCH  12  14
HETATM   14  C24   D T1226      32.116   1.047 -27.169  1.00 10.68     0.295 C 
HETATM   15  O25   D T1226      32.353   1.225 -25.974  1.00 10.93    -0.264 OA
HETATM   16  N26   D T1226      32.868   1.488 -28.186  1.00 11.03    -0.235 NA
BRANCH  16  17
HETATM   17  C27   D T1226      34.094   2.254 -27.981  1.00 11.67     0.111 C 
HETATM   18  C28   D T1226      34.274   3.169 -29.226  1.00 12.92     0.060 C 
HETATM   19  C29   D T1226      35.699   3.772 -29.150  1.00 12.85     0.252 C 
HETATM   20  N30   D T1226      36.710   2.688 -29.159  1.00 13.15     0.139 N 
HETATM   21  C31   D T1226      36.584   1.890 -27.940  1.00 12.56     0.252 C 
HETATM   22  C33   D T1226      38.102   3.252 -29.201  1.00 13.44     0.285 C 
HETATM   23  C32   D T1226      35.210   1.208 -27.931  1.00 11.99     0.060 C 
ENDBRANCH  16  17
ENDBRANCH  12  14
ENDBRANCH   3   9
BRANCH   4  24
HETATM   24  O9    D T1226      26.997  -1.595 -26.352  1.00 10.58    -0.307 OA
BRANCH  24  25
HETATM   25  C10   D T1226      26.766  -2.923 -26.238  1.00 12.96     0.100 A 
HETATM   26  C11   D T1226      26.084  -3.270 -25.069  1.00 15.50     0.026 A 
HETATM   27  C12   D T1226      25.767  -4.604 -24.886  1.00 17.75     0.026 A 
HETATM   28  C13   D T1226      26.193  -5.528 -25.808  1.00 19.96     0.127 A 
HETATM   29  C14   D T1226      26.871  -5.186 -26.986  1.00 17.19     0.026 A 
HETATM   30  C15   D T1226      27.182  -3.843 -27.209  1.00 14.44     0.026 A 
BRANCH  28  31
HETATM   31  N16   D T1226      25.817  -6.842 -25.529  1.00 25.47    -0.114 N 
HETATM   32  O17   D T1226      24.870  -6.976 -24.767  1.00 30.97    -0.532 OA
HETATM   33  O18   D T1226      26.443  -7.788 -25.998  1.00 31.23    -0.532 OA
ENDBRANCH  28  31
ENDBRANCH  24  25
ENDBRANCH   4  24
TORSDOF 6
ENDMDL
MODEL 3
REMARK VINA RESULT:    -9.004      2.458      5.136
REMARK INTER + INTRA:         -13.180
REMARK INTER:                 -12.250
REMARK INTRA:                  -0.930
REMARK UNBOUND:                -1.018
REMARK  6 active torsions:
REMARK  status: ('A' for Active; 'I' for Inactive)
REMARK    1  A    between atoms: C3_3  and  C19_19 
REMARK    2  A    between atoms: C4_4  and  O9_9 
REMARK    3  A    between atoms: O9_9  and  C10_10 
REMARK    4  A    between atoms: C13_13  and  N16_16 
REMARK    5  A    between atoms: C22_22  and  C24_24 
REMARK       I    between atoms: C24_24  and  N26_26 
REMARK    6  A    between atoms: N26_26  and  C27_27 
ROOT
HETATM    1  C1    D T1226      26.364  -4.948 -23.901  1.00  8.42     0.055 A 
HETATM    2  C2    D T1226      27.262  -4.127 -24.573  1.00  8.23     0.137 A 
HETATM    3  C3    D T1226      27.146  -3.961 -25.929  1.00  9.08     0.073 A 
HETATM    4  C4    D T1226      26.103  -4.514 -26.633  1.00  9.37     0.106 A 
HETATM    5  C5    D T1226      25.145  -5.298 -25.975  1.00  8.83     0.052 A 
HETATM    6  C6    D T1226      25.304  -5.500 -24.604  1.00  8.45     0.135 A 
HETATM    7  O7    D T1226      24.396  -6.279 -23.979  1.00  8.60    -0.190 OA
HETATM    8  O8    D T1226      28.313  -3.583 -23.886  1.00  8.68    -0.190 OA
ENDROOT
BRANCH   3   9
HETATM    9  C19   D T1226      28.137  -3.132 -26.619  1.00  9.48     0.131 A 
HETATM   10  O20   D T1226      29.068  -3.602 -27.450  1.00 10.60    -0.211 OA
HETATM   11  N21   D T1226      29.871  -2.466 -27.970  1.00 11.15    -0.121 NA
HETATM   12  C22   D T1226      29.360  -1.393 -27.380  1.00 10.03     0.167 A 
HETATM   13  C23   D T1226      28.280  -1.747 -26.571  1.00 10.23     0.053 A 
BRANCH  12  14
HETATM   14  C24   D T1226      29.868  -0.009 -27.580  1.00 10.68     0.295 C 
HETATM   15  O25   D T1226      29.055   0.881 -27.832  1.00 10.93    -0.264 OA
HETATM   16  N26   D T1226      31.189   0.161 -27.440  1.00 11.03    -0.235 NA
BRANCH  16  17
HETATM   17  C27   D T1226      31.832   1.464 -27.577  1.00 11.67     0.111 C 
HETATM   18  C28   D T1226      32.744   1.395 -28.835  1.00 12.92     0.060 C 
HETATM   19  C29   D T1226      33.635   2.663 -28.826  1.00 12.85     0.252 C 
HETATM   20  N30   D T1226      34.459   2.696 -27.596  1.00 13.15     0.139 N 
HETATM   21  C31   D T1226      33.592   2.850 -26.428  1.00 12.56     0.252 C 
HETATM   22  C33   D T1226      35.414   3.857 -27.619  1.00 13.44     0.285 C 
HETATM   23  C32   D T1226      32.686   1.618 -26.315  1.00 11.99     0.060 C 
ENDBRANCH  16  17
ENDBRANCH  12  14
ENDBRANCH   3   9
BRANCH   4  24
HETATM   24  O9    D T1226      25.997  -4.233 -27.943  1.00 10.58    -0.307 OA
BRANCH  24  25
HETATM   25  C10   D T1226      25.056  -3.369 -28.389  1.00 12.96     0.100 A 
HETATM   26  C11   D T1226      25.508  -2.050 -28.474  1.00 15.50     0.026 A 
HETATM   27  C12   D T1226      24.625  -1.103 -28.960  1.00 17.75     0.026 A 
HETATM   28  C13   D T1226      23.339  -1.476 -29.264  1.00 19.96     0.127 A 
HETATM   29  C14   D T1226      22.882  -2.799 -29.187  1.00 17.19     0.026 A 
HETATM   30  C15   D T1226      23.760  -3.781 -28.724  1.00 14.44     0.026 A 
BRANCH  28  31
HETATM   31  N16   D T1226      22.534  -0.445 -29.748  1.00 25.47    -0.114 N 
HETATM   32  O17   D T1226      22.952   0.139 -30.737  1.00 30.97    -0.532 OA
HETATM   33  O18   D T1226      21.495  -0.134 -29.171  1.00 31.23    -0.532 OA
ENDBRANCH  28  31
ENDBRANCH  24  25
ENDBRANCH   4  24
TORSDOF 6
ENDMDL
MODEL 4
REMARK VINA RESULT:    -8.291      1.436      1.820
REMARK INTER + INTRA:         -12.216
REMARK INTER:                 -11.923
REMARK INTRA:                  -0.293
REMARK UNBOUND:                -1.018
REMARK  6 active torsions:
REMARK  status: ('A' for Active; 'I' for Inactive)
REMARK    1  A    between atoms: C3_3  and  C19_19 
REMARK    2  A    between atoms: C4_4  and  O9_9 
REMARK    3  A    between atoms: O9_9  and  C10_10 
REMARK    4  A    between atoms: C13_13  and  N16_16 
REMARK    5  A    between atoms: C22_22  and  C24_24 
REMARK       I    between atoms: C24_24  and  N26_26 
REMARK    6  A    between atoms: N26_26  and  C27_27 
ROOT
HETATM    1  C1    D T1226      26.584   0.431 -28.650  1.00  8.42     0.055 A 
HETATM    2  C2    D T1226      27.971   0.461 -28.554  1.00  8.23     0.137 A 
HETATM    3  C3    D T1226      28.622  -0.506 -27.833  1.00  9.08     0.073 A 
HETATM    4  C4    D T1226      27.944  -1.564 -27.275  1.00  9.37     0.106 A 
HETATM    5  C5    D T1226      26.552  -1.656 -27.405  1.00  8.83     0.052 A 
HETATM    6  C6    D T1226      25.896  -0.639 -28.097  1.00  8.45     0.135 A 
HETATM    7  O7    D T1226      24.553  -0.716 -28.195  1.00  8.60    -0.190 OA
HETATM    8  O8    D T1226      28.654   1.516 -29.093  1.00  8.68    -0.190 OA
ENDROOT
BRANCH   3   9
HETATM    9  C19   D T1226      30.078  -0.421 -27.707  1.00  9.48     0.131 A 
HETATM   10  O20   D T1226      30.945  -1.006 -28.535  1.00 10.60    -0.211 OA
HETATM   11  N21   D T1226      32.327  -0.679 -28.102  1.00 11.15    -0.121 NA
HETATM   12  C22   D T1226      32.172   0.070 -27.017  1.00 10.03     0.167 A 
HETATM   13  C23   D T1226      30.818   0.279 -26.756  1.00 10.23     0.053 A 
BRANCH  12  14
HETATM   14  C24   D T1226      33.298   0.618 -26.214  1.00 10.68     0.295 C 
HETATM   15  O25   D T1226      33.066   1.548 -25.441  1.00 10.93    -0.264 OA
HETATM   16  N26   D T1226      34.487   0.025 -26.382  1.00 11.03    -0.235 NA
BRANCH  16  17
HETATM   17  C27   D T1226      35.679   0.431 -25.643  1.00 11.67     0.111 C 
HETATM   18  C28   D T1226      35.320   0.377 -24.130  1.00 12.92     0.060 C 
HETATM   19  C29   D T1226      36.473   1.068 -23.360  1.00 12.85     0.252 C 
HETATM   20  N30   D T1226      36.610   2.475 -23.806  1.00 13.15     0.139 N 
HETATM   21  C31   D T1226      37.034   2.507 -25.205  1.00 12.56     0.252 C 
HETATM   22  C33   D T1226      37.647   3.197 -22.992  1.00 13.44     0.285 C 
HETATM   23  C32   D T1226      35.936   1.878 -26.072  1.00 11.99     0.060 C 
ENDBRANCH  16  17
ENDBRANCH  12  14
ENDBRANCH   3   9
BRANCH   4  24
HETATM   24  O9    D T1226      28.656  -2.526 -26.663  1.00 10.58    -0.307 OA
BRANCH  24  25
HETATM   25  C10   D T1226      28.163  -3.781 -26.547  1.00 12.96     0.100 A 
HETATM   26  C11   D T1226      27.809  -4.121 -25.239  1.00 15.50     0.026 A 
HETATM   27  C12   D T1226      27.256  -5.371 -25.032  1.00 17.75     0.026 A 
HETATM   28  C13   D T1226      27.148  -6.242 -26.088  1.00 19.96     0.127 A 
HETATM   29  C14   D T1226      27.495  -5.905 -27.403  1.00 17.19     0.026 A 
HETATM   30  C15   D T1226      28.032  -4.639 -27.646  1.00 14.44     0.026 A 
BRANCH  28  31
HETATM   31  N16   D T1226      26.575  -7.473 -25.770  1.00 25.47    -0.114 N 
HETATM   32  O17   D T1226      25.522  -7.428 -25.150  1.00 30.97    -0.532 OA
HETATM   33  O18   D T1226      27.137  -8.524 -26.066  1.00 31.23    -0.532 OA
ENDBRANCH  28  31
ENDBRANCH  24  25
ENDBRANCH   4  24
TORSDOF 6
ENDMDL
MODEL 5
REMARK VINA RESULT:    -7.762      2.500      2.871
REMARK INTER + INTRA:         -11.502
REMARK INTER:                 -10.928
REMARK INTRA:                  -0.574
REMARK UNBOUND:                -1.018
REMARK  6 active torsions:
REMARK  status: ('A' for Active; 'I' for Inactive)
REMARK    1  A    between atoms: C3_3  and  C19_19 
REMARK    2  A    between atoms: C4_4  and  O9_9 
REMARK    3  A    between atoms: O9_9  and  C10_10 
REMARK    4  A    between atoms: C13_13  and  N16_16 
REMARK    5  A    between atoms: C22_22  and  C24_24 
REMARK       I    between atoms: C24_24  and  N26_26 
REMARK    6  A    between atoms: N26_26  and  C27_27 
ROOT
HETATM    1  C1    D T1226      26.653   0.613 -28.187  1.00  8.42     0.055 A 
HETATM    2  C2    D T1226      28.041   0.693 -28.193  1.00  8.23     0.137 A 
HETATM    3  C3    D T1226      28.784  -0.388 -27.793  1.00  9.08     0.073 A 
HETATM    4  C4    D T1226      28.193  -1.587 -27.472  1.00  9.37     0.106 A 
HETATM    5  C5    D T1226      26.798  -1.718 -27.515  1.00  8.83     0.052 A 
HETATM    6  C6    D T1226      26.051  -0.597 -27.874  1.00  8.45     0.135 A 
HETATM    7  O7    D T1226      24.708  -0.719 -27.886  1.00  8.60    -0.190 OA
HETATM    8  O8    D T1226      28.639   1.885 -28.496  1.00  8.68    -0.190 OA
ENDROOT
BRANCH   3   9
HETATM    9  C19   D T1226      30.242  -0.259 -27.760  1.00  9.48     0.131 A 
HETATM   10  O20   D T1226      30.993   0.100 -28.802  1.00 10.60    -0.211 OA
HETATM   11  N21   D T1226      32.417   0.142 -28.383  1.00 11.15    -0.121 NA
HETATM   12  C22   D T1226      32.404  -0.224 -27.107  1.00 10.03     0.167 A 
HETATM   13  C23   D T1226      31.096  -0.449 -26.676  1.00 10.23     0.053 A 
BRANCH  12  14
HETATM   14  C24   D T1226      33.623  -0.353 -26.263  1.00 10.68     0.295 C 
HETATM   15  O25   D T1226      33.727   0.372 -25.274  1.00 10.93    -0.264 OA
HETATM   16  N26   D T1226      34.508  -1.284 -26.643  1.00 11.03    -0.235 NA
BRANCH  16  17
HETATM   17  C27   D T1226      35.737  -1.548 -25.901  1.00 11.67     0.111 C 
HETATM   18  C28   D T1226      36.913  -1.460 -26.915  1.00 12.92     0.060 C 
HETATM   19  C29   D T1226      38.174  -2.010 -26.204  1.00 12.85     0.252 C 
HETATM   20  N30   D T1226      37.954  -3.417 -25.795  1.00 13.15     0.139 N 
HETATM   21  C31   D T1226      36.906  -3.473 -24.777  1.00 12.56     0.252 C 
HETATM   22  C33   D T1226      39.204  -4.007 -25.206  1.00 13.44     0.285 C 
HETATM   23  C32   D T1226      35.588  -2.984 -25.391  1.00 11.99     0.060 C 
ENDBRANCH  16  17
ENDBRANCH  12  14
ENDBRANCH   3   9
BRANCH   4  24
HETATM   24  O9    D T1226      28.987  -2.632 -27.181  1.00 10.58    -0.307 OA
BRANCH  24  25
HETATM   25  C10   D T1226      28.457  -3.852 -26.932  1.00 12.96     0.100 A 
HETATM   26  C11   D T1226      28.091  -4.544 -28.089  1.00 15.50     0.026 A 
HETATM   27  C12   D T1226      27.578  -5.820 -27.934  1.00 17.75     0.026 A 
HETATM   28  C13   D T1226      27.381  -6.316 -26.669  1.00 19.96     0.127 A 
HETATM   29  C14   D T1226      27.752  -5.629 -25.505  1.00 17.19     0.026 A 
HETATM   30  C15   D T1226      28.297  -4.349 -25.633  1.00 14.44     0.026 A 
BRANCH  28  31
HETATM   31  N16   D T1226      26.863  -7.610 -26.627  1.00 25.47    -0.114 N 
HETATM   32  O17   D T1226      26.844  -8.142 -25.526  1.00 30.97    -0.532 OA
HETATM   33  O18   D T1226      26.496  -8.175 -27.654  1.00 31.23    -0.532 OA
ENDBRANCH  28  31
ENDBRANCH  24  25
ENDBRANCH   4  24
TORSDOF 6
ENDMDL
MODEL 6
REMARK VINA RESULT:    -7.688      3.536      9.204
REMARK INTER + INTRA:         -11.402
REMARK INTER:                 -10.093
REMARK INTRA:                  -1.308
REMARK UNBOUND:                -1.018
REMARK  6 active torsions:
REMARK  status: ('A' for Active; 'I' for Inactive)
REMARK    1  A    between atoms: C3_3  and  C19_19 
REMARK    2  A    between atoms: C4_4  and  O9_9 
REMARK    3  A    between atoms: O9_9  and  C10_10 
REMARK    4  A    between atoms: C13_13  and  N16_16 
REMARK    5  A    between atoms: C22_22  and  C24_24 
REMARK       I    between atoms: C24_24  and  N26_26 
REMARK    6  A    between atoms: N26_26  and  C27_27 
ROOT
HETATM    1  C1    D T1226      35.143   3.581 -25.533  1.00  8.42     0.055 A 
HETATM    2  C2    D T1226      34.066   2.920 -26.112  1.00  8.23     0.137 A 
HETATM    3  C3    D T1226      34.271   1.734 -26.768  1.00  9.08     0.073 A 
HETATM    4  C4    D T1226      35.506   1.130 -26.790  1.00  9.37     0.106 A 
HETATM    5  C5    D T1226      36.601   1.741 -26.163  1.00  8.83     0.052 A 
HETATM    6  C6    D T1226      36.389   2.971 -25.543  1.00  8.45     0.135 A 
HETATM    7  O7    D T1226      37.451   3.570 -24.965  1.00  8.60    -0.190 OA
HETATM    8  O8    D T1226      32.836   3.519 -26.109  1.00  8.68    -0.190 OA
ENDROOT
BRANCH   3   9
HETATM    9  C19   D T1226      33.127   1.086 -27.412  1.00  9.48     0.131 A 
HETATM   10  O20   D T1226      32.968   0.971 -28.731  1.00 10.60    -0.211 OA
HETATM   11  N21   D T1226      31.706   0.239 -29.006  1.00 11.15    -0.121 NA
HETATM   12  C22   D T1226      31.192  -0.010 -27.808  1.00 10.03     0.167 A 
HETATM   13  C23   D T1226      32.040   0.461 -26.805  1.00 10.23     0.053 A 
BRANCH  12  14
HETATM   14  C24   D T1226      29.900  -0.712 -27.583  1.00 10.68     0.295 C 
HETATM   15  O25   D T1226      28.872  -0.197 -28.023  1.00 10.93    -0.264 OA
HETATM   16  N26   D T1226      29.967  -1.879 -26.929  1.00 11.03    -0.235 NA
BRANCH  16  17
HETATM   17  C27   D T1226      28.789  -2.697 -26.659  1.00 11.67     0.111 C 
HETATM   18  C28   D T1226      28.361  -2.412 -25.191  1.00 12.92     0.060 C 
HETATM   19  C29   D T1226      27.297  -3.471 -24.810  1.00 12.85     0.252 C 
HETATM   20  N30   D T1226      27.872  -4.832 -24.922  1.00 13.15     0.139 N 
HETATM   21  C31   D T1226      28.187  -5.117 -26.321  1.00 12.56     0.252 C 
HETATM   22  C33   D T1226      26.894  -5.870 -24.447  1.00 13.44     0.285 C 
HETATM   23  C32   D T1226      29.272  -4.143 -26.795  1.00 11.99     0.060 C 
ENDBRANCH  16  17
ENDBRANCH  12  14
ENDBRANCH   3   9
BRANCH   4  24
HETATM   24  O9    D T1226      35.615  -0.078 -27.369  1.00 10.58    -0.307 OA
BRANCH  24  25
HETATM   25  C10   D T1226      36.078  -1.139 -26.669  1.00 12.96     0.100 A 
HETATM   26  C11   D T1226      35.096  -1.767 -25.898  1.00 15.50     0.026 A 
HETATM   27  C12   D T1226      35.469  -2.889 -25.179  1.00 17.75     0.026 A 
HETATM   28  C13   D T1226      36.783  -3.289 -25.192  1.00 19.96     0.127 A 
HETATM   29  C14   D T1226      37.770  -2.668 -25.969  1.00 17.19     0.026 A 
HETATM   30  C15   D T1226      37.416  -1.548 -26.725  1.00 14.44     0.026 A 
BRANCH  28  31
HETATM   31  N16   D T1226      37.049  -4.431 -24.438  1.00 25.47    -0.114 N 
HETATM   32  O17   D T1226      36.074  -5.086 -24.098  1.00 30.97    -0.532 OA
HETATM   33  O18   D T1226      38.199  -4.715 -24.110  1.00 31.23    -0.532 OA
ENDBRANCH  28  31
ENDBRANCH  24  25
ENDBRANCH   4  24
TORSDOF 6
ENDMDL
MODEL 7
REMARK VINA RESULT:    -7.675      3.238      9.892
REMARK INTER + INTRA:         -11.385
REMARK INTER:                 -10.232
REMARK INTRA:                  -1.153
REMARK UNBOUND:                -1.018
REMARK  6 active torsions:
REMARK  status: ('A' for Active; 'I' for Inactive)
REMARK    1  A    between atoms: C3_3  and  C19_19 
REMARK    2  A    between atoms: C4_4  and  O9_9 
REMARK    3  A    between atoms: O9_9  and  C10_10 
REMARK    4  A    between atoms: C13_13  and  N16_16 
REMARK    5  A    between atoms: C22_22  and  C24_24 
REMARK       I    between atoms: C24_24  and  N26_26 
REMARK    6  A    between atoms: N26_26  and  C27_27 
ROOT
HETATM    1  C1    D T1226      35.277   3.803 -28.970  1.00  8.42     0.055 A 
HETATM    2  C2    D T1226      34.317   2.807 -28.841  1.00  8.23     0.137 A 
HETATM    3  C3    D T1226      34.137   2.190 -27.630  1.00  9.08     0.073 A 
HETATM    4  C4    D T1226      34.821   2.597 -26.508  1.00  9.37     0.106 A 
HETATM    5  C5    D T1226      35.753   3.641 -26.592  1.00  8.83     0.052 A 
HETATM    6  C6    D T1226      35.963   4.225 -27.840  1.00  8.45     0.135 A 
HETATM    7  O7    D T1226      36.882   5.209 -27.922  1.00  8.60    -0.190 OA
HETATM    8  O8    D T1226      33.641   2.384 -29.953  1.00  8.68    -0.190 OA
ENDROOT
BRANCH   3   9
HETATM    9  C19   D T1226      33.155   1.109 -27.535  1.00  9.48     0.131 A 
HETATM   10  O20   D T1226      33.462  -0.182 -27.404  1.00 10.60    -0.211 OA
HETATM   11  N21   D T1226      32.208  -0.973 -27.319  1.00 11.15    -0.121 NA
HETATM   12  C22   D T1226      31.235  -0.078 -27.432  1.00 10.03     0.167 A 
HETATM   13  C23   D T1226      31.765   1.209 -27.535  1.00 10.23     0.053 A 
BRANCH  12  14
HETATM   14  C24   D T1226      29.786  -0.414 -27.428  1.00 10.68     0.295 C 
HETATM   15  O25   D T1226      28.990   0.431 -27.836  1.00 10.93    -0.264 OA
HETATM   16  N26   D T1226      29.466  -1.641 -26.997  1.00 11.03    -0.235 NA
BRANCH  16  17
HETATM   17  C27   D T1226      28.090  -2.127 -26.963  1.00 11.67     0.111 C 
HETATM   18  C28   D T1226      27.679  -2.232 -25.466  1.00 12.92     0.060 C 
HETATM   19  C29   D T1226      26.337  -3.004 -25.412  1.00 12.85     0.252 C 
HETATM   20  N30   D T1226      26.506  -4.356 -25.994  1.00 13.15     0.139 N 
HETATM   21  C31   D T1226      26.805  -4.243 -27.421  1.00 12.56     0.252 C 
HETATM   22  C33   D T1226      25.247  -5.165 -25.848  1.00 13.44     0.285 C 
HETATM   23  C32   D T1226      28.148  -3.522 -27.592  1.00 11.99     0.060 C 
ENDBRANCH  16  17
ENDBRANCH  12  14
ENDBRANCH   3   9
BRANCH   4  24
HETATM   24  O9    D T1226      34.527   2.012 -25.335  1.00 10.58    -0.307 OA
BRANCH  24  25
HETATM   25  C10   D T1226      35.495   1.417 -24.600  1.00 12.96     0.100 A 
HETATM   26  C11   D T1226      35.749   0.097 -24.982  1.00 15.50     0.026 A 
HETATM   27  C12   D T1226      36.753  -0.579 -24.312  1.00 17.75     0.026 A 
HETATM   28  C13   D T1226      37.397   0.037 -23.268  1.00 19.96     0.127 A 
HETATM   29  C14   D T1226      37.151   1.362 -22.884  1.00 17.19     0.026 A 
HETATM   30  C15   D T1226      36.160   2.078 -23.560  1.00 14.44     0.026 A 
BRANCH  28  31
HETATM   31  N16   D T1226      38.393  -0.732 -22.665  1.00 25.47    -0.114 N 
HETATM   32  O17   D T1226      38.651  -1.795 -23.211  1.00 30.97    -0.532 OA
HETATM   33  O18   D T1226      38.931  -0.361 -21.625  1.00 31.23    -0.532 OA
ENDBRANCH  28  31
ENDBRANCH  24  25
ENDBRANCH   4  24
TORSDOF 6
ENDMDL
MODEL 8
REMARK VINA RESULT:    -7.159      2.643      9.016
REMARK INTER + INTRA:         -10.688
REMARK INTER:                  -9.919
REMARK INTRA:                  -0.769
REMARK UNBOUND:                -1.018
REMARK  6 active torsions:
REMARK  status: ('A' for Active; 'I' for Inactive)
REMARK    1  A    between atoms: C3_3  and  C19_19 
REMARK    2  A    between atoms: C4_4  and  O9_9 
REMARK    3  A    between atoms: O9_9  and  C10_10 
REMARK    4  A    between atoms: C13_13  and  N16_16 
REMARK    5  A    between atoms: C22_22  and  C24_24 
REMARK       I    between atoms: C24_24  and  N26_26 
REMARK    6  A    between atoms: N26_26  and  C27_27 
ROOT
HETATM    1  C1    D T1226      26.356   0.710 -29.648  1.00  8.42     0.055 A 
HETATM    2  C2    D T1226      26.742  -0.444 -28.977  1.00  8.23     0.137 A 
HETATM    3  C3    D T1226      27.926  -0.464 -28.286  1.00  9.08     0.073 A 
HETATM    4  C4    D T1226      28.702   0.664 -28.160  1.00  9.37     0.106 A 
HETATM    5  C5    D T1226      28.310   1.861 -28.775  1.00  8.83     0.052 A 
HETATM    6  C6    D T1226      27.130   1.854 -29.517  1.00  8.45     0.135 A 
HETATM    7  O7    D T1226      26.771   3.000 -30.131  1.00  8.60    -0.190 OA
HETATM    8  O8    D T1226      25.985  -1.576 -29.107  1.00  8.68    -0.190 OA
ENDROOT
BRANCH   3   9
HETATM    9  C19   D T1226      28.332  -1.709 -27.631  1.00  9.48     0.131 A 
HETATM   10  O20   D T1226      29.543  -2.259 -27.737  1.00 10.60    -0.211 OA
HETATM   11  N21   D T1226      29.587  -3.497 -26.920  1.00 11.15    -0.121 NA
HETATM   12  C22   D T1226      28.370  -3.602 -26.400  1.00 10.03     0.167 A 
HETATM   13  C23   D T1226      27.580  -2.517 -26.782  1.00 10.23     0.053 A 
BRANCH  12  14
HETATM   14  C24   D T1226      27.932  -4.718 -25.519  1.00 10.68     0.295 C 
HETATM   15  O25   D T1226      28.603  -5.750 -25.507  1.00 10.93    -0.264 OA
HETATM   16  N26   D T1226      26.837  -4.493 -24.780  1.00 11.03    -0.235 NA
BRANCH  16  17
HETATM   17  C27   D T1226      26.302  -5.480 -23.848  1.00 11.67     0.111 C 
HETATM   18  C28   D T1226      24.935  -5.955 -24.418  1.00 12.92     0.060 C 
HETATM   19  C29   D T1226      24.237  -6.781 -23.310  1.00 12.85     0.252 C 
HETATM   20  N30   D T1226      24.028  -5.942 -22.107  1.00 13.15     0.139 N 
HETATM   21  C31   D T1226      25.322  -5.577 -21.532  1.00 12.56     0.252 C 
HETATM   22  C33   D T1226      23.250  -6.688 -21.059  1.00 13.44     0.285 C 
HETATM   23  C32   D T1226      26.089  -4.713 -22.540  1.00 11.99     0.060 C 
ENDBRANCH  16  17
ENDBRANCH  12  14
ENDBRANCH   3   9
BRANCH   4  24
HETATM   24  O9    D T1226      29.802   0.599 -27.390  1.00 10.58    -0.307 OA
BRANCH  24  25
HETATM   25  C10   D T1226      30.993   1.046 -27.850  1.00 12.96     0.100 A 
HETATM   26  C11   D T1226      31.592   1.992 -27.013  1.00 15.50     0.026 A 
HETATM   27  C12   D T1226      32.834   2.475 -27.383  1.00 17.75     0.026 A 
HETATM   28  C13   D T1226      33.386   2.070 -28.573  1.00 19.96     0.127 A 
HETATM   29  C14   D T1226      32.794   1.117 -29.413  1.00 17.19     0.026 A 
HETATM   30  C15   D T1226      31.551   0.592 -29.051  1.00 14.44     0.026 A 
BRANCH  28  31
HETATM   31  N16   D T1226      34.641   2.615 -28.847  1.00 25.47    -0.114 N 
HETATM   32  O17   D T1226      35.596   1.872 -28.668  1.00 30.97    -0.532 OA
HETATM   33  O18   D T1226      34.754   3.785 -29.202  1.00 31.23    -0.532 OA
ENDBRANCH  28  31
ENDBRANCH  24  25
ENDBRANCH   4  24
TORSDOF 6
ENDMDL
