MODEL 1
REMARK VINA RESULT:    -9.421      0.000      0.000
REMARK INTER + INTRA:         -13.749
REMARK INTER:                 -12.725
REMARK INTRA:                  -1.024
REMARK UNBOUND:                -1.024
REMARK  6 active torsions:
REMARK  status: ('A' for Active; 'I' for Inactive)
REMARK    1  A    between atoms: C3_3  and  C19_19 
REMARK    2  A    between atoms: C4_4  and  O9_9 
REMARK    3  A    between atoms: O9_9  and  C10_10 
REMARK    4  A    between atoms: C13_13  and  N16_16 
REMARK    5  A    between atoms: C22_22  and  C24_24 
REMARK       I    between atoms: C24_24  and  N26_26 
REMARK    6  A    between atoms: N26_26  and  C27_27 
ROOT
HETATM    1  C1    D T1226      25.531   0.610 -29.743  1.00  8.42     0.055 A 
HETATM    2  C2    D T1226      26.905   0.689 -29.543  1.00  8.23     0.137 A 
HETATM    3  C3    D T1226      27.453   0.171 -28.398  1.00  9.08     0.073 A 
HETATM    4  C4    D T1226      26.690  -0.512 -27.481  1.00  9.37     0.106 A 
HETATM    5  C5    D T1226      25.312  -0.663 -27.684  1.00  8.83     0.052 A 
HETATM    6  C6    D T1226      24.758  -0.087 -28.827  1.00  8.45     0.135 A 
HETATM    7  O7    D T1226      23.426  -0.210 -29.004  1.00  8.60    -0.190 OA
HETATM    8  O8    D T1226      27.671   1.379 -30.440  1.00  8.68    -0.190 OA
ENDROOT
BRANCH   3   9
HETATM    9  C19   D T1226      28.896   0.314 -28.188  1.00  9.48     0.131 A 
HETATM   10  O20   D T1226      29.763  -0.699 -28.175  1.00 10.60    -0.211 OA
HETATM   11  N21   D T1226      31.131  -0.165 -27.959  1.00 11.15    -0.121 NA
HETATM   12  C22   D T1226      30.966   1.147 -27.835  1.00 10.03     0.167 A 
HETATM   13  C23   D T1226      29.623   1.488 -27.999  1.00 10.23     0.053 A 
BRANCH  12  14
HETATM   14  C24   D T1226      32.073   2.107 -27.577  1.00 10.68     0.295 C 
HETATM   15  O25   D T1226      32.080   3.170 -28.198  1.00 10.93    -0.264 OA
HETATM   16  N26   D T1226      32.972   1.737 -26.656  1.00 11.03    -0.235 NA
BRANCH  16  17
HETATM   17  C27   D T1226      34.097   2.585 -26.273  1.00 11.67     0.111 C 
HETATM   18  C28   D T1226      35.271   2.250 -27.238  1.00 12.92     0.060 C 
HETATM   19  C29   D T1226      36.541   2.932 -26.670  1.00 12.85     0.252 C 
HETATM   20  N30   D T1226      36.829   2.413 -25.312  1.00 13.15     0.139 N 
HETATM   21  C31   D T1226      35.759   2.813 -24.397  1.00 12.56     0.252 C 
HETATM   22  C33   D T1226      38.120   2.976 -24.785  1.00 13.44     0.285 C 
HETATM   23  C32   D T1226      34.449   2.154 -24.847  1.00 11.99     0.060 C 
ENDBRANCH  16  17
ENDBRANCH  12  14
ENDBRANCH   3   9
BRANCH   4  24
HETATM   24  O9    D T1226      27.310  -1.077 -26.429  1.00 10.58    -0.307 OA
BRANCH  24  25
HETATM   25  C10   D T1226      27.193  -2.403 -26.193  1.00 12.96     0.100 A 
HETATM   26  C11   D T1226      26.603  -2.699 -24.962  1.00 15.50     0.026 A 
HETATM   27  C12   D T1226      26.404  -4.033 -24.651  1.00 17.75     0.026 A 
HETATM   28  C13   D T1226      26.855  -4.998 -25.517  1.00 19.96     0.127 A 
HETATM   29  C14   D T1226      27.440  -4.708 -26.757  1.00 17.19     0.026 A 
HETATM   30  C15   D T1226      27.630  -3.370 -27.107  1.00 14.44     0.026 A 
BRANCH  28  31
HETATM   31  N16   D T1226      26.602  -6.308 -25.110  1.00 25.47    -0.114 N 
HETATM   32  O17   D T1226      25.652  -6.457 -24.353  1.00 30.97    -0.532 OA
HETATM   33  O18   D T1226      27.329  -7.230 -25.469  1.00 31.23    -0.532 OA
ENDBRANCH  28  31
ENDBRANCH  24  25
ENDBRANCH   4  24
TORSDOF 6
ENDMDL
MODEL 2
REMARK VINA RESULT:    -9.291      1.477      1.737
REMARK INTER + INTRA:         -13.575
REMARK INTER:                 -12.559
REMARK INTRA:                  -1.016
REMARK UNBOUND:                -1.024
REMARK  6 active torsions:
REMARK  status: ('A' for Active; 'I' for Inactive)
REMARK    1  A    between atoms: C3_3  and  C19_19 
REMARK    2  A    between atoms: C4_4  and  O9_9 
REMARK    3  A    between atoms: O9_9  and  C10_10 
REMARK    4  A    between atoms: C13_13  and  N16_16 
REMARK    5  A    between atoms: C22_22  and  C24_24 
REMARK       I    between atoms: C24_24  and  N26_26 
REMARK    6  A    between atoms: N26_26  and  C27_27 
ROOT
HETATM    1  C1    D T1226      25.719   0.830 -29.769  1.00  8.42     0.055 A 
HETATM    2  C2    D T1226      27.088   0.841 -29.523  1.00  8.23     0.137 A 
HETATM    3  C3    D T1226      27.577   0.235 -28.395  1.00  9.08     0.073 A 
HETATM    4  C4    D T1226      26.758  -0.468 -27.543  1.00  9.37     0.106 A 
HETATM    5  C5    D T1226      25.383  -0.550 -27.796  1.00  8.83     0.052 A 
HETATM    6  C6    D T1226      24.890   0.113 -28.919  1.00  8.45     0.135 A 
HETATM    7  O7    D T1226      23.560   0.056 -29.143  1.00  8.60    -0.190 OA
HETATM    8  O8    D T1226      27.909   1.550 -30.354  1.00  8.68    -0.190 OA
ENDROOT
BRANCH   3   9
HETATM    9  C19   D T1226      29.017   0.306 -28.134  1.00  9.48     0.131 A 
HETATM   10  O20   D T1226      29.848  -0.736 -28.184  1.00 10.60    -0.211 OA
HETATM   11  N21   D T1226      31.226  -0.274 -27.885  1.00 11.15    -0.121 NA
HETATM   12  C22   D T1226      31.103   1.028 -27.652  1.00 10.03     0.167 A 
HETATM   13  C23   D T1226      29.778   1.431 -27.823  1.00 10.23     0.053 A 
BRANCH  12  14
HETATM   14  C24   D T1226      32.234   1.920 -27.281  1.00 10.68     0.295 C 
HETATM   15  O25   D T1226      32.410   2.174 -26.090  1.00 10.93    -0.264 OA
HETATM   16  N26   D T1226      32.994   2.361 -28.292  1.00 11.03    -0.235 NA
BRANCH  16  17
HETATM   17  C27   D T1226      34.157   3.219 -28.083  1.00 11.67     0.111 C 
HETATM   18  C28   D T1226      34.318   4.089 -29.363  1.00 12.92     0.060 C 
HETATM   19  C29   D T1226      35.695   4.793 -29.268  1.00 12.85     0.252 C 
HETATM   20  N30   D T1226      36.776   3.781 -29.196  1.00 13.15     0.139 N 
HETATM   21  C31   D T1226      36.663   3.031 -27.945  1.00 12.56     0.252 C 
HETATM   22  C33   D T1226      38.128   4.439 -29.218  1.00 13.44     0.285 C 
HETATM   23  C32   D T1226      35.339   2.256 -27.949  1.00 11.99     0.060 C 
ENDBRANCH  16  17
ENDBRANCH  12  14
ENDBRANCH   3   9
BRANCH   4  24
HETATM   24  O9    D T1226      27.321  -1.118 -26.509  1.00 10.58    -0.307 OA
BRANCH  24  25
HETATM   25  C10   D T1226      27.262  -2.467 -26.429  1.00 12.96     0.100 A 
HETATM   26  C11   D T1226      26.472  -2.927 -25.373  1.00 15.50     0.026 A 
HETATM   27  C12   D T1226      26.319  -4.296 -25.238  1.00 17.75     0.026 A 
HETATM   28  C13   D T1226      26.998  -5.135 -26.088  1.00 19.96     0.127 A 
HETATM   29  C14   D T1226      27.785  -4.678 -27.154  1.00 17.19     0.026 A 
HETATM   30  C15   D T1226      27.937  -3.302 -27.329  1.00 14.44     0.026 A 
BRANCH  28  31
HETATM   31  N16   D T1226      26.772  -6.493 -25.867  1.00 25.47    -0.114 N 
HETATM   32  O17   D T1226      26.146  -6.772 -24.854  1.00 30.97    -0.532 OA
HETATM   33  O18   D T1226      27.222  -7.339 -26.636  1.00 31.23    -0.532 OA
ENDBRANCH  28  31
ENDBRANCH  24  25
ENDBRANCH   4  24
TORSDOF 6
ENDMDL
MODEL 3
REMARK VINA RESULT:    -9.272      2.436      5.150
REMARK INTER + INTRA:         -13.548
REMARK INTER:                 -12.744
REMARK INTRA:                  -0.804
REMARK UNBOUND:                -1.024
REMARK  6 active torsions:
REMARK  status: ('A' for Active; 'I' for Inactive)
REMARK    1  A    between atoms: C3_3  and  C19_19 
REMARK    2  A    between atoms: C4_4  and  O9_9 
REMARK    3  A    between atoms: O9_9  and  C10_10 
REMARK    4  A    between atoms: C13_13  and  N16_16 
REMARK    5  A    between atoms: C22_22  and  C24_24 
REMARK       I    between atoms: C24_24  and  N26_26 
REMARK    6  A    between atoms: N26_26  and  C27_27 
ROOT
HETATM    1  C1    D T1226      26.864  -4.322 -23.565  1.00  8.42     0.055 A 
HETATM    2  C2    D T1226      27.702  -3.495 -24.304  1.00  8.23     0.137 A 
HETATM    3  C3    D T1226      27.606  -3.482 -25.672  1.00  9.08     0.073 A 
HETATM    4  C4    D T1226      26.636  -4.199 -26.331  1.00  9.37     0.106 A 
HETATM    5  C5    D T1226      25.736  -4.994 -25.610  1.00  8.83     0.052 A 
HETATM    6  C6    D T1226      25.876  -5.039 -24.224  1.00  8.45     0.135 A 
HETATM    7  O7    D T1226      25.026  -5.829 -23.536  1.00  8.60    -0.190 OA
HETATM    8  O8    D T1226      28.681  -2.790 -23.660  1.00  8.68    -0.190 OA
ENDROOT
BRANCH   3   9
HETATM    9  C19   D T1226      28.536  -2.640 -26.429  1.00  9.48     0.131 A 
HETATM   10  O20   D T1226      29.503  -3.104 -27.221  1.00 10.60    -0.211 OA
HETATM   11  N21   D T1226      30.221  -1.958 -27.834  1.00 11.15    -0.121 NA
HETATM   12  C22   D T1226      29.629  -0.881 -27.330  1.00 10.03     0.167 A 
HETATM   13  C23   D T1226      28.576  -1.248 -26.493  1.00 10.23     0.053 A 
BRANCH  12  14
HETATM   14  C24   D T1226      30.033   0.517 -27.642  1.00 10.68     0.295 C 
HETATM   15  O25   D T1226      29.186   1.280 -28.107  1.00 10.93    -0.264 OA
HETATM   16  N26   D T1226      31.303   0.840 -27.363  1.00 11.03    -0.235 NA
BRANCH  16  17
HETATM   17  C27   D T1226      31.838   2.180 -27.586  1.00 11.67     0.111 C 
HETATM   18  C28   D T1226      32.726   2.111 -28.862  1.00 12.92     0.060 C 
HETATM   19  C29   D T1226      33.513   3.443 -28.945  1.00 12.85     0.252 C 
HETATM   20  N30   D T1226      34.359   3.607 -27.740  1.00 13.15     0.139 N 
HETATM   21  C31   D T1226      33.508   3.760 -26.560  1.00 12.56     0.252 C 
HETATM   22  C33   D T1226      35.218   4.836 -27.851  1.00 13.44     0.285 C 
HETATM   23  C32   D T1226      32.704   2.469 -26.357  1.00 11.99     0.060 C 
ENDBRANCH  16  17
ENDBRANCH  12  14
ENDBRANCH   3   9
BRANCH   4  24
HETATM   24  O9    D T1226      26.540  -4.064 -27.666  1.00 10.58    -0.307 OA
BRANCH  24  25
HETATM   25  C10   D T1226      25.588  -3.272 -28.211  1.00 12.96     0.100 A 
HETATM   26  C11   D T1226      26.042  -1.987 -28.514  1.00 15.50     0.026 A 
HETATM   27  C12   D T1226      25.148  -1.118 -29.115  1.00 17.75     0.026 A 
HETATM   28  C13   D T1226      23.851  -1.522 -29.317  1.00 19.96     0.127 A 
HETATM   29  C14   D T1226      23.392  -2.813 -29.021  1.00 17.19     0.026 A 
HETATM   30  C15   D T1226      24.280  -3.719 -28.437  1.00 14.44     0.026 A 
BRANCH  28  31
HETATM   31  N16   D T1226      23.035  -0.572 -29.930  1.00 25.47    -0.114 N 
HETATM   32  O17   D T1226      23.432  -0.142 -31.004  1.00 30.97    -0.532 OA
HETATM   33  O18   D T1226      22.009  -0.177 -29.383  1.00 31.23    -0.532 OA
ENDBRANCH  28  31
ENDBRANCH  24  25
ENDBRANCH   4  24
TORSDOF 6
ENDMDL
MODEL 4
REMARK VINA RESULT:    -8.890      1.310      1.728
REMARK INTER + INTRA:         -13.032
REMARK INTER:                 -12.336
REMARK INTRA:                  -0.696
REMARK UNBOUND:                -1.024
REMARK  6 active torsions:
REMARK  status: ('A' for Active; 'I' for Inactive)
REMARK    1  A    between atoms: C3_3  and  C19_19 
REMARK    2  A    between atoms: C4_4  and  O9_9 
REMARK    3  A    between atoms: O9_9  and  C10_10 
REMARK    4  A    between atoms: C13_13  and  N16_16 
REMARK    5  A    between atoms: C22_22  and  C24_24 
REMARK       I    between atoms: C24_24  and  N26_26 
REMARK    6  A    between atoms: N26_26  and  C27_27 
ROOT
HETATM    1  C1    D T1226      25.180  -0.033 -30.193  1.00  8.42     0.055 A 
HETATM    2  C2    D T1226      26.374   0.568 -29.805  1.00  8.23     0.137 A 
HETATM    3  C3    D T1226      27.043   0.096 -28.705  1.00  9.08     0.073 A 
HETATM    4  C4    D T1226      26.613  -1.019 -28.026  1.00  9.37     0.106 A 
HETATM    5  C5    D T1226      25.447  -1.684 -28.429  1.00  8.83     0.052 A 
HETATM    6  C6    D T1226      24.748  -1.164 -29.518  1.00  8.45     0.135 A 
HETATM    7  O7    D T1226      23.610  -1.790 -29.885  1.00  8.60    -0.190 OA
HETATM    8  O8    D T1226      26.803   1.686 -30.464  1.00  8.68    -0.190 OA
ENDROOT
BRANCH   3   9
HETATM    9  C19   D T1226      28.270   0.779 -28.289  1.00  9.48     0.131 A 
HETATM   10  O20   D T1226      28.318   2.020 -27.802  1.00 10.60    -0.211 OA
HETATM   11  N21   D T1226      29.725   2.358 -27.471  1.00 11.15    -0.121 NA
HETATM   12  C22   D T1226      30.421   1.281 -27.816  1.00 10.03     0.167 A 
HETATM   13  C23   D T1226      29.572   0.281 -28.290  1.00 10.23     0.053 A 
BRANCH  12  14
HETATM   14  C24   D T1226      31.899   1.167 -27.688  1.00 10.68     0.295 C 
HETATM   15  O25   D T1226      32.511   0.530 -28.546  1.00 10.93    -0.264 OA
HETATM   16  N26   D T1226      32.452   1.800 -26.646  1.00 11.03    -0.235 NA
BRANCH  16  17
HETATM   17  C27   D T1226      33.892   1.804 -26.405  1.00 11.67     0.111 C 
HETATM   18  C28   D T1226      34.255   0.426 -25.781  1.00 12.92     0.060 C 
HETATM   19  C29   D T1226      35.714   0.524 -25.268  1.00 12.85     0.252 C 
HETATM   20  N30   D T1226      35.820   1.593 -24.248  1.00 13.15     0.139 N 
HETATM   21  C31   D T1226      35.564   2.892 -24.869  1.00 12.56     0.252 C 
HETATM   22  C33   D T1226      37.201   1.631 -23.653  1.00 13.44     0.285 C 
HETATM   23  C32   D T1226      34.118   2.920 -25.382  1.00 11.99     0.060 C 
ENDBRANCH  16  17
ENDBRANCH  12  14
ENDBRANCH   3   9
BRANCH   4  24
HETATM   24  O9    D T1226      27.370  -1.482 -27.016  1.00 10.58    -0.307 OA
BRANCH  24  25
HETATM   25  C10   D T1226      27.205  -2.743 -26.554  1.00 12.96     0.100 A 
HETATM   26  C11   D T1226      27.915  -3.699 -27.283  1.00 15.50     0.026 A 
HETATM   27  C12   D T1226      27.841  -5.014 -26.857  1.00 17.75     0.026 A 
HETATM   28  C13   D T1226      27.026  -5.332 -25.798  1.00 19.96     0.127 A 
HETATM   29  C14   D T1226      26.317  -4.375 -25.058  1.00 17.19     0.026 A 
HETATM   30  C15   D T1226      26.394  -3.038 -25.450  1.00 14.44     0.026 A 
BRANCH  28  31
HETATM   31  N16   D T1226      27.026  -6.682 -25.450  1.00 25.47    -0.114 N 
HETATM   32  O17   D T1226      28.012  -7.321 -25.790  1.00 30.97    -0.532 OA
HETATM   33  O18   D T1226      26.063  -7.183 -24.875  1.00 31.23    -0.532 OA
ENDBRANCH  28  31
ENDBRANCH  24  25
ENDBRANCH   4  24
TORSDOF 6
ENDMDL
MODEL 5
REMARK VINA RESULT:    -8.826      2.104      4.931
REMARK INTER + INTRA:         -12.946
REMARK INTER:                 -11.959
REMARK INTRA:                  -0.988
REMARK UNBOUND:                -1.024
REMARK  6 active torsions:
REMARK  status: ('A' for Active; 'I' for Inactive)
REMARK    1  A    between atoms: C3_3  and  C19_19 
REMARK    2  A    between atoms: C4_4  and  O9_9 
REMARK    3  A    between atoms: O9_9  and  C10_10 
REMARK    4  A    between atoms: C13_13  and  N16_16 
REMARK    5  A    between atoms: C22_22  and  C24_24 
REMARK       I    between atoms: C24_24  and  N26_26 
REMARK    6  A    between atoms: N26_26  and  C27_27 
ROOT
HETATM    1  C1    D T1226      27.907  -5.048 -24.066  1.00  8.42     0.055 A 
HETATM    2  C2    D T1226      28.706  -4.381 -24.989  1.00  8.23     0.137 A 
HETATM    3  C3    D T1226      28.358  -3.120 -25.399  1.00  9.08     0.073 A 
HETATM    4  C4    D T1226      27.286  -2.456 -24.852  1.00  9.37     0.106 A 
HETATM    5  C5    D T1226      26.497  -3.077 -23.875  1.00  8.83     0.052 A 
HETATM    6  C6    D T1226      26.831  -4.379 -23.503  1.00  8.45     0.135 A 
HETATM    7  O7    D T1226      26.051  -4.985 -22.583  1.00  8.60    -0.190 OA
HETATM    8  O8    D T1226      29.766  -5.037 -25.552  1.00  8.68    -0.190 OA
ENDROOT
BRANCH   3   9
HETATM    9  C19   D T1226      29.189  -2.461 -26.410  1.00  9.48     0.131 A 
HETATM   10  O20   D T1226      29.203  -2.781 -27.705  1.00 10.60    -0.211 OA
HETATM   11  N21   D T1226      30.146  -1.884 -28.417  1.00 11.15    -0.121 NA
HETATM   12  C22   D T1226      30.647  -1.099 -27.470  1.00 10.03     0.167 A 
HETATM   13  C23   D T1226      30.069  -1.394 -26.235  1.00 10.23     0.053 A 
BRANCH  12  14
HETATM   14  C24   D T1226      31.668  -0.045 -27.713  1.00 10.68     0.295 C 
HETATM   15  O25   D T1226      31.739   0.451 -28.837  1.00 10.93    -0.264 OA
HETATM   16  N26   D T1226      32.421   0.302 -26.660  1.00 11.03    -0.235 NA
BRANCH  16  17
HETATM   17  C27   D T1226      33.443   1.341 -26.736  1.00 11.67     0.111 C 
HETATM   18  C28   D T1226      34.784   0.698 -26.276  1.00 12.92     0.060 C 
HETATM   19  C29   D T1226      35.803   1.849 -26.086  1.00 12.85     0.252 C 
HETATM   20  N30   D T1226      35.310   2.796 -25.058  1.00 13.15     0.139 N 
HETATM   21  C31   D T1226      34.099   3.458 -25.543  1.00 12.56     0.252 C 
HETATM   22  C33   D T1226      36.334   3.860 -24.774  1.00 13.44     0.285 C 
HETATM   23  C32   D T1226      32.999   2.406 -25.729  1.00 11.99     0.060 C 
ENDBRANCH  16  17
ENDBRANCH  12  14
ENDBRANCH   3   9
BRANCH   4  24
HETATM   24  O9    D T1226      27.060  -1.186 -25.232  1.00 10.58    -0.307 OA
BRANCH  24  25
HETATM   25  C10   D T1226      26.449  -0.919 -26.409  1.00 12.96     0.100 A 
HETATM   26  C11   D T1226      26.667   0.383 -26.865  1.00 15.50     0.026 A 
HETATM   27  C12   D T1226      26.115   0.735 -28.084  1.00 17.75     0.026 A 
HETATM   28  C13   D T1226      25.325  -0.170 -28.750  1.00 19.96     0.127 A 
HETATM   29  C14   D T1226      25.108  -1.480 -28.301  1.00 17.19     0.026 A 
HETATM   30  C15   D T1226      25.675  -1.870 -27.086  1.00 14.44     0.026 A 
BRANCH  28  31
HETATM   31  N16   D T1226      24.821   0.285 -29.968  1.00 25.47    -0.114 N 
HETATM   32  O17   D T1226      25.196   1.395 -30.320  1.00 30.97    -0.532 OA
HETATM   33  O18   D T1226      24.017  -0.390 -30.608  1.00 31.23    -0.532 OA
ENDBRANCH  28  31
ENDBRANCH  24  25
ENDBRANCH   4  24
TORSDOF 6
ENDMDL
MODEL 6
REMARK VINA RESULT:    -8.133      1.986      2.534
REMARK INTER + INTRA:         -12.011
REMARK INTER:                 -10.917
REMARK INTRA:                  -1.094
REMARK UNBOUND:                -1.024
REMARK  6 active torsions:
REMARK  status: ('A' for Active; 'I' for Inactive)
REMARK    1  A    between atoms: C3_3  and  C19_19 
REMARK    2  A    between atoms: C4_4  and  O9_9 
REMARK    3  A    between atoms: O9_9  and  C10_10 
REMARK    4  A    between atoms: C13_13  and  N16_16 
REMARK    5  A    between atoms: C22_22  and  C24_24 
REMARK       I    between atoms: C24_24  and  N26_26 
REMARK    6  A    between atoms: N26_26  and  C27_27 
ROOT
HETATM    1  C1    D T1226      24.886   0.127 -30.332  1.00  8.42     0.055 A 
HETATM    2  C2    D T1226      26.037   0.741 -29.850  1.00  8.23     0.137 A 
HETATM    3  C3    D T1226      26.872   0.050 -29.010  1.00  9.08     0.073 A 
HETATM    4  C4    D T1226      26.650  -1.272 -28.703  1.00  9.37     0.106 A 
HETATM    5  C5    D T1226      25.532  -1.937 -29.223  1.00  8.83     0.052 A 
HETATM    6  C6    D T1226      24.663  -1.209 -30.034  1.00  8.45     0.135 A 
HETATM    7  O7    D T1226      23.571  -1.845 -30.509  1.00  8.60    -0.190 OA
HETATM    8  O8    D T1226      26.260   2.059 -30.136  1.00  8.68    -0.190 OA
ENDROOT
BRANCH   3   9
HETATM    9  C19   D T1226      28.050   0.737 -28.476  1.00  9.48     0.131 A 
HETATM   10  O20   D T1226      28.011   1.707 -27.562  1.00 10.60    -0.211 OA
HETATM   11  N21   D T1226      29.397   2.140 -27.254  1.00 11.15    -0.121 NA
HETATM   12  C22   D T1226      30.167   1.397 -28.042  1.00 10.03     0.167 A 
HETATM   13  C23   D T1226      29.390   0.506 -28.782  1.00 10.23     0.053 A 
BRANCH  12  14
HETATM   14  C24   D T1226      31.650   1.501 -28.099  1.00 10.68     0.295 C 
HETATM   15  O25   D T1226      32.301   0.471 -28.268  1.00 10.93    -0.264 OA
HETATM   16  N26   D T1226      32.160   2.735 -27.984  1.00 11.03    -0.235 NA
BRANCH  16  17
HETATM   17  C27   D T1226      33.594   3.000 -28.051  1.00 11.67     0.111 C 
HETATM   18  C28   D T1226      33.932   3.979 -26.890  1.00 12.92     0.060 C 
HETATM   19  C29   D T1226      35.380   4.480 -27.120  1.00 12.85     0.252 C 
HETATM   20  N30   D T1226      35.471   5.179 -28.424  1.00 13.15     0.139 N 
HETATM   21  C31   D T1226      35.239   4.226 -29.509  1.00 12.56     0.252 C 
HETATM   22  C33   D T1226      36.839   5.774 -28.618  1.00 13.44     0.285 C 
HETATM   23  C32   D T1226      33.805   3.691 -29.400  1.00 11.99     0.060 C 
ENDBRANCH  16  17
ENDBRANCH  12  14
ENDBRANCH   3   9
BRANCH   4  24
HETATM   24  O9    D T1226      27.561  -1.914 -27.951  1.00 10.58    -0.307 OA
BRANCH  24  25
HETATM   25  C10   D T1226      27.196  -2.530 -26.804  1.00 12.96     0.100 A 
HETATM   26  C11   D T1226      27.297  -3.922 -26.864  1.00 15.50     0.026 A 
HETATM   27  C12   D T1226      26.984  -4.636 -25.721  1.00 17.75     0.026 A 
HETATM   28  C13   D T1226      26.521  -3.965 -24.615  1.00 19.96     0.127 A 
HETATM   29  C14   D T1226      26.424  -2.569 -24.547  1.00 17.19     0.026 A 
HETATM   30  C15   D T1226      26.758  -1.821 -25.678  1.00 14.44     0.026 A 
BRANCH  28  31
HETATM   31  N16   D T1226      26.238  -4.779 -23.519  1.00 25.47    -0.114 N 
HETATM   32  O17   D T1226      27.001  -4.679 -22.569  1.00 30.97    -0.532 OA
HETATM   33  O18   D T1226      25.298  -5.570 -23.549  1.00 31.23    -0.532 OA
ENDBRANCH  28  31
ENDBRANCH  24  25
ENDBRANCH   4  24
TORSDOF 6
ENDMDL
MODEL 7
REMARK VINA RESULT:    -7.708      3.238      9.987
REMARK INTER + INTRA:         -11.436
REMARK INTER:                 -10.369
REMARK INTRA:                  -1.067
REMARK UNBOUND:                -1.024
REMARK  6 active torsions:
REMARK  status: ('A' for Active; 'I' for Inactive)
REMARK    1  A    between atoms: C3_3  and  C19_19 
REMARK    2  A    between atoms: C4_4  and  O9_9 
REMARK    3  A    between atoms: O9_9  and  C10_10 
REMARK    4  A    between atoms: C13_13  and  N16_16 
REMARK    5  A    between atoms: C22_22  and  C24_24 
REMARK       I    between atoms: C24_24  and  N26_26 
REMARK    6  A    between atoms: N26_26  and  C27_27 
ROOT
HETATM    1  C1    D T1226      35.167   4.725 -29.228  1.00  8.42     0.055 A 
HETATM    2  C2    D T1226      34.281   3.672 -29.023  1.00  8.23     0.137 A 
HETATM    3  C3    D T1226      34.168   3.117 -27.775  1.00  9.08     0.073 A 
HETATM    4  C4    D T1226      34.841   3.635 -26.694  1.00  9.37     0.106 A 
HETATM    5  C5    D T1226      35.694   4.735 -26.855  1.00  8.83     0.052 A 
HETATM    6  C6    D T1226      35.839   5.258 -28.139  1.00  8.45     0.135 A 
HETATM    7  O7    D T1226      36.685   6.299 -28.296  1.00  8.60    -0.190 OA
HETATM    8  O8    D T1226      33.618   3.139 -30.093  1.00  8.68    -0.190 OA
ENDROOT
BRANCH   3   9
HETATM    9  C19   D T1226      33.266   1.976 -27.598  1.00  9.48     0.131 A 
HETATM   10  O20   D T1226      33.662   0.736 -27.311  1.00 10.60    -0.211 OA
HETATM   11  N21   D T1226      32.468  -0.138 -27.186  1.00 11.15    -0.121 NA
HETATM   12  C22   D T1226      31.437   0.660 -27.435  1.00 10.03     0.167 A 
HETATM   13  C23   D T1226      31.873   1.966 -27.660  1.00 10.23     0.053 A 
BRANCH  12  14
HETATM   14  C24   D T1226      30.018   0.212 -27.448  1.00 10.68     0.295 C 
HETATM   15  O25   D T1226      29.167   0.981 -27.896  1.00 10.93    -0.264 OA
HETATM   16  N26   D T1226      29.785  -1.023 -26.985  1.00 11.03    -0.235 NA
BRANCH  16  17
HETATM   17  C27   D T1226      28.450  -1.613 -26.963  1.00 11.67     0.111 C 
HETATM   18  C28   D T1226      27.981  -1.626 -25.479  1.00 12.92     0.060 C 
HETATM   19  C29   D T1226      26.700  -2.495 -25.410  1.00 12.85     0.252 C 
HETATM   20  N30   D T1226      27.000  -3.873 -25.864  1.00 13.15     0.139 N 
HETATM   21  C31   D T1226      27.352  -3.855 -27.284  1.00 12.56     0.252 C 
HETATM   22  C33   D T1226      25.800  -4.765 -25.699  1.00 13.44     0.285 C 
HETATM   23  C32   D T1226      28.643  -3.046 -27.465  1.00 11.99     0.060 C 
ENDBRANCH  16  17
ENDBRANCH  12  14
ENDBRANCH   3   9
BRANCH   4  24
HETATM   24  O9    D T1226      34.608   3.100 -25.482  1.00 10.58    -0.307 OA
BRANCH  24  25
HETATM   25  C10   D T1226      35.635   2.696 -24.699  1.00 12.96     0.100 A 
HETATM   26  C11   D T1226      36.035   1.380 -24.944  1.00 15.50     0.026 A 
HETATM   27  C12   D T1226      37.108   0.892 -24.219  1.00 17.75     0.026 A 
HETATM   28  C13   D T1226      37.680   1.682 -23.251  1.00 19.96     0.127 A 
HETATM   29  C14   D T1226      37.287   3.005 -23.007  1.00 17.19     0.026 A 
HETATM   30  C15   D T1226      36.224   3.532 -23.742  1.00 14.44     0.026 A 
BRANCH  28  31
HETATM   31  N16   D T1226      38.754   1.096 -22.583  1.00 25.47    -0.114 N 
HETATM   32  O17   D T1226      39.186   0.062 -23.072  1.00 30.97    -0.532 OA
HETATM   33  O18   D T1226      39.191   1.586 -21.545  1.00 31.23    -0.532 OA
ENDBRANCH  28  31
ENDBRANCH  24  25
ENDBRANCH   4  24
TORSDOF 6
ENDMDL
MODEL 8
REMARK VINA RESULT:    -7.676      3.581      9.198
REMARK INTER + INTRA:         -11.393
REMARK INTER:                  -9.952
REMARK INTRA:                  -1.440
REMARK UNBOUND:                -1.024
REMARK  6 active torsions:
REMARK  status: ('A' for Active; 'I' for Inactive)
REMARK    1  A    between atoms: C3_3  and  C19_19 
REMARK    2  A    between atoms: C4_4  and  O9_9 
REMARK    3  A    between atoms: O9_9  and  C10_10 
REMARK    4  A    between atoms: C13_13  and  N16_16 
REMARK    5  A    between atoms: C22_22  and  C24_24 
REMARK       I    between atoms: C24_24  and  N26_26 
REMARK    6  A    between atoms: N26_26  and  C27_27 
ROOT
HETATM    1  C1    D T1226      35.130   4.655 -25.774  1.00  8.42     0.055 A 
HETATM    2  C2    D T1226      34.086   3.924 -26.332  1.00  8.23     0.137 A 
HETATM    3  C3    D T1226      34.345   2.706 -26.906  1.00  9.08     0.073 A 
HETATM    4  C4    D T1226      35.598   2.142 -26.863  1.00  9.37     0.106 A 
HETATM    5  C5    D T1226      36.658   2.827 -26.253  1.00  8.83     0.052 A 
HETATM    6  C6    D T1226      36.393   4.087 -25.718  1.00  8.45     0.135 A 
HETATM    7  O7    D T1226      37.423   4.755 -25.158  1.00  8.60    -0.190 OA
HETATM    8  O8    D T1226      32.839   4.481 -26.395  1.00  8.68    -0.190 OA
ENDROOT
BRANCH   3   9
HETATM    9  C19   D T1226      33.237   1.980 -27.532  1.00  9.48     0.131 A 
HETATM   10  O20   D T1226      33.059   1.859 -28.848  1.00 10.60    -0.211 OA
HETATM   11  N21   D T1226      31.847   1.039 -29.101  1.00 11.15    -0.121 NA
HETATM   12  C22   D T1226      31.377   0.750 -27.893  1.00 10.03     0.167 A 
HETATM   13  C23   D T1226      32.210   1.277 -26.906  1.00 10.23     0.053 A 
BRANCH  12  14
HETATM   14  C24   D T1226      30.143  -0.044 -27.646  1.00 10.68     0.295 C 
HETATM   15  O25   D T1226      29.097   0.322 -28.182  1.00 10.93    -0.264 OA
HETATM   16  N26   D T1226      30.282  -1.124 -26.867  1.00 11.03    -0.235 NA
BRANCH  16  17
HETATM   17  C27   D T1226      29.169  -2.017 -26.558  1.00 11.67     0.111 C 
HETATM   18  C28   D T1226      28.590  -1.569 -25.185  1.00 12.92     0.060 C 
HETATM   19  C29   D T1226      27.603  -2.670 -24.722  1.00 12.85     0.252 C 
HETATM   20  N30   D T1226      28.316  -3.961 -24.581  1.00 13.15     0.139 N 
HETATM   21  C31   D T1226      28.777  -4.413 -25.894  1.00 12.56     0.252 C 
HETATM   22  C33   D T1226      27.405  -5.019 -24.023  1.00 13.44     0.285 C 
HETATM   23  C32   D T1226      29.800  -3.406 -26.435  1.00 11.99     0.060 C 
ENDBRANCH  16  17
ENDBRANCH  12  14
ENDBRANCH   3   9
BRANCH   4  24
HETATM   24  O9    D T1226      35.758   0.904 -27.361  1.00 10.58    -0.307 OA
BRANCH  24  25
HETATM   25  C10   D T1226      36.278  -0.084 -26.597  1.00 12.96     0.100 A 
HETATM   26  C11   D T1226      35.394  -0.559 -25.626  1.00 15.50     0.026 A 
HETATM   27  C12   D T1226      35.825  -1.601 -24.823  1.00 17.75     0.026 A 
HETATM   28  C13   D T1226      37.109  -2.067 -24.960  1.00 19.96     0.127 A 
HETATM   29  C14   D T1226      37.998  -1.599 -25.937  1.00 17.19     0.026 A 
HETATM   30  C15   D T1226      37.581  -0.566 -26.778  1.00 14.44     0.026 A 
BRANCH  28  31
HETATM   31  N16   D T1226      37.440  -3.118 -24.105  1.00 25.47    -0.114 N 
HETATM   32  O17   D T1226      38.625  -3.223 -23.821  1.00 30.97    -0.532 OA
HETATM   33  O18   D T1226      36.580  -3.902 -23.711  1.00 31.23    -0.532 OA
ENDBRANCH  28  31
ENDBRANCH  24  25
ENDBRANCH   4  24
TORSDOF 6
ENDMDL
MODEL 9
REMARK VINA RESULT:    -7.483      2.413      4.875
REMARK INTER + INTRA:         -11.132
REMARK INTER:                 -10.383
REMARK INTRA:                  -0.750
REMARK UNBOUND:                -1.024
REMARK  6 active torsions:
REMARK  status: ('A' for Active; 'I' for Inactive)
REMARK    1  A    between atoms: C3_3  and  C19_19 
REMARK    2  A    between atoms: C4_4  and  O9_9 
REMARK    3  A    between atoms: O9_9  and  C10_10 
REMARK    4  A    between atoms: C13_13  and  N16_16 
REMARK    5  A    between atoms: C22_22  and  C24_24 
REMARK       I    between atoms: C24_24  and  N26_26 
REMARK    6  A    between atoms: N26_26  and  C27_27 
ROOT
HETATM    1  C1    D T1226      27.228  -3.681 -24.872  1.00  8.42     0.055 A 
HETATM    2  C2    D T1226      27.780  -2.477 -25.296  1.00  8.23     0.137 A 
HETATM    3  C3    D T1226      27.510  -2.016 -26.559  1.00  9.08     0.073 A 
HETATM    4  C4    D T1226      26.629  -2.667 -27.389  1.00  9.37     0.106 A 
HETATM    5  C5    D T1226      26.008  -3.851 -26.968  1.00  8.83     0.052 A 
HETATM    6  C6    D T1226      26.330  -4.337 -25.702  1.00  8.45     0.135 A 
HETATM    7  O7    D T1226      25.752  -5.493 -25.311  1.00  8.60    -0.190 OA
HETATM    8  O8    D T1226      28.669  -1.829 -24.485  1.00  8.68    -0.190 OA
ENDROOT
BRANCH   3   9
HETATM    9  C19   D T1226      28.145  -0.771 -26.998  1.00  9.48     0.131 A 
HETATM   10  O20   D T1226      27.521   0.403 -27.098  1.00 10.60    -0.211 OA
HETATM   11  N21   D T1226      28.491   1.432 -27.550  1.00 11.15    -0.121 NA
HETATM   12  C22   D T1226      29.633   0.773 -27.709  1.00 10.03     0.167 A 
HETATM   13  C23   D T1226      29.477  -0.567 -27.354  1.00 10.23     0.053 A 
BRANCH  12  14
HETATM   14  C24   D T1226      30.898   1.397 -28.183  1.00 10.68     0.295 C 
HETATM   15  O25   D T1226      31.165   1.336 -29.383  1.00 10.93    -0.264 OA
HETATM   16  N26   D T1226      31.641   2.006 -27.249  1.00 11.03    -0.235 NA
BRANCH  16  17
HETATM   17  C27   D T1226      32.892   2.689 -27.565  1.00 11.67     0.111 C 
HETATM   18  C28   D T1226      34.037   1.650 -27.388  1.00 12.92     0.060 C 
HETATM   19  C29   D T1226      35.375   2.428 -27.447  1.00 12.85     0.252 C 
HETATM   20  N30   D T1226      35.423   3.434 -26.360  1.00 13.15     0.139 N 
HETATM   21  C31   D T1226      34.399   4.453 -26.589  1.00 12.56     0.252 C 
HETATM   22  C33   D T1226      36.759   4.123 -26.326  1.00 13.44     0.285 C 
HETATM   23  C32   D T1226      33.016   3.793 -26.512  1.00 11.99     0.060 C 
ENDBRANCH  16  17
ENDBRANCH  12  14
ENDBRANCH   3   9
BRANCH   4  24
HETATM   24  O9    D T1226      26.338  -2.107 -28.576  1.00 10.58    -0.307 OA
BRANCH  24  25
HETATM   25  C10   D T1226      25.069  -1.741 -28.872  1.00 12.96     0.100 A 
HETATM   26  C11   D T1226      24.925  -0.370 -29.095  1.00 15.50     0.026 A 
HETATM   27  C12   D T1226      23.668   0.093 -29.446  1.00 17.75     0.026 A 
HETATM   28  C13   D T1226      22.616  -0.789 -29.486  1.00 19.96     0.127 A 
HETATM   29  C14   D T1226      22.757  -2.167 -29.271  1.00 17.19     0.026 A 
HETATM   30  C15   D T1226      24.018  -2.664 -28.940  1.00 14.44     0.026 A 
BRANCH  28  31
HETATM   31  N16   D T1226      21.396  -0.220 -29.853  1.00 25.47    -0.114 N 
HETATM   32  O17   D T1226      20.426  -0.566 -29.193  1.00 30.97    -0.532 OA
HETATM   33  O18   D T1226      21.322   0.544 -30.811  1.00 31.23    -0.532 OA
ENDBRANCH  28  31
ENDBRANCH  24  25
ENDBRANCH   4  24
TORSDOF 6
ENDMDL
