MODEL 1
REMARK VINA RESULT:    -9.465      0.000      0.000
REMARK INTER + INTRA:         -13.793
REMARK INTER:                 -12.785
REMARK INTRA:                  -1.009
REMARK UNBOUND:                -1.009
REMARK  6 active torsions:
REMARK  status: ('A' for Active; 'I' for Inactive)
REMARK    1  A    between atoms: C3_3  and  C19_19 
REMARK    2  A    between atoms: C4_4  and  O9_9 
REMARK    3  A    between atoms: O9_9  and  C10_10 
REMARK    4  A    between atoms: C13_13  and  N16_16 
REMARK    5  A    between atoms: C22_22  and  C24_24 
REMARK       I    between atoms: C24_24  and  N26_26 
REMARK    6  A    between atoms: N26_26  and  C27_27 
ROOT
HETATM    1  C1    D T1226      25.661   0.208 -29.735  1.00  8.42     0.055 A 
HETATM    2  C2    D T1226      27.035   0.211 -29.525  1.00  8.23     0.137 A 
HETATM    3  C3    D T1226      27.551  -0.403 -28.413  1.00  9.08     0.073 A 
HETATM    4  C4    D T1226      26.751  -1.104 -27.542  1.00  9.37     0.106 A 
HETATM    5  C5    D T1226      25.369  -1.178 -27.760  1.00  8.83     0.052 A 
HETATM    6  C6    D T1226      24.850  -0.507 -28.866  1.00  8.45     0.135 A 
HETATM    7  O7    D T1226      23.515  -0.556 -29.057  1.00  8.60    -0.190 OA
HETATM    8  O8    D T1226      27.840   0.919 -30.376  1.00  8.68    -0.190 OA
ENDROOT
BRANCH   3   9
HETATM    9  C19   D T1226      28.998  -0.340 -28.189  1.00  9.48     0.131 A 
HETATM   10  O20   D T1226      29.813  -1.396 -28.214  1.00 10.60    -0.211 OA
HETATM   11  N21   D T1226      31.204  -0.940 -27.966  1.00 11.15    -0.121 NA
HETATM   12  C22   D T1226      31.104   0.372 -27.788  1.00 10.03     0.167 A 
HETATM   13  C23   D T1226      29.781   0.786 -27.945  1.00 10.23     0.053 A 
BRANCH  12  14
HETATM   14  C24   D T1226      32.255   1.264 -27.483  1.00 10.68     0.295 C 
HETATM   15  O25   D T1226      32.287   2.377 -28.008  1.00 10.93    -0.264 OA
HETATM   16  N26   D T1226      33.163   0.781 -26.624  1.00 11.03    -0.235 NA
BRANCH  16  17
HETATM   17  C27   D T1226      34.331   1.550 -26.204  1.00 11.67     0.111 C 
HETATM   18  C28   D T1226      35.488   1.192 -27.182  1.00 12.92     0.060 C 
HETATM   19  C29   D T1226      36.792   1.779 -26.583  1.00 12.85     0.252 C 
HETATM   20  N30   D T1226      37.046   1.190 -25.247  1.00 13.15     0.139 N 
HETATM   21  C31   D T1226      35.996   1.609 -24.319  1.00 12.56     0.252 C 
HETATM   22  C33   D T1226      38.364   1.660 -24.697  1.00 13.44     0.285 C 
HETATM   23  C32   D T1226      34.655   1.042 -24.797  1.00 11.99     0.060 C 
ENDBRANCH  16  17
ENDBRANCH  12  14
ENDBRANCH   3   9
BRANCH   4  24
HETATM   24  O9    D T1226      27.337  -1.760 -26.525  1.00 10.58    -0.307 OA
BRANCH  24  25
HETATM   25  C10   D T1226      27.189  -3.098 -26.393  1.00 12.96     0.100 A 
HETATM   26  C11   D T1226      26.502  -3.470 -25.235  1.00 15.50     0.026 A 
HETATM   27  C12   D T1226      26.267  -4.819 -25.037  1.00 17.75     0.026 A 
HETATM   28  C13   D T1226      26.775  -5.728 -25.933  1.00 19.96     0.127 A 
HETATM   29  C14   D T1226      27.459  -5.360 -27.100  1.00 17.19     0.026 A 
HETATM   30  C15   D T1226      27.689  -4.004 -27.338  1.00 14.44     0.026 A 
BRANCH  28  31
HETATM   31  N16   D T1226      26.478  -7.059 -25.641  1.00 25.47    -0.114 N 
HETATM   32  O17   D T1226      25.474  -7.248 -24.971  1.00 30.97    -0.532 OA
HETATM   33  O18   D T1226      27.221  -7.965 -26.011  1.00 31.23    -0.532 OA
ENDBRANCH  28  31
ENDBRANCH  24  25
ENDBRANCH   4  24
TORSDOF 6
ENDMDL
MODEL 2
REMARK VINA RESULT:    -9.351      2.534      5.214
REMARK INTER + INTRA:         -13.640
REMARK INTER:                 -12.865
REMARK INTRA:                  -0.775
REMARK UNBOUND:                -1.009
REMARK  6 active torsions:
REMARK  status: ('A' for Active; 'I' for Inactive)
REMARK    1  A    between atoms: C3_3  and  C19_19 
REMARK    2  A    between atoms: C4_4  and  O9_9 
REMARK    3  A    between atoms: O9_9  and  C10_10 
REMARK    4  A    between atoms: C13_13  and  N16_16 
REMARK    5  A    between atoms: C22_22  and  C24_24 
REMARK       I    between atoms: C24_24  and  N26_26 
REMARK    6  A    between atoms: N26_26  and  C27_27 
ROOT
HETATM    1  C1    D T1226      26.624  -5.089 -23.777  1.00  8.42     0.055 A 
HETATM    2  C2    D T1226      27.495  -4.265 -24.481  1.00  8.23     0.137 A 
HETATM    3  C3    D T1226      27.398  -4.187 -25.846  1.00  9.08     0.073 A 
HETATM    4  C4    D T1226      26.400  -4.833 -26.535  1.00  9.37     0.106 A 
HETATM    5  C5    D T1226      25.467  -5.623 -25.848  1.00  8.83     0.052 A 
HETATM    6  C6    D T1226      25.608  -5.735 -24.465  1.00  8.45     0.135 A 
HETATM    7  O7    D T1226      24.726  -6.520 -23.810  1.00  8.60    -0.190 OA
HETATM    8  O8    D T1226      28.503  -3.630 -23.808  1.00  8.68    -0.190 OA
ENDROOT
BRANCH   3   9
HETATM    9  C19   D T1226      28.362  -3.351 -26.567  1.00  9.48     0.131 A 
HETATM   10  O20   D T1226      29.325  -3.821 -27.360  1.00 10.60    -0.211 OA
HETATM   11  N21   D T1226      30.084  -2.680 -27.931  1.00 11.15    -0.121 NA
HETATM   12  C22   D T1226      29.517  -1.601 -27.406  1.00 10.03     0.167 A 
HETATM   13  C23   D T1226      28.442  -1.961 -26.592  1.00 10.23     0.053 A 
BRANCH  12  14
HETATM   14  C24   D T1226      29.965  -0.207 -27.674  1.00 10.68     0.295 C 
HETATM   15  O25   D T1226      29.115   0.634 -27.964  1.00 10.93    -0.264 OA
HETATM   16  N26   D T1226      31.279   0.024 -27.548  1.00 11.03    -0.235 NA
BRANCH  16  17
HETATM   17  C27   D T1226      31.865   1.346 -27.750  1.00 11.67     0.111 C 
HETATM   18  C28   D T1226      32.769   1.257 -29.013  1.00 12.92     0.060 C 
HETATM   19  C29   D T1226      33.605   2.560 -29.071  1.00 12.85     0.252 C 
HETATM   20  N30   D T1226      34.437   2.683 -27.851  1.00 13.15     0.139 N 
HETATM   21  C31   D T1226      33.573   2.855 -26.684  1.00 12.56     0.252 C 
HETATM   22  C33   D T1226      35.341   3.882 -27.938  1.00 13.44     0.285 C 
HETATM   23  C32   D T1226      32.722   1.592 -26.505  1.00 11.99     0.060 C 
ENDBRANCH  16  17
ENDBRANCH  12  14
ENDBRANCH   3   9
BRANCH   4  24
HETATM   24  O9    D T1226      26.308  -4.636 -27.862  1.00 10.58    -0.307 OA
BRANCH  24  25
HETATM   25  C10   D T1226      25.389  -3.784 -28.369  1.00 12.96     0.100 A 
HETATM   26  C11   D T1226      25.875  -2.486 -28.550  1.00 15.50     0.026 A 
HETATM   27  C12   D T1226      25.017  -1.554 -29.105  1.00 17.75     0.026 A 
HETATM   28  C13   D T1226      23.720  -1.914 -29.380  1.00 19.96     0.127 A 
HETATM   29  C14   D T1226      23.229  -3.216 -29.207  1.00 17.19     0.026 A 
HETATM   30  C15   D T1226      24.082  -4.184 -28.673  1.00 14.44     0.026 A 
BRANCH  28  31
HETATM   31  N16   D T1226      22.941  -0.901 -29.939  1.00 25.47    -0.114 N 
HETATM   32  O17   D T1226      23.405  -0.355 -30.929  1.00 30.97    -0.532 OA
HETATM   33  O18   D T1226      21.878  -0.568 -29.422  1.00 31.23    -0.532 OA
ENDBRANCH  28  31
ENDBRANCH  24  25
ENDBRANCH   4  24
TORSDOF 6
ENDMDL
MODEL 3
REMARK VINA RESULT:    -8.816      1.950      2.679
REMARK INTER + INTRA:         -12.917
REMARK INTER:                 -11.950
REMARK INTRA:                  -0.967
REMARK UNBOUND:                -1.009
REMARK  6 active torsions:
REMARK  status: ('A' for Active; 'I' for Inactive)
REMARK    1  A    between atoms: C3_3  and  C19_19 
REMARK    2  A    between atoms: C4_4  and  O9_9 
REMARK    3  A    between atoms: O9_9  and  C10_10 
REMARK    4  A    between atoms: C13_13  and  N16_16 
REMARK    5  A    between atoms: C22_22  and  C24_24 
REMARK       I    between atoms: C24_24  and  N26_26 
REMARK    6  A    between atoms: N26_26  and  C27_27 
ROOT
HETATM    1  C1    D T1226      24.135  -1.171 -29.900  1.00  8.42     0.055 A 
HETATM    2  C2    D T1226      25.330  -0.548 -29.560  1.00  8.23     0.137 A 
HETATM    3  C3    D T1226      26.126  -1.095 -28.587  1.00  9.08     0.073 A 
HETATM    4  C4    D T1226      25.819  -2.299 -27.999  1.00  9.37     0.106 A 
HETATM    5  C5    D T1226      24.652  -2.984 -28.365  1.00  8.83     0.052 A 
HETATM    6  C6    D T1226      23.825  -2.392 -29.319  1.00  8.45     0.135 A 
HETATM    7  O7    D T1226      22.688  -3.039 -29.648  1.00  8.60    -0.190 OA
HETATM    8  O8    D T1226      25.639   0.659 -30.126  1.00  8.68    -0.190 OA
ENDROOT
BRANCH   3   9
HETATM    9  C19   D T1226      27.354  -0.390 -28.211  1.00  9.48     0.131 A 
HETATM   10  O20   D T1226      27.395   0.707 -27.455  1.00 10.60    -0.211 OA
HETATM   11  N21   D T1226      28.810   1.118 -27.272  1.00 11.15    -0.121 NA
HETATM   12  C22   D T1226      29.512   0.230 -27.965  1.00 10.03     0.167 A 
HETATM   13  C23   D T1226      28.668  -0.726 -28.529  1.00 10.23     0.053 A 
BRANCH  12  14
HETATM   14  C24   D T1226      30.994   0.256 -28.095  1.00 10.68     0.295 C 
HETATM   15  O25   D T1226      31.560  -0.749 -28.526  1.00 10.93    -0.264 OA
HETATM   16  N26   D T1226      31.597   1.401 -27.750  1.00 11.03    -0.235 NA
BRANCH  16  17
HETATM   17  C27   D T1226      33.042   1.589 -27.851  1.00 11.67     0.111 C 
HETATM   18  C28   D T1226      33.495   2.346 -26.570  1.00 12.92     0.060 C 
HETATM   19  C29   D T1226      34.961   2.794 -26.796  1.00 12.85     0.252 C 
HETATM   20  N30   D T1226      35.042   3.686 -27.977  1.00 13.15     0.139 N 
HETATM   21  C31   D T1226      34.699   2.934 -29.183  1.00 12.56     0.252 C 
HETATM   22  C33   D T1226      36.437   4.223 -28.147  1.00 13.44     0.285 C 
HETATM   23  C32   D T1226      33.240   2.475 -29.084  1.00 11.99     0.060 C 
ENDBRANCH  16  17
ENDBRANCH  12  14
ENDBRANCH   3   9
BRANCH   4  24
HETATM   24  O9    D T1226      26.692  -2.823 -27.121  1.00 10.58    -0.307 OA
BRANCH  24  25
HETATM   25  C10   D T1226      26.760  -4.160 -26.932  1.00 12.96     0.100 A 
HETATM   26  C11   D T1226      27.674  -4.795 -27.777  1.00 15.50     0.026 A 
HETATM   27  C12   D T1226      27.842  -6.160 -27.627  1.00 17.75     0.026 A 
HETATM   28  C13   D T1226      27.062  -6.837 -26.720  1.00 19.96     0.127 A 
HETATM   29  C14   D T1226      26.149  -6.204 -25.865  1.00 17.19     0.026 A 
HETATM   30  C15   D T1226      25.978  -4.823 -25.978  1.00 14.44     0.026 A 
BRANCH  28  31
HETATM   31  N16   D T1226      27.314  -8.207 -26.646  1.00 25.47    -0.114 N 
HETATM   32  O17   D T1226      28.087  -8.561 -25.768  1.00 30.97    -0.532 OA
HETATM   33  O18   D T1226      26.812  -8.983 -27.454  1.00 31.23    -0.532 OA
ENDBRANCH  28  31
ENDBRANCH  24  25
ENDBRANCH   4  24
TORSDOF 6
ENDMDL
MODEL 4
REMARK VINA RESULT:    -7.801      2.317      4.831
REMARK INTER + INTRA:         -11.546
REMARK INTER:                 -11.165
REMARK INTRA:                  -0.381
REMARK UNBOUND:                -1.009
REMARK  6 active torsions:
REMARK  status: ('A' for Active; 'I' for Inactive)
REMARK    1  A    between atoms: C3_3  and  C19_19 
REMARK    2  A    between atoms: C4_4  and  O9_9 
REMARK    3  A    between atoms: O9_9  and  C10_10 
REMARK    4  A    between atoms: C13_13  and  N16_16 
REMARK    5  A    between atoms: C22_22  and  C24_24 
REMARK       I    between atoms: C24_24  and  N26_26 
REMARK    6  A    between atoms: N26_26  and  C27_27 
ROOT
HETATM    1  C1    D T1226      27.075  -4.954 -25.015  1.00  8.42     0.055 A 
HETATM    2  C2    D T1226      27.759  -3.805 -25.397  1.00  8.23     0.137 A 
HETATM    3  C3    D T1226      27.617  -3.326 -26.673  1.00  9.08     0.073 A 
HETATM    4  C4    D T1226      26.742  -3.900 -27.564  1.00  9.37     0.106 A 
HETATM    5  C5    D T1226      25.991  -5.022 -27.190  1.00  8.83     0.052 A 
HETATM    6  C6    D T1226      26.182  -5.531 -25.906  1.00  8.45     0.135 A 
HETATM    7  O7    D T1226      25.479  -6.629 -25.558  1.00  8.60    -0.190 OA
HETATM    8  O8    D T1226      28.645  -3.235 -24.524  1.00  8.68    -0.190 OA
ENDROOT
BRANCH   3   9
HETATM    9  C19   D T1226      28.389  -2.144 -27.064  1.00  9.48     0.131 A 
HETATM   10  O20   D T1226      27.865  -0.938 -27.287  1.00 10.60    -0.211 OA
HETATM   11  N21   D T1226      28.954   0.007 -27.640  1.00 11.15    -0.121 NA
HETATM   12  C22   D T1226      30.059  -0.728 -27.621  1.00 10.03     0.167 A 
HETATM   13  C23   D T1226      29.767  -2.039 -27.245  1.00 10.23     0.053 A 
BRANCH  12  14
HETATM   14  C24   D T1226      31.415  -0.206 -27.941  1.00 10.68     0.295 C 
HETATM   15  O25   D T1226      31.768  -0.179 -29.120  1.00 10.93    -0.264 OA
HETATM   16  N26   D T1226      32.142   0.225 -26.901  1.00 11.03    -0.235 NA
BRANCH  16  17
HETATM   17  C27   D T1226      33.478   0.792 -27.059  1.00 11.67     0.111 C 
HETATM   18  C28   D T1226      34.415   0.032 -26.076  1.00 12.92     0.060 C 
HETATM   19  C29   D T1226      35.758   0.805 -26.033  1.00 12.85     0.252 C 
HETATM   20  N30   D T1226      35.529   2.190 -25.558  1.00 13.15     0.139 N 
HETATM   21  C31   D T1226      34.720   2.916 -26.537  1.00 12.56     0.252 C 
HETATM   22  C33   D T1226      36.832   2.924 -25.399  1.00 13.44     0.285 C 
HETATM   23  C32   D T1226      33.340   2.255 -26.630  1.00 11.99     0.060 C 
ENDBRANCH  16  17
ENDBRANCH  12  14
ENDBRANCH   3   9
BRANCH   4  24
HETATM   24  O9    D T1226      26.584  -3.320 -28.767  1.00 10.58    -0.307 OA
BRANCH  24  25
HETATM   25  C10   D T1226      25.493  -2.566 -29.030  1.00 12.96     0.100 A 
HETATM   26  C11   D T1226      24.294  -3.281 -28.960  1.00 15.50     0.026 A 
HETATM   27  C12   D T1226      23.119  -2.581 -29.173  1.00 17.75     0.026 A 
HETATM   28  C13   D T1226      23.181  -1.251 -29.513  1.00 19.96     0.127 A 
HETATM   29  C14   D T1226      24.381  -0.528 -29.577  1.00 17.19     0.026 A 
HETATM   30  C15   D T1226      25.580  -1.203 -29.342  1.00 14.44     0.026 A 
BRANCH  28  31
HETATM   31  N16   D T1226      21.942  -0.641 -29.702  1.00 25.47    -0.114 N 
HETATM   32  O17   D T1226      21.024  -1.073 -29.020  1.00 30.97    -0.532 OA
HETATM   33  O18   D T1226      21.798   0.244 -30.542  1.00 31.23    -0.532 OA
ENDBRANCH  28  31
ENDBRANCH  24  25
ENDBRANCH   4  24
TORSDOF 6
ENDMDL
MODEL 5
REMARK VINA RESULT:    -7.763      3.215      9.918
REMARK INTER + INTRA:         -11.494
REMARK INTER:                 -10.361
REMARK INTRA:                  -1.133
REMARK UNBOUND:                -1.009
REMARK  6 active torsions:
REMARK  status: ('A' for Active; 'I' for Inactive)
REMARK    1  A    between atoms: C3_3  and  C19_19 
REMARK    2  A    between atoms: C4_4  and  O9_9 
REMARK    3  A    between atoms: O9_9  and  C10_10 
REMARK    4  A    between atoms: C13_13  and  N16_16 
REMARK    5  A    between atoms: C22_22  and  C24_24 
REMARK       I    between atoms: C24_24  and  N26_26 
REMARK    6  A    between atoms: N26_26  and  C27_27 
ROOT
HETATM    1  C1    D T1226      35.412   3.872 -29.246  1.00  8.42     0.055 A 
HETATM    2  C2    D T1226      34.473   2.860 -29.084  1.00  8.23     0.137 A 
HETATM    3  C3    D T1226      34.320   2.269 -27.857  1.00  9.08     0.073 A 
HETATM    4  C4    D T1226      35.009   2.714 -26.753  1.00  9.37     0.106 A 
HETATM    5  C5    D T1226      35.919   3.774 -26.871  1.00  8.83     0.052 A 
HETATM    6  C6    D T1226      36.102   4.333 -28.135  1.00  8.45     0.135 A 
HETATM    7  O7    D T1226      37.000   5.334 -28.250  1.00  8.60    -0.190 OA
HETATM    8  O8    D T1226      33.793   2.398 -30.177  1.00  8.68    -0.190 OA
ENDROOT
BRANCH   3   9
HETATM    9  C19   D T1226      33.360   1.170 -27.725  1.00  9.48     0.131 A 
HETATM   10  O20   D T1226      33.695  -0.107 -27.533  1.00 10.60    -0.211 OA
HETATM   11  N21   D T1226      32.458  -0.921 -27.427  1.00 11.15    -0.121 NA
HETATM   12  C22   D T1226      31.466  -0.054 -27.590  1.00 10.03     0.167 A 
HETATM   13  C23   D T1226      31.969   1.239 -27.744  1.00 10.23     0.053 A 
BRANCH  12  14
HETATM   14  C24   D T1226      30.025  -0.423 -27.586  1.00 10.68     0.295 C 
HETATM   15  O25   D T1226      29.205   0.420 -27.950  1.00 10.93    -0.264 OA
HETATM   16  N26   D T1226      29.738  -1.674 -27.204  1.00 11.03    -0.235 NA
BRANCH  16  17
HETATM   17  C27   D T1226      28.372  -2.192 -27.178  1.00 11.67     0.111 C 
HETATM   18  C28   D T1226      27.902  -2.162 -25.695  1.00 12.92     0.060 C 
HETATM   19  C29   D T1226      26.576  -2.962 -25.618  1.00 12.85     0.252 C 
HETATM   20  N30   D T1226      26.801  -4.359 -26.059  1.00 13.15     0.139 N 
HETATM   21  C31   D T1226      27.156  -4.374 -27.478  1.00 12.56     0.252 C 
HETATM   22  C33   D T1226      25.555  -5.182 -25.886  1.00 13.44     0.285 C 
HETATM   23  C32   D T1226      28.488  -3.638 -27.665  1.00 11.99     0.060 C 
ENDBRANCH  16  17
ENDBRANCH  12  14
ENDBRANCH   3   9
BRANCH   4  24
HETATM   24  O9    D T1226      34.740   2.150 -25.562  1.00 10.58    -0.307 OA
BRANCH  24  25
HETATM   25  C10   D T1226      35.734   1.630 -24.807  1.00 12.96     0.100 A 
HETATM   26  C11   D T1226      36.048   0.308 -25.135  1.00 15.50     0.026 A 
HETATM   27  C12   D T1226      37.083  -0.294 -24.442  1.00 17.75     0.026 A 
HETATM   28  C13   D T1226      37.699   0.393 -23.424  1.00 19.96     0.127 A 
HETATM   29  C14   D T1226      37.393   1.721 -23.096  1.00 17.19     0.026 A 
HETATM   30  C15   D T1226      36.370   2.362 -23.797  1.00 14.44     0.026 A 
BRANCH  28  31
HETATM   31  N16   D T1226      38.730  -0.304 -22.794  1.00 25.47    -0.114 N 
HETATM   32  O17   D T1226      39.296   0.286 -21.886  1.00 30.97    -0.532 OA
HETATM   33  O18   D T1226      39.057  -1.424 -23.178  1.00 31.23    -0.532 OA
ENDBRANCH  28  31
ENDBRANCH  24  25
ENDBRANCH   4  24
TORSDOF 6
ENDMDL
MODEL 6
REMARK VINA RESULT:    -7.548      3.597      9.459
REMARK INTER + INTRA:         -11.204
REMARK INTER:                 -10.255
REMARK INTRA:                  -0.949
REMARK UNBOUND:                -1.009
REMARK  6 active torsions:
REMARK  status: ('A' for Active; 'I' for Inactive)
REMARK    1  A    between atoms: C3_3  and  C19_19 
REMARK    2  A    between atoms: C4_4  and  O9_9 
REMARK    3  A    between atoms: O9_9  and  C10_10 
REMARK    4  A    between atoms: C13_13  and  N16_16 
REMARK    5  A    between atoms: C22_22  and  C24_24 
REMARK       I    between atoms: C24_24  and  N26_26 
REMARK    6  A    between atoms: N26_26  and  C27_27 
ROOT
HETATM    1  C1    D T1226      34.625   3.399 -26.424  1.00  8.42     0.055 A 
HETATM    2  C2    D T1226      33.639   2.571 -26.947  1.00  8.23     0.137 A 
HETATM    3  C3    D T1226      33.741   1.213 -26.789  1.00  9.08     0.073 A 
HETATM    4  C4    D T1226      34.749   0.650 -26.044  1.00  9.37     0.106 A 
HETATM    5  C5    D T1226      35.725   1.462 -25.450  1.00  8.83     0.052 A 
HETATM    6  C6    D T1226      35.639   2.838 -25.661  1.00  8.45     0.135 A 
HETATM    7  O7    D T1226      36.596   3.615 -25.113  1.00  8.60    -0.190 OA
HETATM    8  O8    D T1226      32.640   3.119 -27.704  1.00  8.68    -0.190 OA
ENDROOT
BRANCH   3   9
HETATM    9  C19   D T1226      32.715   0.360 -27.395  1.00  9.48     0.131 A 
HETATM   10  O20   D T1226      32.747  -0.082 -28.653  1.00 10.60    -0.211 OA
HETATM   11  N21   D T1226      31.555  -0.933 -28.898  1.00 11.15    -0.121 NA
HETATM   12  C22   D T1226      30.883  -0.911 -27.753  1.00 10.03     0.167 A 
HETATM   13  C23   D T1226      31.569  -0.160 -26.798  1.00 10.23     0.053 A 
BRANCH  12  14
HETATM   14  C24   D T1226      29.590  -1.612 -27.531  1.00 10.68     0.295 C 
HETATM   15  O25   D T1226      28.560  -1.086 -27.951  1.00 10.93    -0.264 OA
HETATM   16  N26   D T1226      29.660  -2.794 -26.903  1.00 11.03    -0.235 NA
BRANCH  16  17
HETATM   17  C27   D T1226      28.480  -3.613 -26.639  1.00 11.67     0.111 C 
HETATM   18  C28   D T1226      28.593  -4.119 -25.172  1.00 12.92     0.060 C 
HETATM   19  C29   D T1226      27.504  -5.204 -24.976  1.00 12.85     0.252 C 
HETATM   20  N30   D T1226      27.726  -6.321 -25.924  1.00 13.15     0.139 N 
HETATM   21  C31   D T1226      27.528  -5.848 -27.293  1.00 12.56     0.252 C 
HETATM   22  C33   D T1226      26.749  -7.437 -25.674  1.00 13.44     0.285 C 
HETATM   23  C32   D T1226      28.590  -4.790 -27.612  1.00 11.99     0.060 C 
ENDBRANCH  16  17
ENDBRANCH  12  14
ENDBRANCH   3   9
BRANCH   4  24
HETATM   24  O9    D T1226      34.734  -0.681 -25.852  1.00 10.58    -0.307 OA
BRANCH  24  25
HETATM   25  C10   D T1226      35.851  -1.418 -26.048  1.00 12.96     0.100 A 
HETATM   26  C11   D T1226      35.888  -2.586 -25.283  1.00 15.50     0.026 A 
HETATM   27  C12   D T1226      36.975  -3.426 -25.450  1.00 17.75     0.026 A 
HETATM   28  C13   D T1226      37.994  -3.047 -26.290  1.00 19.96     0.127 A 
HETATM   29  C14   D T1226      37.959  -1.879 -27.065  1.00 17.19     0.026 A 
HETATM   30  C15   D T1226      36.861  -1.026 -26.936  1.00 14.44     0.026 A 
BRANCH  28  31
HETATM   31  N16   D T1226      39.039  -3.965 -26.388  1.00 25.47    -0.114 N 
HETATM   32  O17   D T1226      39.464  -4.173 -27.514  1.00 30.97    -0.532 OA
HETATM   33  O18   D T1226      39.457  -4.550 -25.391  1.00 31.23    -0.532 OA
ENDBRANCH  28  31
ENDBRANCH  24  25
ENDBRANCH   4  24
TORSDOF 6
ENDMDL
MODEL 7
REMARK VINA RESULT:    -7.281      1.831      2.167
REMARK INTER + INTRA:         -10.843
REMARK INTER:                 -10.273
REMARK INTRA:                  -0.570
REMARK UNBOUND:                -1.009
REMARK  6 active torsions:
REMARK  status: ('A' for Active; 'I' for Inactive)
REMARK    1  A    between atoms: C3_3  and  C19_19 
REMARK    2  A    between atoms: C4_4  and  O9_9 
REMARK    3  A    between atoms: O9_9  and  C10_10 
REMARK    4  A    between atoms: C13_13  and  N16_16 
REMARK    5  A    between atoms: C22_22  and  C24_24 
REMARK       I    between atoms: C24_24  and  N26_26 
REMARK    6  A    between atoms: N26_26  and  C27_27 
ROOT
HETATM    1  C1    D T1226      26.779   0.377 -29.656  1.00  8.42     0.055 A 
HETATM    2  C2    D T1226      28.057   0.796 -29.305  1.00  8.23     0.137 A 
HETATM    3  C3    D T1226      28.786   0.063 -28.405  1.00  9.08     0.073 A 
HETATM    4  C4    D T1226      28.322  -1.130 -27.905  1.00  9.37     0.106 A 
HETATM    5  C5    D T1226      27.062  -1.612 -28.287  1.00  8.83     0.052 A 
HETATM    6  C6    D T1226      26.309  -0.832 -29.164  1.00  8.45     0.135 A 
HETATM    7  O7    D T1226      25.085  -1.284 -29.508  1.00  8.60    -0.190 OA
HETATM    8  O8    D T1226      28.524   1.990 -29.783  1.00  8.68    -0.190 OA
ENDROOT
BRANCH   3   9
HETATM    9  C19   D T1226      30.109   0.554 -28.013  1.00  9.48     0.131 A 
HETATM   10  O20   D T1226      30.332   1.715 -27.395  1.00 10.60    -0.211 OA
HETATM   11  N21   D T1226      31.788   1.858 -27.141  1.00 11.15    -0.121 NA
HETATM   12  C22   D T1226      32.331   0.762 -27.658  1.00 10.03     0.167 A 
HETATM   13  C23   D T1226      31.341  -0.076 -28.172  1.00 10.23     0.053 A 
BRANCH  12  14
HETATM   14  C24   D T1226      33.791   0.474 -27.661  1.00 10.68     0.295 C 
HETATM   15  O25   D T1226      34.490   1.012 -28.520  1.00 10.93    -0.264 OA
HETATM   16  N26   D T1226      34.233  -0.340 -26.694  1.00 11.03    -0.235 NA
BRANCH  16  17
HETATM   17  C27   D T1226      35.644  -0.691 -26.549  1.00 11.67     0.111 C 
HETATM   18  C28   D T1226      35.704  -1.997 -25.705  1.00 12.92     0.060 C 
HETATM   19  C29   D T1226      37.187  -2.220 -25.312  1.00 12.85     0.252 C 
HETATM   20  N30   D T1226      37.679  -1.069 -24.517  1.00 13.15     0.139 N 
HETATM   21  C31   D T1226      37.698   0.131 -25.352  1.00 12.56     0.252 C 
HETATM   22  C33   D T1226      39.079  -1.316 -24.028  1.00 13.44     0.285 C 
HETATM   23  C32   D T1226      36.262   0.471 -25.768  1.00 11.99     0.060 C 
ENDBRANCH  16  17
ENDBRANCH  12  14
ENDBRANCH   3   9
BRANCH   4  24
HETATM   24  O9    D T1226      29.129  -1.843 -27.099  1.00 10.58    -0.307 OA
BRANCH  24  25
HETATM   25  C10   D T1226      28.669  -2.944 -26.463  1.00 12.96     0.100 A 
HETATM   26  C11   D T1226      27.932  -2.654 -25.312  1.00 15.50     0.026 A 
HETATM   27  C12   D T1226      27.385  -3.719 -24.618  1.00 17.75     0.026 A 
HETATM   28  C13   D T1226      27.647  -5.000 -25.038  1.00 19.96     0.127 A 
HETATM   29  C14   D T1226      28.379  -5.297 -26.196  1.00 17.19     0.026 A 
HETATM   30  C15   D T1226      28.921  -4.240 -26.930  1.00 14.44     0.026 A 
BRANCH  28  31
HETATM   31  N16   D T1226      27.046  -5.997 -24.270  1.00 25.47    -0.114 N 
HETATM   32  O17   D T1226      26.847  -7.061 -24.837  1.00 30.97    -0.532 OA
HETATM   33  O18   D T1226      26.706  -5.778 -23.110  1.00 31.23    -0.532 OA
ENDBRANCH  28  31
ENDBRANCH  24  25
ENDBRANCH   4  24
TORSDOF 6
ENDMDL
MODEL 8
REMARK VINA RESULT:    -6.630      3.255      9.448
REMARK INTER + INTRA:          -9.965
REMARK INTER:                 -10.660
REMARK INTRA:                   0.695
REMARK UNBOUND:                -1.009
REMARK  6 active torsions:
REMARK  status: ('A' for Active; 'I' for Inactive)
REMARK    1  A    between atoms: C3_3  and  C19_19 
REMARK    2  A    between atoms: C4_4  and  O9_9 
REMARK    3  A    between atoms: O9_9  and  C10_10 
REMARK    4  A    between atoms: C13_13  and  N16_16 
REMARK    5  A    between atoms: C22_22  and  C24_24 
REMARK       I    between atoms: C24_24  and  N26_26 
REMARK    6  A    between atoms: N26_26  and  C27_27 
ROOT
HETATM    1  C1    D T1226      32.711   2.446 -28.971  1.00  8.42     0.055 A 
HETATM    2  C2    D T1226      31.887   1.349 -28.751  1.00  8.23     0.137 A 
HETATM    3  C3    D T1226      32.374   0.262 -28.073  1.00  9.08     0.073 A 
HETATM    4  C4    D T1226      33.633   0.263 -27.521  1.00  9.37     0.106 A 
HETATM    5  C5    D T1226      34.467   1.379 -27.672  1.00  8.83     0.052 A 
HETATM    6  C6    D T1226      33.978   2.458 -28.408  1.00  8.45     0.135 A 
HETATM    7  O7    D T1226      34.795   3.520 -28.576  1.00  8.60    -0.190 OA
HETATM    8  O8    D T1226      30.637   1.329 -29.308  1.00  8.68    -0.190 OA
ENDROOT
BRANCH   3   9
HETATM    9  C19   D T1226      31.501  -0.902 -27.900  1.00  9.48     0.131 A 
HETATM   10  O20   D T1226      31.271  -1.821 -28.839  1.00 10.60    -0.211 OA
HETATM   11  N21   D T1226      30.357  -2.855 -28.292  1.00 11.15    -0.121 NA
HETATM   12  C22   D T1226      30.091  -2.452 -27.055  1.00 10.03     0.167 A 
HETATM   13  C23   D T1226      30.792  -1.282 -26.762  1.00 10.23     0.053 A 
BRANCH  12  14
HETATM   14  C24   D T1226      29.185  -3.171 -26.119  1.00 10.68     0.295 C 
HETATM   15  O25   D T1226      28.437  -2.505 -25.403  1.00 10.93    -0.264 OA
HETATM   16  N26   D T1226      29.242  -4.509 -26.154  1.00 11.03    -0.235 NA
BRANCH  16  17
HETATM   17  C27   D T1226      28.393  -5.352 -25.317  1.00 11.67     0.111 C 
HETATM   18  C28   D T1226      27.301  -5.962 -26.243  1.00 12.92     0.060 C 
HETATM   19  C29   D T1226      26.241  -6.625 -25.327  1.00 12.85     0.252 C 
HETATM   20  N30   D T1226      25.643  -5.610 -24.427  1.00 13.15     0.139 N 
HETATM   21  C31   D T1226      26.664  -5.112 -23.505  1.00 12.56     0.252 C 
HETATM   22  C33   D T1226      24.533  -6.208 -23.609  1.00 13.44     0.285 C 
HETATM   23  C32   D T1226      27.753  -4.393 -24.311  1.00 11.99     0.060 C 
ENDBRANCH  16  17
ENDBRANCH  12  14
ENDBRANCH   3   9
BRANCH   4  24
HETATM   24  O9    D T1226      34.011  -0.800 -26.789  1.00 10.58    -0.307 OA
BRANCH  24  25
HETATM   25  C10   D T1226      35.130  -0.752 -26.033  1.00 12.96     0.100 A 
HETATM   26  C11   D T1226      35.077   0.211 -25.022  1.00 15.50     0.026 A 
HETATM   27  C12   D T1226      36.164   0.304 -24.170  1.00 17.75     0.026 A 
HETATM   28  C13   D T1226      37.264  -0.488 -24.394  1.00 19.96     0.127 A 
HETATM   29  C14   D T1226      37.319  -1.460 -25.403  1.00 17.19     0.026 A 
HETATM   30  C15   D T1226      36.227  -1.594 -26.261  1.00 14.44     0.026 A 
BRANCH  28  31
HETATM   31  N16   D T1226      38.300  -0.317 -23.477  1.00 25.47    -0.114 N 
HETATM   32  O17   D T1226      38.109   0.517 -22.605  1.00 30.97    -0.532 OA
HETATM   33  O18   D T1226      39.347  -0.949 -23.587  1.00 31.23    -0.532 OA
ENDBRANCH  28  31
ENDBRANCH  24  25
ENDBRANCH   4  24
TORSDOF 6
ENDMDL
