MODEL 1
REMARK VINA RESULT:    -7.926      0.000      0.000
REMARK INTER + INTRA:         -15.949
REMARK INTER:                 -13.949
REMARK INTRA:                  -2.000
REMARK UNBOUND:                -2.000
REMARK  13 active torsions:
REMARK  status: ('A' for Active; 'I' for Inactive)
REMARK    1  A    between atoms: CBD_7  and  NAX_8 
REMARK       I    between atoms: NAX_8  and  CBB_9 
REMARK    2  A    between atoms: CBB_9  and  CAT_11 
REMARK    3  A    between atoms: CAT_11  and  CBE_12 
REMARK    4  A    between atoms: CBG_16  and  NAY_17 
REMARK    5  A    between atoms: NAY_17  and  C6_18 
REMARK    6  A    between atoms: CBF_27  and  OBA_28 
REMARK    7  A    between atoms: OBA_28  and  CAQ_29 
REMARK    8  A    between atoms: CAQ_29  and  CAP_30 
REMARK    9  A    between atoms: CAP_30  and  CAS_31 
REMARK   10  A    between atoms: CAS_31  and  NBK_32 
REMARK   11  A    between atoms: NBK_32  and  CAO_33 
REMARK   12  A    between atoms: NBK_32  and  CAR_35 
REMARK   13  A    between atoms: CAR_35  and  CAN_36 
ROOT
HETATM    1  C6    D T1357       2.642  16.023  -1.830  1.00 24.40     0.167 A 
HETATM    2  N1    D T1357       2.617  17.327  -1.386  1.00 22.79    -0.205 NA
HETATM    3  C2    D T1357       3.746  18.000  -1.377  1.00 21.83     0.200 A 
HETATM    4  N3    D T1357       4.953  17.640  -1.822  1.00 18.31    -0.224 NA
HETATM    5  C4    D T1357       5.057  16.349  -2.295  1.00 25.22     0.088 A 
HETATM    6  CAM   D T1357       6.346  15.893  -2.677  1.00 18.41     0.043 A 
HETATM    7  C5    D T1357       3.897  15.513  -2.303  1.00 24.34     0.054 A 
HETATM    8  CAJ   D T1357       4.143  14.217  -2.803  1.00 26.00     0.007 A 
HETATM    9  CAI   D T1357       5.417  13.767  -3.226  1.00 25.92     0.024 A 
HETATM   10  CBF   D T1357       6.543  14.629  -3.207  1.00 25.65     0.096 A 
ENDROOT
BRANCH   1  11
HETATM   11  NAY   D T1357       1.505  15.230  -1.773  1.00 27.01    -0.206 NA
BRANCH  11  12
HETATM   12  CBG   D T1357       1.173  14.392  -0.706  1.00 29.06     0.186 A 
HETATM   13  CAL   D T1357       1.764  14.049   0.463  1.00 25.08     0.058 A 
HETATM   14  CBE   D T1357       0.923  13.136   1.061  1.00 25.84     0.093 A 
HETATM   15  NAZ   D T1357      -0.119  12.936   0.283  1.00 31.44    -0.150 NA
HETATM   16  NAW   D T1357       0.037  13.666  -0.773  1.00 33.50    -0.129 NA
BRANCH  14  17
HETATM   17  CAT   D T1357       1.112  12.393   2.419  1.00 28.27     0.138 C 
BRANCH  17  18
HETATM   18  CBB   D T1357       2.417  11.506   2.336  1.00 27.93     0.262 C 
HETATM   19  NAX   D T1357       3.480  12.178   2.827  1.00 27.49    -0.211 NA
HETATM   20  OAB   D T1357       2.332  10.302   2.037  1.00 33.48    -0.270 OA
BRANCH  19  21
HETATM   21  CBD   D T1357       4.812  11.751   2.742  1.00 31.17     0.087 A 
HETATM   22  CAK   D T1357       5.733  12.187   1.793  1.00 30.64     0.049 A 
HETATM   23  CBC   D T1357       7.024  11.731   1.831  1.00 33.42     0.142 A 
HETATM   24  FAD   D T1357       7.921  12.166   0.729  1.00 41.75    -0.204 F 
HETATM   25  CAG   D T1357       7.458  10.899   2.863  1.00 32.67     0.030 A 
HETATM   26  CAE   D T1357       6.589  10.524   3.872  1.00 32.69     0.004 A 
HETATM   27  CAH   D T1357       5.276  10.955   3.814  1.00 33.60     0.019 A 
ENDBRANCH  19  21
ENDBRANCH  17  18
ENDBRANCH  14  17
ENDBRANCH  11  12
ENDBRANCH   1  11
BRANCH  10  28
HETATM   28  OBA   D T1357       7.766  14.214  -3.678  1.00 26.67    -0.331 OA
BRANCH  28  29
HETATM   29  CAQ   D T1357       8.822  15.197  -3.736  1.00 28.69     0.151 C 
BRANCH  29  30
HETATM   30  CAP   D T1357       9.342  15.262  -5.154  1.00 36.88     0.068 C 
BRANCH  30  31
HETATM   31  CAS   D T1357       8.819  16.517  -5.820  1.00 45.24     0.253 C 
BRANCH  31  32
HETATM   32  NBK   D T1357       7.745  16.270  -6.829  1.00 52.30     0.140 N 
BRANCH  32  33
HETATM   33  CAO   D T1357       7.848  17.204  -7.970  1.00 59.56     0.250 C 
HETATM   34  CAA   D T1357       9.066  16.782  -8.818  1.00 58.25     0.037 C 
ENDBRANCH  32  33
BRANCH  32  35
HETATM   35  CAR   D T1357       6.321  16.192  -6.417  1.00 61.43     0.285 C 
BRANCH  35  36
HETATM   36  CAN   D T1357       5.458  17.373  -6.943  1.00 65.15     0.218 C 
HETATM   37  OAC   D T1357       4.389  16.645  -7.571  1.00 70.90    -0.218 OA
ENDBRANCH  35  36
ENDBRANCH  32  35
ENDBRANCH  31  32
ENDBRANCH  30  31
ENDBRANCH  29  30
ENDBRANCH  28  29
ENDBRANCH  10  28
TORSDOF 13
ENDMDL
MODEL 2
REMARK VINA RESULT:    -7.510      2.794      4.893
REMARK INTER + INTRA:         -15.218
REMARK INTER:                 -14.080
REMARK INTRA:                  -1.138
REMARK UNBOUND:                -2.000
REMARK  13 active torsions:
REMARK  status: ('A' for Active; 'I' for Inactive)
REMARK    1  A    between atoms: CBD_7  and  NAX_8 
REMARK       I    between atoms: NAX_8  and  CBB_9 
REMARK    2  A    between atoms: CBB_9  and  CAT_11 
REMARK    3  A    between atoms: CAT_11  and  CBE_12 
REMARK    4  A    between atoms: CBG_16  and  NAY_17 
REMARK    5  A    between atoms: NAY_17  and  C6_18 
REMARK    6  A    between atoms: CBF_27  and  OBA_28 
REMARK    7  A    between atoms: OBA_28  and  CAQ_29 
REMARK    8  A    between atoms: CAQ_29  and  CAP_30 
REMARK    9  A    between atoms: CAP_30  and  CAS_31 
REMARK   10  A    between atoms: CAS_31  and  NBK_32 
REMARK   11  A    between atoms: NBK_32  and  CAO_33 
REMARK   12  A    between atoms: NBK_32  and  CAR_35 
REMARK   13  A    between atoms: CAR_35  and  CAN_36 
ROOT
HETATM    1  C6    D T1357       6.673  14.836  -0.860  1.00 24.40     0.167 A 
HETATM    2  N1    D T1357       6.304  15.898  -0.064  1.00 22.79    -0.205 NA
HETATM    3  C2    D T1357       5.992  17.033  -0.650  1.00 21.83     0.200 A 
HETATM    4  N3    D T1357       5.891  17.317  -1.951  1.00 18.31    -0.224 NA
HETATM    5  C4    D T1357       6.232  16.298  -2.816  1.00 25.22     0.088 A 
HETATM    6  CAM   D T1357       6.241  16.593  -4.204  1.00 18.41     0.043 A 
HETATM    7  C5    D T1357       6.636  15.035  -2.280  1.00 24.34     0.054 A 
HETATM    8  CAJ   D T1357       6.965  14.086  -3.271  1.00 26.00     0.007 A 
HETATM    9  CAI   D T1357       6.937  14.358  -4.660  1.00 25.92     0.024 A 
HETATM   10  CBF   D T1357       6.526  15.624  -5.152  1.00 25.65     0.096 A 
ENDROOT
BRANCH   1  11
HETATM   11  NAY   D T1357       7.106  13.643  -0.299  1.00 27.01    -0.206 NA
BRANCH  11  12
HETATM   12  CBG   D T1357       6.519  13.026   0.807  1.00 29.06     0.186 A 
HETATM   13  CAL   D T1357       5.250  12.729   1.179  1.00 25.08     0.058 A 
HETATM   14  CBE   D T1357       5.346  12.142   2.421  1.00 25.84     0.093 A 
HETATM   15  NAZ   D T1357       6.611  12.094   2.780  1.00 31.44    -0.150 NA
HETATM   16  NAW   D T1357       7.305  12.635   1.832  1.00 33.50    -0.129 NA
BRANCH  14  17
HETATM   17  CAT   D T1357       4.195  11.616   3.333  1.00 28.27     0.138 C 
BRANCH  17  18
HETATM   18  CBB   D T1357       2.887  11.459   2.460  1.00 27.93     0.262 C 
HETATM   19  NAX   D T1357       2.505  12.654   1.959  1.00 27.49    -0.211 NA
HETATM   20  OAB   D T1357       2.466  10.326   2.168  1.00 33.48    -0.270 OA
BRANCH  19  21
HETATM   21  CBD   D T1357       1.297  12.898   1.292  1.00 31.17     0.087 A 
HETATM   22  CAK   D T1357       0.156  13.442   1.875  1.00 30.64     0.049 A 
HETATM   23  CBC   D T1357      -0.958  13.675   1.113  1.00 33.42     0.142 A 
HETATM   24  FAD   D T1357      -2.167  14.167   1.826  1.00 41.75    -0.204 F 
HETATM   25  CAG   D T1357      -0.941  13.456  -0.264  1.00 32.67     0.030 A 
HETATM   26  CAE   D T1357       0.208  13.004  -0.886  1.00 32.69     0.004 A 
HETATM   27  CAH   D T1357       1.323  12.734  -0.113  1.00 33.60     0.019 A 
ENDBRANCH  19  21
ENDBRANCH  17  18
ENDBRANCH  14  17
ENDBRANCH  11  12
ENDBRANCH   1  11
BRANCH  10  28
HETATM   28  OBA   D T1357       6.436  15.870  -6.501  1.00 26.67    -0.331 OA
BRANCH  28  29
HETATM   29  CAQ   D T1357       5.779  17.088  -6.911  1.00 28.69     0.151 C 
BRANCH  29  30
HETATM   30  CAP   D T1357       6.826  18.163  -7.091  1.00 36.88     0.068 C 
BRANCH  30  31
HETATM   31  CAS   D T1357       7.875  17.679  -8.070  1.00 45.24     0.253 C 
BRANCH  31  32
HETATM   32  NBK   D T1357       9.249  17.579  -7.491  1.00 52.30     0.140 N 
BRANCH  32  33
HETATM   33  CAO   D T1357       9.707  16.174  -7.426  1.00 59.56     0.250 C 
HETATM   34  CAA   D T1357       9.599  15.575  -8.843  1.00 58.25     0.037 C 
ENDBRANCH  32  33
BRANCH  32  35
HETATM   35  CAR   D T1357       9.579  18.238  -6.203  1.00 61.43     0.285 C 
BRANCH  35  36
HETATM   36  CAN   D T1357      10.225  19.640  -6.372  1.00 65.15     0.218 C 
HETATM   37  OAC   D T1357      10.999  19.421  -7.564  1.00 70.90    -0.218 OA
ENDBRANCH  35  36
ENDBRANCH  32  35
ENDBRANCH  31  32
ENDBRANCH  30  31
ENDBRANCH  29  30
ENDBRANCH  28  29
ENDBRANCH  10  28
TORSDOF 13
ENDMDL
MODEL 3
REMARK VINA RESULT:    -7.443      2.117      2.575
REMARK INTER + INTRA:         -15.099
REMARK INTER:                 -13.796
REMARK INTRA:                  -1.303
REMARK UNBOUND:                -2.000
REMARK  13 active torsions:
REMARK  status: ('A' for Active; 'I' for Inactive)
REMARK    1  A    between atoms: CBD_7  and  NAX_8 
REMARK       I    between atoms: NAX_8  and  CBB_9 
REMARK    2  A    between atoms: CBB_9  and  CAT_11 
REMARK    3  A    between atoms: CAT_11  and  CBE_12 
REMARK    4  A    between atoms: CBG_16  and  NAY_17 
REMARK    5  A    between atoms: NAY_17  and  C6_18 
REMARK    6  A    between atoms: CBF_27  and  OBA_28 
REMARK    7  A    between atoms: OBA_28  and  CAQ_29 
REMARK    8  A    between atoms: CAQ_29  and  CAP_30 
REMARK    9  A    between atoms: CAP_30  and  CAS_31 
REMARK   10  A    between atoms: CAS_31  and  NBK_32 
REMARK   11  A    between atoms: NBK_32  and  CAO_33 
REMARK   12  A    between atoms: NBK_32  and  CAR_35 
REMARK   13  A    between atoms: CAR_35  and  CAN_36 
ROOT
HETATM    1  C6    D T1357       2.685  14.506  -1.616  1.00 24.40     0.167 A 
HETATM    2  N1    D T1357       1.959  15.675  -1.691  1.00 22.79    -0.205 NA
HETATM    3  C2    D T1357       2.616  16.802  -1.858  1.00 21.83     0.200 A 
HETATM    4  N3    D T1357       3.921  17.003  -2.058  1.00 18.31    -0.224 NA
HETATM    5  C4    D T1357       4.715  15.876  -2.011  1.00 25.22     0.088 A 
HETATM    6  CAM   D T1357       6.119  16.060  -2.111  1.00 18.41     0.043 A 
HETATM    7  C5    D T1357       4.106  14.603  -1.783  1.00 24.34     0.054 A 
HETATM    8  CAJ   D T1357       5.032  13.538  -1.748  1.00 26.00     0.007 A 
HETATM    9  CAI   D T1357       6.430  13.706  -1.890  1.00 25.92     0.024 A 
HETATM   10  CBF   D T1357       6.995  14.987  -2.119  1.00 25.65     0.096 A 
ENDROOT
BRANCH   1  11
HETATM   11  NAY   D T1357       2.061  13.297  -1.343  1.00 27.01    -0.206 NA
BRANCH  11  12
HETATM   12  CBG   D T1357       1.950  12.729  -0.072  1.00 29.06     0.186 A 
HETATM   13  CAL   D T1357       2.304  11.544   0.483  1.00 25.08     0.058 A 
HETATM   14  CBE   D T1357       1.876  11.595   1.792  1.00 25.84     0.093 A 
HETATM   15  NAZ   D T1357       1.288  12.752   2.009  1.00 31.44    -0.150 NA
HETATM   16  NAW   D T1357       1.316  13.417   0.901  1.00 33.50    -0.129 NA
BRANCH  14  17
HETATM   17  CAT   D T1357       2.001  10.498   2.893  1.00 28.27     0.138 C 
BRANCH  17  18
HETATM   18  CBB   D T1357       3.524  10.347   3.288  1.00 27.93     0.262 C 
HETATM   19  NAX   D T1357       4.182  11.510   3.094  1.00 27.49    -0.211 NA
HETATM   20  OAB   D T1357       3.915   9.324   3.876  1.00 33.48    -0.270 OA
BRANCH  19  21
HETATM   21  CBD   D T1357       5.571  11.673   3.179  1.00 31.17     0.087 A 
HETATM   22  CAK   D T1357       6.430  10.853   3.907  1.00 30.64     0.049 A 
HETATM   23  CBC   D T1357       7.780  11.083   3.883  1.00 33.42     0.142 A 
HETATM   24  FAD   D T1357       8.621  10.227   4.761  1.00 41.75    -0.204 F 
HETATM   25  CAG   D T1357       8.322  12.077   3.069  1.00 32.67     0.030 A 
HETATM   26  CAE   D T1357       7.501  12.846   2.264  1.00 32.69     0.004 A 
HETATM   27  CAH   D T1357       6.135  12.638   2.314  1.00 33.60     0.019 A 
ENDBRANCH  19  21
ENDBRANCH  17  18
ENDBRANCH  14  17
ENDBRANCH  11  12
ENDBRANCH   1  11
BRANCH  10  28
HETATM   28  OBA   D T1357       8.345  15.145  -2.322  1.00 26.67    -0.331 OA
BRANCH  28  29
HETATM   29  CAQ   D T1357       8.761  16.151  -3.270  1.00 28.69     0.151 C 
BRANCH  29  30
HETATM   30  CAP   D T1357      10.239  15.981  -3.535  1.00 36.88     0.068 C 
BRANCH  30  31
HETATM   31  CAS   D T1357      10.488  16.031  -5.028  1.00 45.24     0.253 C 
BRANCH  31  32
HETATM   32  NBK   D T1357       9.867  17.207  -5.710  1.00 52.30     0.140 N 
BRANCH  32  33
HETATM   33  CAO   D T1357       9.433  16.869  -7.082  1.00 59.56     0.250 C 
HETATM   34  CAA   D T1357       8.507  15.637  -6.996  1.00 58.25     0.037 C 
ENDBRANCH  32  33
BRANCH  32  35
HETATM   35  CAR   D T1357      10.566  18.516  -5.751  1.00 61.43     0.285 C 
BRANCH  35  36
HETATM   36  CAN   D T1357      10.048  19.460  -6.870  1.00 65.15     0.218 C 
HETATM   37  OAC   D T1357      11.272  19.702  -7.585  1.00 70.90    -0.218 OA
ENDBRANCH  35  36
ENDBRANCH  32  35
ENDBRANCH  31  32
ENDBRANCH  30  31
ENDBRANCH  29  30
ENDBRANCH  28  29
ENDBRANCH  10  28
TORSDOF 13
ENDMDL
MODEL 4
REMARK VINA RESULT:    -7.388      3.031      9.296
REMARK INTER + INTRA:         -15.003
REMARK INTER:                 -13.185
REMARK INTRA:                  -1.818
REMARK UNBOUND:                -2.000
REMARK  13 active torsions:
REMARK  status: ('A' for Active; 'I' for Inactive)
REMARK    1  A    between atoms: CBD_7  and  NAX_8 
REMARK       I    between atoms: NAX_8  and  CBB_9 
REMARK    2  A    between atoms: CBB_9  and  CAT_11 
REMARK    3  A    between atoms: CAT_11  and  CBE_12 
REMARK    4  A    between atoms: CBG_16  and  NAY_17 
REMARK    5  A    between atoms: NAY_17  and  C6_18 
REMARK    6  A    between atoms: CBF_27  and  OBA_28 
REMARK    7  A    between atoms: OBA_28  and  CAQ_29 
REMARK    8  A    between atoms: CAQ_29  and  CAP_30 
REMARK    9  A    between atoms: CAP_30  and  CAS_31 
REMARK   10  A    between atoms: CAS_31  and  NBK_32 
REMARK   11  A    between atoms: NBK_32  and  CAO_33 
REMARK   12  A    between atoms: NBK_32  and  CAR_35 
REMARK   13  A    between atoms: CAR_35  and  CAN_36 
ROOT
HETATM    1  C6    D T1357       4.666  16.073  -3.431  1.00 24.40     0.167 A 
HETATM    2  N1    D T1357       4.292  17.399  -3.428  1.00 22.79    -0.205 NA
HETATM    3  C2    D T1357       3.222  17.740  -2.743  1.00 21.83     0.200 A 
HETATM    4  N3    D T1357       2.449  16.995  -1.949  1.00 18.31    -0.224 NA
HETATM    5  C4    D T1357       2.768  15.654  -1.888  1.00 25.22     0.088 A 
HETATM    6  CAM   D T1357       1.906  14.809  -1.140  1.00 18.41     0.043 A 
HETATM    7  C5    D T1357       3.885  15.169  -2.636  1.00 24.34     0.054 A 
HETATM    8  CAJ   D T1357       4.095  13.781  -2.493  1.00 26.00     0.007 A 
HETATM    9  CAI   D T1357       3.266  12.937  -1.715  1.00 25.92     0.024 A 
HETATM   10  CBF   D T1357       2.168  13.459  -0.984  1.00 25.65     0.096 A 
ENDROOT
BRANCH   1  11
HETATM   11  NAY   D T1357       5.726  15.635  -4.210  1.00 27.01    -0.206 NA
BRANCH  11  12
HETATM   12  CBG   D T1357       6.331  16.383  -5.223  1.00 29.06     0.186 A 
HETATM   13  CAL   D T1357       7.393  17.222  -5.290  1.00 25.08     0.058 A 
HETATM   14  CBE   D T1357       7.440  17.669  -6.593  1.00 25.84     0.093 A 
HETATM   15  NAZ   D T1357       6.451  17.130  -7.271  1.00 31.44    -0.150 NA
HETATM   16  NAW   D T1357       5.782  16.381  -6.456  1.00 33.50    -0.129 NA
BRANCH  14  17
HETATM   17  CAT   D T1357       8.450  18.671  -7.234  1.00 28.27     0.138 C 
BRANCH  17  18
HETATM   18  CBB   D T1357       9.909  18.080  -7.096  1.00 27.93     0.262 C 
HETATM   19  NAX   D T1357       9.899  16.742  -7.280  1.00 27.49    -0.211 NA
HETATM   20  OAB   D T1357      10.886  18.846  -7.031  1.00 33.48    -0.270 OA
BRANCH  19  21
HETATM   21  CBD   D T1357      10.988  15.890  -7.055  1.00 31.17     0.087 A 
HETATM   22  CAK   D T1357      11.955  15.559  -8.001  1.00 30.64     0.049 A 
HETATM   23  CBC   D T1357      13.002  14.746  -7.655  1.00 33.42     0.142 A 
HETATM   24  FAD   D T1357      13.938  14.360  -8.744  1.00 41.75    -0.204 F 
HETATM   25  CAG   D T1357      13.165  14.312  -6.340  1.00 32.67     0.030 A 
HETATM   26  CAE   D T1357      12.272  14.702  -5.358  1.00 32.69     0.004 A 
HETATM   27  CAH   D T1357      11.195  15.493  -5.714  1.00 33.60     0.019 A 
ENDBRANCH  19  21
ENDBRANCH  17  18
ENDBRANCH  14  17
ENDBRANCH  11  12
ENDBRANCH   1  11
BRANCH  10  28
HETATM   28  OBA   D T1357       1.401  12.653  -0.177  1.00 26.67    -0.331 OA
BRANCH  28  29
HETATM   29  CAQ   D T1357       2.092  11.818   0.777  1.00 28.69     0.151 C 
BRANCH  29  30
HETATM   30  CAP   D T1357       2.779  12.708   1.787  1.00 36.88     0.068 C 
BRANCH  30  31
HETATM   31  CAS   D T1357       4.112  12.097   2.166  1.00 45.24     0.253 C 
BRANCH  31  32
HETATM   32  NBK   D T1357       5.253  12.546   1.313  1.00 52.30     0.140 N 
BRANCH  32  33
HETATM   33  CAO   D T1357       6.514  11.877   1.700  1.00 59.56     0.250 C 
HETATM   34  CAA   D T1357       6.481  11.652   3.226  1.00 58.25     0.037 C 
ENDBRANCH  32  33
BRANCH  32  35
HETATM   35  CAR   D T1357       5.532  13.992   1.120  1.00 61.43     0.285 C 
BRANCH  35  36
HETATM   36  CAN   D T1357       6.908  14.274   0.456  1.00 65.15     0.218 C 
HETATM   37  OAC   D T1357       6.545  15.344  -0.434  1.00 70.90    -0.218 OA
ENDBRANCH  35  36
ENDBRANCH  32  35
ENDBRANCH  31  32
ENDBRANCH  30  31
ENDBRANCH  29  30
ENDBRANCH  28  29
ENDBRANCH  10  28
TORSDOF 13
ENDMDL
MODEL 5
REMARK VINA RESULT:    -7.312      1.857      3.036
REMARK INTER + INTRA:         -14.869
REMARK INTER:                 -13.248
REMARK INTRA:                  -1.621
REMARK UNBOUND:                -2.000
REMARK  13 active torsions:
REMARK  status: ('A' for Active; 'I' for Inactive)
REMARK    1  A    between atoms: CBD_7  and  NAX_8 
REMARK       I    between atoms: NAX_8  and  CBB_9 
REMARK    2  A    between atoms: CBB_9  and  CAT_11 
REMARK    3  A    between atoms: CAT_11  and  CBE_12 
REMARK    4  A    between atoms: CBG_16  and  NAY_17 
REMARK    5  A    between atoms: NAY_17  and  C6_18 
REMARK    6  A    between atoms: CBF_27  and  OBA_28 
REMARK    7  A    between atoms: OBA_28  and  CAQ_29 
REMARK    8  A    between atoms: CAQ_29  and  CAP_30 
REMARK    9  A    between atoms: CAP_30  and  CAS_31 
REMARK   10  A    between atoms: CAS_31  and  NBK_32 
REMARK   11  A    between atoms: NBK_32  and  CAO_33 
REMARK   12  A    between atoms: NBK_32  and  CAR_35 
REMARK   13  A    between atoms: CAR_35  and  CAN_36 
ROOT
HETATM    1  C6    D T1357       2.491  16.121  -1.791  1.00 24.40     0.167 A 
HETATM    2  N1    D T1357       2.248  17.393  -1.320  1.00 22.79    -0.205 NA
HETATM    3  C2    D T1357       3.236  18.260  -1.338  1.00 21.83     0.200 A 
HETATM    4  N3    D T1357       4.470  18.132  -1.834  1.00 18.31    -0.224 NA
HETATM    5  C4    D T1357       4.787  16.887  -2.337  1.00 25.22     0.088 A 
HETATM    6  CAM   D T1357       6.121  16.679  -2.776  1.00 18.41     0.043 A 
HETATM    7  C5    D T1357       3.799  15.855  -2.319  1.00 24.34     0.054 A 
HETATM    8  CAJ   D T1357       4.256  14.632  -2.855  1.00 26.00     0.007 A 
HETATM    9  CAI   D T1357       5.572  14.427  -3.333  1.00 25.92     0.024 A 
HETATM   10  CBF   D T1357       6.523  15.479  -3.338  1.00 25.65     0.096 A 
ENDROOT
BRANCH   1  11
HETATM   11  NAY   D T1357       1.520  15.133  -1.709  1.00 27.01    -0.206 NA
BRANCH  11  12
HETATM   12  CBG   D T1357       1.504  14.112  -0.757  1.00 29.06     0.186 A 
HETATM   13  CAL   D T1357       1.429  14.063   0.595  1.00 25.08     0.058 A 
HETATM   14  CBE   D T1357       1.498  12.728   0.931  1.00 25.84     0.093 A 
HETATM   15  NAZ   D T1357       1.615  12.012  -0.167  1.00 31.44    -0.150 NA
HETATM   16  NAW   D T1357       1.638  12.833  -1.166  1.00 33.50    -0.129 NA
BRANCH  14  17
HETATM   17  CAT   D T1357       1.475  12.086   2.352  1.00 28.27     0.138 C 
BRANCH  17  18
HETATM   18  CBB   D T1357       2.857  11.365   2.607  1.00 27.93     0.262 C 
HETATM   19  NAX   D T1357       3.872  12.255   2.563  1.00 27.49    -0.211 NA
HETATM   20  OAB   D T1357       2.880  10.182   2.987  1.00 33.48    -0.270 OA
BRANCH  19  21
HETATM   21  CBD   D T1357       5.233  11.924   2.574  1.00 31.17     0.087 A 
HETATM   22  CAK   D T1357       5.881  11.231   3.594  1.00 30.64     0.049 A 
HETATM   23  CBC   D T1357       7.211  10.927   3.478  1.00 33.42     0.142 A 
HETATM   24  FAD   D T1357       7.853  10.271   4.648  1.00 41.75    -0.204 F 
HETATM   25  CAG   D T1357       7.913  11.224   2.310  1.00 32.67     0.030 A 
HETATM   26  CAE   D T1357       7.273  11.828   1.244  1.00 32.69     0.004 A 
HETATM   27  CAH   D T1357       5.939  12.169   1.374  1.00 33.60     0.019 A 
ENDBRANCH  19  21
ENDBRANCH  17  18
ENDBRANCH  14  17
ENDBRANCH  11  12
ENDBRANCH   1  11
BRANCH  10  28
HETATM   28  OBA   D T1357       7.782  15.301  -3.861  1.00 26.67    -0.331 OA
BRANCH  28  29
HETATM   29  CAQ   D T1357       7.875  14.925  -5.252  1.00 28.69     0.151 C 
BRANCH  29  30
HETATM   30  CAP   D T1357       9.116  15.556  -5.839  1.00 36.88     0.068 C 
BRANCH  30  31
HETATM   31  CAS   D T1357      10.334  15.049  -5.096  1.00 45.24     0.253 C 
BRANCH  31  32
HETATM   32  NBK   D T1357      11.510  15.969  -5.153  1.00 52.30     0.140 N 
BRANCH  32  33
HETATM   33  CAO   D T1357      12.558  15.452  -6.059  1.00 59.56     0.250 C 
HETATM   34  CAA   D T1357      13.038  14.096  -5.501  1.00 58.25     0.037 C 
ENDBRANCH  32  33
BRANCH  32  35
HETATM   35  CAR   D T1357      12.163  16.445  -3.907  1.00 61.43     0.285 C 
BRANCH  35  36
HETATM   36  CAN   D T1357      11.432  15.992  -2.614  1.00 65.15     0.218 C 
HETATM   37  OAC   D T1357      12.372  15.024  -2.117  1.00 70.90    -0.218 OA
ENDBRANCH  35  36
ENDBRANCH  32  35
ENDBRANCH  31  32
ENDBRANCH  30  31
ENDBRANCH  29  30
ENDBRANCH  28  29
ENDBRANCH  10  28
TORSDOF 13
ENDMDL
MODEL 6
REMARK VINA RESULT:    -7.311      2.870      5.175
REMARK INTER + INTRA:         -14.866
REMARK INTER:                 -13.518
REMARK INTRA:                  -1.348
REMARK UNBOUND:                -2.000
REMARK  13 active torsions:
REMARK  status: ('A' for Active; 'I' for Inactive)
REMARK    1  A    between atoms: CBD_7  and  NAX_8 
REMARK       I    between atoms: NAX_8  and  CBB_9 
REMARK    2  A    between atoms: CBB_9  and  CAT_11 
REMARK    3  A    between atoms: CAT_11  and  CBE_12 
REMARK    4  A    between atoms: CBG_16  and  NAY_17 
REMARK    5  A    between atoms: NAY_17  and  C6_18 
REMARK    6  A    between atoms: CBF_27  and  OBA_28 
REMARK    7  A    between atoms: OBA_28  and  CAQ_29 
REMARK    8  A    between atoms: CAQ_29  and  CAP_30 
REMARK    9  A    between atoms: CAP_30  and  CAS_31 
REMARK   10  A    between atoms: CAS_31  and  NBK_32 
REMARK   11  A    between atoms: NBK_32  and  CAO_33 
REMARK   12  A    between atoms: NBK_32  and  CAR_35 
REMARK   13  A    between atoms: CAR_35  and  CAN_36 
ROOT
HETATM    1  C6    D T1357       4.969  17.411  -2.434  1.00 24.40     0.167 A 
HETATM    2  N1    D T1357       3.705  17.944  -2.310  1.00 22.79    -0.205 NA
HETATM    3  C2    D T1357       3.107  18.380  -3.397  1.00 21.83     0.200 A 
HETATM    4  N3    D T1357       3.506  18.316  -4.670  1.00 18.31    -0.224 NA
HETATM    5  C4    D T1357       4.761  17.782  -4.879  1.00 25.22     0.088 A 
HETATM    6  CAM   D T1357       5.266  17.795  -6.205  1.00 18.41     0.043 A 
HETATM    7  C5    D T1357       5.519  17.323  -3.757  1.00 24.34     0.054 A 
HETATM    8  CAJ   D T1357       6.785  16.810  -4.108  1.00 26.00     0.007 A 
HETATM    9  CAI   D T1357       7.281  16.780  -5.434  1.00 25.92     0.024 A 
HETATM   10  CBF   D T1357       6.495  17.241  -6.521  1.00 25.65     0.096 A 
ENDROOT
BRANCH   1  11
HETATM   11  NAY   D T1357       5.691  17.024  -1.314  1.00 27.01    -0.206 NA
BRANCH  11  12
HETATM   12  CBG   D T1357       5.627  15.759  -0.726  1.00 29.06     0.186 A 
HETATM   13  CAL   D T1357       4.918  14.628  -0.959  1.00 25.08     0.058 A 
HETATM   14  CBE   D T1357       5.299  13.733   0.016  1.00 25.84     0.093 A 
HETATM   15  NAZ   D T1357       6.189  14.302   0.800  1.00 31.44    -0.150 NA
HETATM   16  NAW   D T1357       6.370  15.509   0.373  1.00 33.50    -0.129 NA
BRANCH  14  17
HETATM   17  CAT   D T1357       4.791  12.276   0.243  1.00 28.27     0.138 C 
BRANCH  17  18
HETATM   18  CBB   D T1357       3.397  12.334   0.985  1.00 27.93     0.262 C 
HETATM   19  NAX   D T1357       2.412  12.657   0.119  1.00 27.49    -0.211 NA
HETATM   20  OAB   D T1357       3.297  11.923   2.154  1.00 33.48    -0.270 OA
BRANCH  19  21
HETATM   21  CBD   D T1357       1.092  12.961   0.478  1.00 31.17     0.087 A 
HETATM   22  CAK   D T1357       0.689  13.417   1.731  1.00 30.64     0.049 A 
HETATM   23  CBC   D T1357      -0.627  13.723   1.957  1.00 33.42     0.142 A 
HETATM   24  FAD   D T1357      -0.996  14.110   3.345  1.00 41.75    -0.204 F 
HETATM   25  CAG   D T1357      -1.561  13.670   0.923  1.00 32.67     0.030 A 
HETATM   26  CAE   D T1357      -1.172  13.311  -0.354  1.00 32.69     0.004 A 
HETATM   27  CAH   D T1357       0.150  12.967  -0.575  1.00 33.60     0.019 A 
ENDBRANCH  19  21
ENDBRANCH  17  18
ENDBRANCH  14  17
ENDBRANCH  11  12
ENDBRANCH   1  11
BRANCH  10  28
HETATM   28  OBA   D T1357       6.948  17.153  -7.816  1.00 26.67    -0.331 OA
BRANCH  28  29
HETATM   29  CAQ   D T1357       8.233  17.741  -8.111  1.00 28.69     0.151 C 
BRANCH  29  30
HETATM   30  CAP   D T1357       9.015  16.781  -8.978  1.00 36.88     0.068 C 
BRANCH  30  31
HETATM   31  CAS   D T1357       9.864  15.890  -8.096  1.00 45.24     0.253 C 
BRANCH  31  32
HETATM   32  NBK   D T1357      11.025  16.586  -7.465  1.00 52.30     0.140 N 
BRANCH  32  33
HETATM   33  CAO   D T1357      12.310  16.098  -8.010  1.00 59.56     0.250 C 
HETATM   34  CAA   D T1357      12.766  14.902  -7.149  1.00 58.25     0.037 C 
ENDBRANCH  32  33
BRANCH  32  35
HETATM   35  CAR   D T1357      11.147  16.669  -5.987  1.00 61.43     0.285 C 
BRANCH  35  36
HETATM   36  CAN   D T1357      10.929  18.102  -5.428  1.00 65.15     0.218 C 
HETATM   37  OAC   D T1357      12.294  18.534  -5.298  1.00 70.90    -0.218 OA
ENDBRANCH  35  36
ENDBRANCH  32  35
ENDBRANCH  31  32
ENDBRANCH  30  31
ENDBRANCH  29  30
ENDBRANCH  28  29
ENDBRANCH  10  28
TORSDOF 13
ENDMDL
MODEL 7
REMARK VINA RESULT:    -7.282      2.716      4.284
REMARK INTER + INTRA:         -14.816
REMARK INTER:                 -12.783
REMARK INTRA:                  -2.033
REMARK UNBOUND:                -2.000
REMARK  13 active torsions:
REMARK  status: ('A' for Active; 'I' for Inactive)
REMARK    1  A    between atoms: CBD_7  and  NAX_8 
REMARK       I    between atoms: NAX_8  and  CBB_9 
REMARK    2  A    between atoms: CBB_9  and  CAT_11 
REMARK    3  A    between atoms: CAT_11  and  CBE_12 
REMARK    4  A    between atoms: CBG_16  and  NAY_17 
REMARK    5  A    between atoms: NAY_17  and  C6_18 
REMARK    6  A    between atoms: CBF_27  and  OBA_28 
REMARK    7  A    between atoms: OBA_28  and  CAQ_29 
REMARK    8  A    between atoms: CAQ_29  and  CAP_30 
REMARK    9  A    between atoms: CAP_30  and  CAS_31 
REMARK   10  A    between atoms: CAS_31  and  NBK_32 
REMARK   11  A    between atoms: NBK_32  and  CAO_33 
REMARK   12  A    between atoms: NBK_32  and  CAR_35 
REMARK   13  A    between atoms: CAR_35  and  CAN_36 
ROOT
HETATM    1  C6    D T1357       6.739  16.909  -2.954  1.00 24.40     0.167 A 
HETATM    2  N1    D T1357       7.502  16.703  -1.825  1.00 22.79    -0.205 NA
HETATM    3  C2    D T1357       8.692  16.164  -1.971  1.00 21.83     0.200 A 
HETATM    4  N3    D T1357       9.348  15.843  -3.090  1.00 18.31    -0.224 NA
HETATM    5  C4    D T1357       8.654  16.032  -4.267  1.00 25.22     0.088 A 
HETATM    6  CAM   D T1357       9.275  15.603  -5.469  1.00 18.41     0.043 A 
HETATM    7  C5    D T1357       7.329  16.567  -4.217  1.00 24.34     0.054 A 
HETATM    8  CAJ   D T1357       6.731  16.701  -5.488  1.00 26.00     0.007 A 
HETATM    9  CAI   D T1357       7.358  16.315  -6.696  1.00 25.92     0.024 A 
HETATM   10  CBF   D T1357       8.677  15.792  -6.704  1.00 25.65     0.096 A 
ENDROOT
BRANCH   1  11
HETATM   11  NAY   D T1357       5.439  17.382  -2.858  1.00 27.01    -0.206 NA
BRANCH  11  12
HETATM   12  CBG   D T1357       4.365  16.656  -2.340  1.00 29.06     0.186 A 
HETATM   13  CAL   D T1357       4.181  15.377  -1.930  1.00 25.08     0.058 A 
HETATM   14  CBE   D T1357       2.858  15.286  -1.556  1.00 25.84     0.093 A 
HETATM   15  NAZ   D T1357       2.275  16.451  -1.738  1.00 31.44    -0.150 NA
HETATM   16  NAW   D T1357       3.163  17.259  -2.220  1.00 33.50    -0.129 NA
BRANCH  14  17
HETATM   17  CAT   D T1357       2.090  14.039  -1.019  1.00 28.27     0.138 C 
BRANCH  17  18
HETATM   18  CBB   D T1357       3.126  13.058  -0.338  1.00 27.93     0.262 C 
HETATM   19  NAX   D T1357       3.093  13.192   1.005  1.00 27.49    -0.211 NA
HETATM   20  OAB   D T1357       3.693  12.184  -1.017  1.00 33.48    -0.270 OA
BRANCH  19  21
HETATM   21  CBD   D T1357       4.001  12.602   1.895  1.00 31.17     0.087 A 
HETATM   22  CAK   D T1357       3.698  11.572   2.782  1.00 30.64     0.049 A 
HETATM   23  CBC   D T1357       4.679  11.043   3.578  1.00 33.42     0.142 A 
HETATM   24  FAD   D T1357       4.258  10.015   4.566  1.00 41.75    -0.204 F 
HETATM   25  CAG   D T1357       6.004  11.461   3.453  1.00 32.67     0.030 A 
HETATM   26  CAE   D T1357       6.350  12.417   2.516  1.00 32.69     0.004 A 
HETATM   27  CAH   D T1357       5.355  12.977   1.736  1.00 33.60     0.019 A 
ENDBRANCH  19  21
ENDBRANCH  17  18
ENDBRANCH  14  17
ENDBRANCH  11  12
ENDBRANCH   1  11
BRANCH  10  28
HETATM   28  OBA   D T1357       9.313  15.477  -7.881  1.00 26.67    -0.331 OA
BRANCH  28  29
HETATM   29  CAQ   D T1357      10.641  16.007  -8.081  1.00 28.69     0.151 C 
BRANCH  29  30
HETATM   30  CAP   D T1357      10.556  17.516  -8.120  1.00 36.88     0.068 C 
BRANCH  30  31
HETATM   31  CAS   D T1357      11.680  18.100  -7.289  1.00 45.24     0.253 C 
BRANCH  31  32
HETATM   32  NBK   D T1357      11.219  19.001  -6.190  1.00 52.30     0.140 N 
BRANCH  32  33
HETATM   33  CAO   D T1357      11.800  18.605  -4.888  1.00 59.56     0.250 C 
HETATM   34  CAA   D T1357      12.652  17.339  -5.115  1.00 58.25     0.037 C 
ENDBRANCH  32  33
BRANCH  32  35
HETATM   35  CAR   D T1357       9.774  19.278  -5.991  1.00 61.43     0.285 C 
BRANCH  35  36
HETATM   36  CAN   D T1357       9.421  20.790  -6.039  1.00 65.15     0.218 C 
HETATM   37  OAC   D T1357       9.938  21.130  -7.337  1.00 70.90    -0.218 OA
ENDBRANCH  35  36
ENDBRANCH  32  35
ENDBRANCH  31  32
ENDBRANCH  30  31
ENDBRANCH  29  30
ENDBRANCH  28  29
ENDBRANCH  10  28
TORSDOF 13
ENDMDL
MODEL 8
REMARK VINA RESULT:    -7.230      3.035      5.023
REMARK INTER + INTRA:         -14.725
REMARK INTER:                 -13.349
REMARK INTRA:                  -1.376
REMARK UNBOUND:                -2.000
REMARK  13 active torsions:
REMARK  status: ('A' for Active; 'I' for Inactive)
REMARK    1  A    between atoms: CBD_7  and  NAX_8 
REMARK       I    between atoms: NAX_8  and  CBB_9 
REMARK    2  A    between atoms: CBB_9  and  CAT_11 
REMARK    3  A    between atoms: CAT_11  and  CBE_12 
REMARK    4  A    between atoms: CBG_16  and  NAY_17 
REMARK    5  A    between atoms: NAY_17  and  C6_18 
REMARK    6  A    between atoms: CBF_27  and  OBA_28 
REMARK    7  A    between atoms: OBA_28  and  CAQ_29 
REMARK    8  A    between atoms: CAQ_29  and  CAP_30 
REMARK    9  A    between atoms: CAP_30  and  CAS_31 
REMARK   10  A    between atoms: CAS_31  and  NBK_32 
REMARK   11  A    between atoms: NBK_32  and  CAO_33 
REMARK   12  A    between atoms: NBK_32  and  CAR_35 
REMARK   13  A    between atoms: CAR_35  and  CAN_36 
ROOT
HETATM    1  C6    D T1357       6.184  14.761  -2.249  1.00 24.40     0.167 A 
HETATM    2  N1    D T1357       4.975  15.310  -1.881  1.00 22.79    -0.205 NA
HETATM    3  C2    D T1357       4.397  16.149  -2.711  1.00 21.83     0.200 A 
HETATM    4  N3    D T1357       4.763  16.512  -3.943  1.00 18.31    -0.224 NA
HETATM    5  C4    D T1357       5.960  15.994  -4.390  1.00 25.22     0.088 A 
HETATM    6  CAM   D T1357       6.437  16.441  -5.651  1.00 18.41     0.043 A 
HETATM    7  C5    D T1357       6.696  15.109  -3.543  1.00 24.34     0.054 A 
HETATM    8  CAJ   D T1357       7.904  14.659  -4.118  1.00 26.00     0.007 A 
HETATM    9  CAI   D T1357       8.368  15.066  -5.391  1.00 25.92     0.024 A 
HETATM   10  CBF   D T1357       7.605  15.943  -6.204  1.00 25.65     0.096 A 
ENDROOT
BRANCH   1  11
HETATM   11  NAY   D T1357       6.891  13.946  -1.376  1.00 27.01    -0.206 NA
BRANCH  11  12
HETATM   12  CBG   D T1357       6.461  13.591  -0.096  1.00 29.06     0.186 A 
HETATM   13  CAL   D T1357       5.845  12.511   0.443  1.00 25.08     0.058 A 
HETATM   14  CBE   D T1357       5.664  12.804   1.777  1.00 25.84     0.093 A 
HETATM   15  NAZ   D T1357       6.143  14.004   2.024  1.00 31.44    -0.150 NA
HETATM   16  NAW   D T1357       6.598  14.479   0.911  1.00 33.50    -0.129 NA
BRANCH  14  17
HETATM   17  CAT   D T1357       4.990  11.926   2.876  1.00 28.27     0.138 C 
BRANCH  17  18
HETATM   18  CBB   D T1357       3.463  11.743   2.513  1.00 27.93     0.262 C 
HETATM   19  NAX   D T1357       3.080  12.657   1.596  1.00 27.49    -0.211 NA
HETATM   20  OAB   D T1357       2.844  10.742   2.915  1.00 33.48    -0.270 OA
BRANCH  19  21
HETATM   21  CBD   D T1357       1.758  12.884   1.189  1.00 31.17     0.087 A 
HETATM   22  CAK   D T1357       0.744  13.382   2.003  1.00 30.64     0.049 A 
HETATM   23  CBC   D T1357      -0.504  13.603   1.484  1.00 33.42     0.142 A 
HETATM   24  FAD   D T1357      -1.557  14.043   2.438  1.00 41.75    -0.204 F 
HETATM   25  CAG   D T1357      -0.757  13.418   0.125  1.00 32.67     0.030 A 
HETATM   26  CAE   D T1357       0.256  13.013  -0.725  1.00 32.69     0.004 A 
HETATM   27  CAH   D T1357       1.507  12.756  -0.196  1.00 33.60     0.019 A 
ENDBRANCH  19  21
ENDBRANCH  17  18
ENDBRANCH  14  17
ENDBRANCH  11  12
ENDBRANCH   1  11
BRANCH  10  28
HETATM   28  OBA   D T1357       8.022  16.289  -7.467  1.00 26.67    -0.331 OA
BRANCH  28  29
HETATM   29  CAQ   D T1357       9.277  15.742  -7.924  1.00 28.69     0.151 C 
BRANCH  29  30
HETATM   30  CAP   D T1357      10.265  16.875  -8.086  1.00 36.88     0.068 C 
BRANCH  30  31
HETATM   31  CAS   D T1357       9.577  18.187  -7.770  1.00 45.24     0.253 C 
BRANCH  31  32
HETATM   32  NBK   D T1357      10.337  19.062  -6.827  1.00 52.30     0.140 N 
BRANCH  32  33
HETATM   33  CAO   D T1357       9.545  19.368  -5.617  1.00 59.56     0.250 C 
HETATM   34  CAA   D T1357       9.959  18.370  -4.516  1.00 58.25     0.037 C 
ENDBRANCH  32  33
BRANCH  32  35
HETATM   35  CAR   D T1357      10.969  20.319  -7.302  1.00 61.43     0.285 C 
BRANCH  35  36
HETATM   36  CAN   D T1357      10.267  21.601  -6.779  1.00 65.15     0.218 C 
HETATM   37  OAC   D T1357       9.540  21.991  -7.957  1.00 70.90    -0.218 OA
ENDBRANCH  35  36
ENDBRANCH  32  35
ENDBRANCH  31  32
ENDBRANCH  30  31
ENDBRANCH  29  30
ENDBRANCH  28  29
ENDBRANCH  10  28
TORSDOF 13
ENDMDL
MODEL 9
REMARK VINA RESULT:    -7.086      3.415      9.620
REMARK INTER + INTRA:         -14.470
REMARK INTER:                 -12.997
REMARK INTRA:                  -1.473
REMARK UNBOUND:                -2.000
REMARK  13 active torsions:
REMARK  status: ('A' for Active; 'I' for Inactive)
REMARK    1  A    between atoms: CBD_7  and  NAX_8 
REMARK       I    between atoms: NAX_8  and  CBB_9 
REMARK    2  A    between atoms: CBB_9  and  CAT_11 
REMARK    3  A    between atoms: CAT_11  and  CBE_12 
REMARK    4  A    between atoms: CBG_16  and  NAY_17 
REMARK    5  A    between atoms: NAY_17  and  C6_18 
REMARK    6  A    between atoms: CBF_27  and  OBA_28 
REMARK    7  A    between atoms: OBA_28  and  CAQ_29 
REMARK    8  A    between atoms: CAQ_29  and  CAP_30 
REMARK    9  A    between atoms: CAP_30  and  CAS_31 
REMARK   10  A    between atoms: CAS_31  and  NBK_32 
REMARK   11  A    between atoms: NBK_32  and  CAO_33 
REMARK   12  A    between atoms: NBK_32  and  CAR_35 
REMARK   13  A    between atoms: CAR_35  and  CAN_36 
ROOT
HETATM    1  C6    D T1357       4.480  15.467  -1.607  1.00 24.40     0.167 A 
HETATM    2  N1    D T1357       3.354  14.881  -2.143  1.00 22.79    -0.205 NA
HETATM    3  C2    D T1357       3.002  13.694  -1.699  1.00 21.83     0.200 A 
HETATM    4  N3    D T1357       3.531  12.965  -0.714  1.00 18.31    -0.224 NA
HETATM    5  C4    D T1357       4.657  13.491  -0.116  1.00 25.22     0.088 A 
HETATM    6  CAM   D T1357       5.312  12.697   0.862  1.00 18.41     0.043 A 
HETATM    7  C5    D T1357       5.155  14.756  -0.559  1.00 24.34     0.054 A 
HETATM    8  CAJ   D T1357       6.315  15.174   0.129  1.00 26.00     0.007 A 
HETATM    9  CAI   D T1357       6.950  14.408   1.135  1.00 25.92     0.024 A 
HETATM   10  CBF   D T1357       6.422  13.158   1.549  1.00 25.65     0.096 A 
ENDROOT
BRANCH   1  11
HETATM   11  NAY   D T1357       4.959  16.672  -2.100  1.00 27.01    -0.206 NA
BRANCH  11  12
HETATM   12  CBG   D T1357       5.110  16.972  -3.455  1.00 29.06     0.186 A 
HETATM   13  CAL   D T1357       6.044  16.701  -4.399  1.00 25.08     0.058 A 
HETATM   14  CBE   D T1357       5.613  17.325  -5.549  1.00 25.84     0.093 A 
HETATM   15  NAZ   D T1357       4.479  17.945  -5.306  1.00 31.44    -0.150 NA
HETATM   16  NAW   D T1357       4.189  17.752  -4.060  1.00 33.50    -0.129 NA
BRANCH  14  17
HETATM   17  CAT   D T1357       6.307  17.362  -6.946  1.00 28.27     0.138 C 
BRANCH  17  18
HETATM   18  CBB   D T1357       7.873  17.355  -6.735  1.00 27.93     0.262 C 
HETATM   19  NAX   D T1357       8.390  16.150  -7.060  1.00 27.49    -0.211 NA
HETATM   20  OAB   D T1357       8.474  18.418  -6.499  1.00 33.48    -0.270 OA
BRANCH  19  21
HETATM   21  CBD   D T1357       9.713  15.752  -6.825  1.00 31.17     0.087 A 
HETATM   22  CAK   D T1357      10.749  15.828  -7.752  1.00 30.64     0.049 A 
HETATM   23  CBC   D T1357      12.016  15.447  -7.397  1.00 33.42     0.142 A 
HETATM   24  FAD   D T1357      13.046  15.466  -8.469  1.00 41.75    -0.204 F 
HETATM   25  CAG   D T1357      12.306  15.065  -6.088  1.00 32.67     0.030 A 
HETATM   26  CAE   D T1357      11.317  15.069  -5.122  1.00 32.69     0.004 A 
HETATM   27  CAH   D T1357      10.030  15.419  -5.488  1.00 33.60     0.019 A 
ENDBRANCH  19  21
ENDBRANCH  17  18
ENDBRANCH  14  17
ENDBRANCH  11  12
ENDBRANCH   1  11
BRANCH  10  28
HETATM   28  OBA   D T1357       7.001  12.443   2.571  1.00 26.67    -0.331 OA
BRANCH  28  29
HETATM   29  CAQ   D T1357       6.190  11.442   3.221  1.00 28.69     0.151 C 
BRANCH  29  30
HETATM   30  CAP   D T1357       7.057  10.678   4.196  1.00 36.88     0.068 C 
BRANCH  30  31
HETATM   31  CAS   D T1357       8.496  11.125   4.039  1.00 45.24     0.253 C 
BRANCH  31  32
HETATM   32  NBK   D T1357       9.479  10.001   3.973  1.00 52.30     0.140 N 
BRANCH  32  33
HETATM   33  CAO   D T1357       9.601   9.312   5.276  1.00 59.56     0.250 C 
HETATM   34  CAA   D T1357      10.616  10.096   6.133  1.00 58.25     0.037 C 
ENDBRANCH  32  33
BRANCH  32  35
HETATM   35  CAR   D T1357      10.844  10.219   3.431  1.00 61.43     0.285 C 
BRANCH  35  36
HETATM   36  CAN   D T1357      10.968  11.499   2.561  1.00 65.15     0.218 C 
HETATM   37  OAC   D T1357      11.135  10.907   1.261  1.00 70.90    -0.218 OA
ENDBRANCH  35  36
ENDBRANCH  32  35
ENDBRANCH  31  32
ENDBRANCH  30  31
ENDBRANCH  29  30
ENDBRANCH  28  29
ENDBRANCH  10  28
TORSDOF 13
ENDMDL
