MODEL 1
REMARK VINA RESULT:    -7.801      0.000      0.000
REMARK INTER + INTRA:         -15.442
REMARK INTER:                 -13.730
REMARK INTRA:                  -1.712
REMARK UNBOUND:                -1.712
REMARK  13 active torsions:
REMARK  status: ('A' for Active; 'I' for Inactive)
REMARK    1  A    between atoms: CBD_7  and  NAX_8 
REMARK       I    between atoms: NAX_8  and  CBB_9 
REMARK    2  A    between atoms: CBB_9  and  CAT_11 
REMARK    3  A    between atoms: CAT_11  and  CBE_12 
REMARK    4  A    between atoms: CBG_16  and  NAY_17 
REMARK    5  A    between atoms: NAY_17  and  C6_18 
REMARK    6  A    between atoms: CBF_27  and  OBA_28 
REMARK    7  A    between atoms: OBA_28  and  CAQ_29 
REMARK    8  A    between atoms: CAQ_29  and  CAP_30 
REMARK    9  A    between atoms: CAP_30  and  CAS_31 
REMARK   10  A    between atoms: CAS_31  and  NBK_32 
REMARK   11  A    between atoms: NBK_32  and  CAO_33 
REMARK   12  A    between atoms: NBK_32  and  CAR_35 
REMARK   13  A    between atoms: CAR_35  and  CAN_36 
ROOT
HETATM    1  C6    D T1357     -13.047   5.740  -3.285  1.00 24.40     0.167 A 
HETATM    2  N1    D T1357     -14.396   5.599  -3.525  1.00 22.79    -0.205 NA
HETATM    3  C2    D T1357     -14.771   4.812  -4.510  1.00 21.83     0.200 A 
HETATM    4  N3    D T1357     -14.032   4.028  -5.300  1.00 18.31    -0.224 NA
HETATM    5  C4    D T1357     -12.668   4.103  -5.111  1.00 25.22     0.088 A 
HETATM    6  CAM   D T1357     -11.842   3.368  -6.002  1.00 18.41     0.043 A 
HETATM    7  C5    D T1357     -12.150   4.969  -4.099  1.00 24.34     0.054 A 
HETATM    8  CAJ   D T1357     -10.741   4.958  -4.017  1.00 26.00     0.007 A 
HETATM    9  CAI   D T1357      -9.912   4.194  -4.874  1.00 25.92     0.024 A 
HETATM   10  CBF   D T1357     -10.465   3.344  -5.864  1.00 25.65     0.096 A 
ENDROOT
BRANCH   1  11
HETATM   11  NAY   D T1357     -12.583   6.629  -2.327  1.00 27.01    -0.206 NA
BRANCH  11  12
HETATM   12  CBG   D T1357     -13.269   6.962  -1.155  1.00 29.06     0.186 A 
HETATM   13  CAL   D T1357     -13.971   6.270  -0.225  1.00 25.08     0.058 A 
HETATM   14  CBE   D T1357     -14.431   7.207   0.676  1.00 25.84     0.093 A 
HETATM   15  NAZ   D T1357     -14.031   8.401   0.300  1.00 31.44    -0.150 NA
HETATM   16  NAW   D T1357     -13.358   8.260  -0.795  1.00 33.50    -0.129 NA
BRANCH  14  17
HETATM   17  CAT   D T1357     -15.311   6.977   1.943  1.00 28.27     0.138 C 
BRANCH  17  18
HETATM   18  CBB   D T1357     -16.658   6.278   1.505  1.00 27.93     0.262 C 
HETATM   19  NAX   D T1357     -16.649   4.971   1.847  1.00 27.49    -0.211 NA
HETATM   20  OAB   D T1357     -17.611   6.963   1.096  1.00 33.48    -0.270 OA
BRANCH  19  21
HETATM   21  CBD   D T1357     -17.606   4.028   1.455  1.00 31.17     0.087 A 
HETATM   22  CAK   D T1357     -18.741   3.687   2.188  1.00 30.64     0.049 A 
HETATM   23  CBC   D T1357     -19.633   2.778   1.685  1.00 33.42     0.142 A 
HETATM   24  FAD   D T1357     -20.767   2.394   2.567  1.00 41.75    -0.204 F 
HETATM   25  CAG   D T1357     -19.472   2.250   0.404  1.00 32.67     0.030 A 
HETATM   26  CAE   D T1357     -18.405   2.640  -0.384  1.00 32.69     0.004 A 
HETATM   27  CAH   D T1357     -17.483   3.532   0.137  1.00 33.60     0.019 A 
ENDBRANCH  19  21
ENDBRANCH  17  18
ENDBRANCH  14  17
ENDBRANCH  11  12
ENDBRANCH   1  11
BRANCH  10  28
HETATM   28  OBA   D T1357      -9.664   2.554  -6.653  1.00 26.67    -0.331 OA
BRANCH  28  29
HETATM   29  CAQ   D T1357     -10.131   2.255  -7.986  1.00 28.69     0.151 C 
BRANCH  29  30
HETATM   30  CAP   D T1357     -10.180   0.754  -8.154  1.00 36.88     0.068 C 
BRANCH  30  31
HETATM   31  CAS   D T1357     -11.573   0.345  -8.583  1.00 45.24     0.253 C 
BRANCH  31  32
HETATM   32  NBK   D T1357     -12.422  -0.183  -7.473  1.00 52.30     0.140 N 
BRANCH  32  33
HETATM   33  CAO   D T1357     -12.690  -1.628  -7.638  1.00 59.56     0.250 C 
HETATM   34  CAA   D T1357     -13.727  -1.789  -8.768  1.00 58.25     0.037 C 
ENDBRANCH  32  33
BRANCH  32  35
HETATM   35  CAR   D T1357     -13.694   0.489  -7.105  1.00 61.43     0.285 C 
BRANCH  35  36
HETATM   36  CAN   D T1357     -14.045   0.366  -5.596  1.00 65.15     0.218 C 
HETATM   37  OAC   D T1357     -15.266  -0.389  -5.680  1.00 70.90    -0.218 OA
ENDBRANCH  35  36
ENDBRANCH  32  35
ENDBRANCH  31  32
ENDBRANCH  30  31
ENDBRANCH  29  30
ENDBRANCH  28  29
ENDBRANCH  10  28
TORSDOF 13
ENDMDL
MODEL 2
REMARK VINA RESULT:    -7.689      1.894      3.530
REMARK INTER + INTRA:         -15.245
REMARK INTER:                 -13.703
REMARK INTRA:                  -1.543
REMARK UNBOUND:                -1.712
REMARK  13 active torsions:
REMARK  status: ('A' for Active; 'I' for Inactive)
REMARK    1  A    between atoms: CBD_7  and  NAX_8 
REMARK       I    between atoms: NAX_8  and  CBB_9 
REMARK    2  A    between atoms: CBB_9  and  CAT_11 
REMARK    3  A    between atoms: CAT_11  and  CBE_12 
REMARK    4  A    between atoms: CBG_16  and  NAY_17 
REMARK    5  A    between atoms: NAY_17  and  C6_18 
REMARK    6  A    between atoms: CBF_27  and  OBA_28 
REMARK    7  A    between atoms: OBA_28  and  CAQ_29 
REMARK    8  A    between atoms: CAQ_29  and  CAP_30 
REMARK    9  A    between atoms: CAP_30  and  CAS_31 
REMARK   10  A    between atoms: CAS_31  and  NBK_32 
REMARK   11  A    between atoms: NBK_32  and  CAO_33 
REMARK   12  A    between atoms: NBK_32  and  CAR_35 
REMARK   13  A    between atoms: CAR_35  and  CAN_36 
ROOT
HETATM    1  C6    D T1357     -13.452   6.291  -0.899  1.00 24.40     0.167 A 
HETATM    2  N1    D T1357     -12.789   7.376  -1.428  1.00 22.79    -0.205 NA
HETATM    3  C2    D T1357     -12.273   7.259  -2.632  1.00 21.83     0.200 A 
HETATM    4  N3    D T1357     -12.358   6.246  -3.499  1.00 18.31    -0.224 NA
HETATM    5  C4    D T1357     -13.020   5.124  -3.046  1.00 25.22     0.088 A 
HETATM    6  CAM   D T1357     -13.039   3.987  -3.895  1.00 18.41     0.043 A 
HETATM    7  C5    D T1357     -13.576   5.126  -1.729  1.00 24.34     0.054 A 
HETATM    8  CAJ   D T1357     -14.218   3.916  -1.388  1.00 26.00     0.007 A 
HETATM    9  CAI   D T1357     -14.278   2.792  -2.247  1.00 25.92     0.024 A 
HETATM   10  CBF   D T1357     -13.716   2.831  -3.548  1.00 25.65     0.096 A 
ENDROOT
BRANCH   1  11
HETATM   11  NAY   D T1357     -13.933   6.316   0.402  1.00 27.01    -0.206 NA
BRANCH  11  12
HETATM   12  CBG   D T1357     -15.262   6.572   0.752  1.00 29.06     0.186 A 
HETATM   13  CAL   D T1357     -16.431   6.667   0.073  1.00 25.08     0.058 A 
HETATM   14  CBE   D T1357     -17.390   6.982   1.013  1.00 25.84     0.093 A 
HETATM   15  NAZ   D T1357     -16.821   7.078   2.195  1.00 31.44    -0.150 NA
HETATM   16  NAW   D T1357     -15.558   6.854   2.039  1.00 33.50    -0.129 NA
BRANCH  14  17
HETATM   17  CAT   D T1357     -18.914   7.228   0.792  1.00 28.27     0.138 C 
BRANCH  17  18
HETATM   18  CBB   D T1357     -19.644   5.832   0.689  1.00 27.93     0.262 C 
HETATM   19  NAX   D T1357     -18.816   4.833   1.062  1.00 27.49    -0.211 NA
HETATM   20  OAB   D T1357     -20.869   5.784   0.481  1.00 33.48    -0.270 OA
BRANCH  19  21
HETATM   21  CBD   D T1357     -19.087   3.466   0.924  1.00 31.17     0.087 A 
HETATM   22  CAK   D T1357     -19.837   2.705   1.818  1.00 30.64     0.049 A 
HETATM   23  CBC   D T1357     -20.073   1.381   1.559  1.00 33.42     0.142 A 
HETATM   24  FAD   D T1357     -20.799   0.613   2.605  1.00 41.75    -0.204 F 
HETATM   25  CAG   D T1357     -19.648   0.799   0.364  1.00 32.67     0.030 A 
HETATM   26  CAE   D T1357     -18.981   1.553  -0.583  1.00 32.69     0.004 A 
HETATM   27  CAH   D T1357     -18.711   2.882  -0.307  1.00 33.60     0.019 A 
ENDBRANCH  19  21
ENDBRANCH  17  18
ENDBRANCH  14  17
ENDBRANCH  11  12
ENDBRANCH   1  11
BRANCH  10  28
HETATM   28  OBA   D T1357     -13.831   1.763  -4.405  1.00 26.67    -0.331 OA
BRANCH  28  29
HETATM   29  CAQ   D T1357     -14.394   2.017  -5.710  1.00 28.69     0.151 C 
BRANCH  29  30
HETATM   30  CAP   D T1357     -13.421   1.526  -6.758  1.00 36.88     0.068 C 
BRANCH  30  31
HETATM   31  CAS   D T1357     -12.582   2.689  -7.244  1.00 45.24     0.253 C 
BRANCH  31  32
HETATM   32  NBK   D T1357     -11.129   2.374  -7.390  1.00 52.30     0.140 N 
BRANCH  32  33
HETATM   33  CAO   D T1357     -10.924   1.052  -8.021  1.00 59.56     0.250 C 
HETATM   34  CAA   D T1357      -9.405   0.821  -8.150  1.00 58.25     0.037 C 
ENDBRANCH  32  33
BRANCH  32  35
HETATM   35  CAR   D T1357     -10.208   2.485  -6.230  1.00 61.43     0.285 C 
BRANCH  35  36
HETATM   36  CAN   D T1357      -9.380   3.799  -6.221  1.00 65.15     0.218 C 
HETATM   37  OAC   D T1357      -9.796   4.354  -4.962  1.00 70.90    -0.218 OA
ENDBRANCH  35  36
ENDBRANCH  32  35
ENDBRANCH  31  32
ENDBRANCH  30  31
ENDBRANCH  29  30
ENDBRANCH  28  29
ENDBRANCH  10  28
TORSDOF 13
ENDMDL
MODEL 3
REMARK VINA RESULT:    -7.668      2.460      3.210
REMARK INTER + INTRA:         -15.207
REMARK INTER:                 -13.540
REMARK INTRA:                  -1.667
REMARK UNBOUND:                -1.712
REMARK  13 active torsions:
REMARK  status: ('A' for Active; 'I' for Inactive)
REMARK    1  A    between atoms: CBD_7  and  NAX_8 
REMARK       I    between atoms: NAX_8  and  CBB_9 
REMARK    2  A    between atoms: CBB_9  and  CAT_11 
REMARK    3  A    between atoms: CAT_11  and  CBE_12 
REMARK    4  A    between atoms: CBG_16  and  NAY_17 
REMARK    5  A    between atoms: NAY_17  and  C6_18 
REMARK    6  A    between atoms: CBF_27  and  OBA_28 
REMARK    7  A    between atoms: OBA_28  and  CAQ_29 
REMARK    8  A    between atoms: CAQ_29  and  CAP_30 
REMARK    9  A    between atoms: CAP_30  and  CAS_31 
REMARK   10  A    between atoms: CAS_31  and  NBK_32 
REMARK   11  A    between atoms: NBK_32  and  CAO_33 
REMARK   12  A    between atoms: NBK_32  and  CAR_35 
REMARK   13  A    between atoms: CAR_35  and  CAN_36 
ROOT
HETATM    1  C6    D T1357     -12.193   5.981  -3.212  1.00 24.40     0.167 A 
HETATM    2  N1    D T1357     -11.322   6.832  -2.568  1.00 22.79    -0.205 NA
HETATM    3  C2    D T1357     -10.033   6.678  -2.784  1.00 21.83     0.200 A 
HETATM    4  N3    D T1357      -9.405   5.850  -3.623  1.00 18.31    -0.224 NA
HETATM    5  C4    D T1357     -10.213   4.974  -4.317  1.00 25.22     0.088 A 
HETATM    6  CAM   D T1357      -9.576   4.005  -5.137  1.00 18.41     0.043 A 
HETATM    7  C5    D T1357     -11.627   5.021  -4.118  1.00 24.34     0.054 A 
HETATM    8  CAJ   D T1357     -12.336   4.067  -4.880  1.00 26.00     0.007 A 
HETATM    9  CAI   D T1357     -11.710   3.126  -5.733  1.00 25.92     0.024 A 
HETATM   10  CBF   D T1357     -10.303   3.113  -5.907  1.00 25.65     0.096 A 
ENDROOT
BRANCH   1  11
HETATM   11  NAY   D T1357     -13.555   6.027  -2.953  1.00 27.01    -0.206 NA
BRANCH  11  12
HETATM   12  CBG   D T1357     -14.168   5.479  -1.823  1.00 29.06     0.186 A 
HETATM   13  CAL   D T1357     -14.533   5.952  -0.606  1.00 25.08     0.058 A 
HETATM   14  CBE   D T1357     -15.065   4.877   0.073  1.00 25.84     0.093 A 
HETATM   15  NAZ   D T1357     -15.015   3.812  -0.696  1.00 31.44    -0.150 NA
HETATM   16  NAW   D T1357     -14.466   4.163  -1.813  1.00 33.50    -0.129 NA
BRANCH  14  17
HETATM   17  CAT   D T1357     -15.630   4.837   1.527  1.00 28.27     0.138 C 
BRANCH  17  18
HETATM   18  CBB   D T1357     -16.814   5.877   1.639  1.00 27.93     0.262 C 
HETATM   19  NAX   D T1357     -17.699   5.701   0.634  1.00 27.49    -0.211 NA
HETATM   20  OAB   D T1357     -16.931   6.579   2.658  1.00 33.48    -0.270 OA
BRANCH  19  21
HETATM   21  CBD   D T1357     -18.765   6.559   0.339  1.00 31.17     0.087 A 
HETATM   22  CAK   D T1357     -18.634   7.881  -0.082  1.00 30.64     0.049 A 
HETATM   23  CBC   D T1357     -19.749   8.617  -0.384  1.00 33.42     0.142 A 
HETATM   24  FAD   D T1357     -19.534  10.046  -0.733  1.00 41.75    -0.204 F 
HETATM   25  CAG   D T1357     -21.017   8.036  -0.361  1.00 32.67     0.030 A 
HETATM   26  CAE   D T1357     -21.169   6.701  -0.036  1.00 32.69     0.004 A 
HETATM   27  CAH   D T1357     -20.047   5.965   0.303  1.00 33.60     0.019 A 
ENDBRANCH  19  21
ENDBRANCH  17  18
ENDBRANCH  14  17
ENDBRANCH  11  12
ENDBRANCH   1  11
BRANCH  10  28
HETATM   28  OBA   D T1357      -9.701   2.243  -6.784  1.00 26.67    -0.331 OA
BRANCH  28  29
HETATM   29  CAQ   D T1357     -10.319   2.072  -8.077  1.00 28.69     0.151 C 
BRANCH  29  30
HETATM   30  CAP   D T1357     -10.760   0.633  -8.213  1.00 36.88     0.068 C 
BRANCH  30  31
HETATM   31  CAS   D T1357     -12.272   0.577  -8.268  1.00 45.24     0.253 C 
BRANCH  31  32
HETATM   32  NBK   D T1357     -12.889  -0.276  -7.208  1.00 52.30     0.140 N 
BRANCH  32  33
HETATM   33  CAO   D T1357     -12.667  -1.714  -7.475  1.00 59.56     0.250 C 
HETATM   34  CAA   D T1357     -14.044  -2.370  -7.703  1.00 58.25     0.037 C 
ENDBRANCH  32  33
BRANCH  32  35
HETATM   35  CAR   D T1357     -14.308  -0.088  -6.813  1.00 61.43     0.285 C 
BRANCH  35  36
HETATM   36  CAN   D T1357     -14.481   0.635  -5.449  1.00 65.15     0.218 C 
HETATM   37  OAC   D T1357     -15.124   1.846  -5.882  1.00 70.90    -0.218 OA
ENDBRANCH  35  36
ENDBRANCH  32  35
ENDBRANCH  31  32
ENDBRANCH  30  31
ENDBRANCH  29  30
ENDBRANCH  28  29
ENDBRANCH  10  28
TORSDOF 13
ENDMDL
MODEL 4
REMARK VINA RESULT:    -7.366      1.972      2.925
REMARK INTER + INTRA:         -14.676
REMARK INTER:                 -13.355
REMARK INTRA:                  -1.321
REMARK UNBOUND:                -1.712
REMARK  13 active torsions:
REMARK  status: ('A' for Active; 'I' for Inactive)
REMARK    1  A    between atoms: CBD_7  and  NAX_8 
REMARK       I    between atoms: NAX_8  and  CBB_9 
REMARK    2  A    between atoms: CBB_9  and  CAT_11 
REMARK    3  A    between atoms: CAT_11  and  CBE_12 
REMARK    4  A    between atoms: CBG_16  and  NAY_17 
REMARK    5  A    between atoms: NAY_17  and  C6_18 
REMARK    6  A    between atoms: CBF_27  and  OBA_28 
REMARK    7  A    between atoms: OBA_28  and  CAQ_29 
REMARK    8  A    between atoms: CAQ_29  and  CAP_30 
REMARK    9  A    between atoms: CAP_30  and  CAS_31 
REMARK   10  A    between atoms: CAS_31  and  NBK_32 
REMARK   11  A    between atoms: NBK_32  and  CAO_33 
REMARK   12  A    between atoms: NBK_32  and  CAR_35 
REMARK   13  A    between atoms: CAR_35  and  CAN_36 
ROOT
HETATM    1  C6    D T1357     -11.857   5.091  -4.054  1.00 24.40     0.167 A 
HETATM    2  N1    D T1357     -10.659   5.523  -3.531  1.00 22.79    -0.205 NA
HETATM    3  C2    D T1357      -9.551   4.981  -3.990  1.00 21.83     0.200 A 
HETATM    4  N3    D T1357      -9.384   4.101  -4.981  1.00 18.31    -0.224 NA
HETATM    5  C4    D T1357     -10.540   3.630  -5.566  1.00 25.22     0.088 A 
HETATM    6  CAM   D T1357     -10.410   2.613  -6.548  1.00 18.41     0.043 A 
HETATM    7  C5    D T1357     -11.803   4.116  -5.106  1.00 24.34     0.054 A 
HETATM    8  CAJ   D T1357     -12.905   3.547  -5.781  1.00 26.00     0.007 A 
HETATM    9  CAI   D T1357     -12.781   2.564  -6.792  1.00 25.92     0.024 A 
HETATM   10  CBF   D T1357     -11.509   2.109  -7.223  1.00 25.65     0.096 A 
ENDROOT
BRANCH   1  11
HETATM   11  NAY   D T1357     -13.063   5.551  -3.545  1.00 27.01    -0.206 NA
BRANCH  11  12
HETATM   12  CBG   D T1357     -13.435   5.484  -2.199  1.00 29.06     0.186 A 
HETATM   13  CAL   D T1357     -13.866   6.379  -1.278  1.00 25.08     0.058 A 
HETATM   14  CBE   D T1357     -14.027   5.669  -0.107  1.00 25.84     0.093 A 
HETATM   15  NAZ   D T1357     -13.701   4.412  -0.316  1.00 31.44    -0.150 NA
HETATM   16  NAW   D T1357     -13.332   4.305  -1.550  1.00 33.50    -0.129 NA
BRANCH  14  17
HETATM   17  CAT   D T1357     -14.487   6.196   1.287  1.00 28.27     0.138 C 
BRANCH  17  18
HETATM   18  CBB   D T1357     -16.038   5.940   1.439  1.00 27.93     0.262 C 
HETATM   19  NAX   D T1357     -16.275   4.667   1.821  1.00 27.49    -0.211 NA
HETATM   20  OAB   D T1357     -16.834   6.894   1.392  1.00 33.48    -0.270 OA
BRANCH  19  21
HETATM   21  CBD   D T1357     -17.537   4.063   1.877  1.00 31.17     0.087 A 
HETATM   22  CAK   D T1357     -18.165   3.420   0.812  1.00 30.64     0.049 A 
HETATM   23  CBC   D T1357     -19.386   2.828   0.994  1.00 33.42     0.142 A 
HETATM   24  FAD   D T1357     -20.035   2.247  -0.211  1.00 41.75    -0.204 F 
HETATM   25  CAG   D T1357     -19.977   2.780   2.257  1.00 32.67     0.030 A 
HETATM   26  CAE   D T1357     -19.334   3.329   3.351  1.00 32.69     0.004 A 
HETATM   27  CAH   D T1357     -18.116   3.959   3.162  1.00 33.60     0.019 A 
ENDBRANCH  19  21
ENDBRANCH  17  18
ENDBRANCH  14  17
ENDBRANCH  11  12
ENDBRANCH   1  11
BRANCH  10  28
HETATM   28  OBA   D T1357     -11.386   1.203  -8.249  1.00 26.67    -0.331 OA
BRANCH  28  29
HETATM   29  CAQ   D T1357     -11.843  -0.144  -8.002  1.00 28.69     0.151 C 
BRANCH  29  30
HETATM   30  CAP   D T1357     -12.725  -0.572  -9.153  1.00 36.88     0.068 C 
BRANCH  30  31
HETATM   31  CAS   D T1357     -13.292  -1.946  -8.864  1.00 45.24     0.253 C 
BRANCH  31  32
HETATM   32  NBK   D T1357     -14.596  -1.926  -8.137  1.00 52.30     0.140 N 
BRANCH  32  33
HETATM   33  CAO   D T1357     -14.444  -2.390  -6.740  1.00 59.56     0.250 C 
HETATM   34  CAA   D T1357     -14.727  -1.192  -5.811  1.00 58.25     0.037 C 
ENDBRANCH  32  33
BRANCH  32  35
HETATM   35  CAR   D T1357     -15.798  -2.577  -8.716  1.00 61.43     0.285 C 
BRANCH  35  36
HETATM   36  CAN   D T1357     -16.845  -1.570  -9.265  1.00 65.15     0.218 C 
HETATM   37  OAC   D T1357     -17.797  -2.480  -9.842  1.00 70.90    -0.218 OA
ENDBRANCH  35  36
ENDBRANCH  32  35
ENDBRANCH  31  32
ENDBRANCH  30  31
ENDBRANCH  29  30
ENDBRANCH  28  29
ENDBRANCH  10  28
TORSDOF 13
ENDMDL
MODEL 5
REMARK VINA RESULT:    -7.364      3.068      8.464
REMARK INTER + INTRA:         -14.673
REMARK INTER:                 -12.174
REMARK INTRA:                  -2.499
REMARK UNBOUND:                -1.712
REMARK  13 active torsions:
REMARK  status: ('A' for Active; 'I' for Inactive)
REMARK    1  A    between atoms: CBD_7  and  NAX_8 
REMARK       I    between atoms: NAX_8  and  CBB_9 
REMARK    2  A    between atoms: CBB_9  and  CAT_11 
REMARK    3  A    between atoms: CAT_11  and  CBE_12 
REMARK    4  A    between atoms: CBG_16  and  NAY_17 
REMARK    5  A    between atoms: NAY_17  and  C6_18 
REMARK    6  A    between atoms: CBF_27  and  OBA_28 
REMARK    7  A    between atoms: OBA_28  and  CAQ_29 
REMARK    8  A    between atoms: CAQ_29  and  CAP_30 
REMARK    9  A    between atoms: CAP_30  and  CAS_31 
REMARK   10  A    between atoms: CAS_31  and  NBK_32 
REMARK   11  A    between atoms: NBK_32  and  CAO_33 
REMARK   12  A    between atoms: NBK_32  and  CAR_35 
REMARK   13  A    between atoms: CAR_35  and  CAN_36 
ROOT
HETATM    1  C6    D T1357     -10.480   1.331  -7.862  1.00 24.40     0.167 A 
HETATM    2  N1    D T1357      -9.126   1.121  -7.722  1.00 22.79    -0.205 NA
HETATM    3  C2    D T1357      -8.486   1.803  -6.798  1.00 21.83     0.200 A 
HETATM    4  N3    D T1357      -8.966   2.643  -5.876  1.00 18.31    -0.224 NA
HETATM    5  C4    D T1357     -10.320   2.895  -5.943  1.00 25.22     0.088 A 
HETATM    6  CAM   D T1357     -10.851   3.864  -5.051  1.00 18.41     0.043 A 
HETATM    7  C5    D T1357     -11.103   2.243  -6.945  1.00 24.34     0.054 A 
HETATM    8  CAJ   D T1357     -12.470   2.594  -6.909  1.00 26.00     0.007 A 
HETATM    9  CAI   D T1357     -13.014   3.528  -5.994  1.00 25.92     0.024 A 
HETATM   10  CBF   D T1357     -12.204   4.151  -5.011  1.00 25.65     0.096 A 
ENDROOT
BRANCH   1  11
HETATM   11  NAY   D T1357     -11.194   0.716  -8.880  1.00 27.01    -0.206 NA
BRANCH  11  12
HETATM   12  CBG   D T1357     -12.089  -0.342  -8.696  1.00 29.06     0.186 A 
HETATM   13  CAL   D T1357     -12.685  -0.918  -7.624  1.00 25.08     0.058 A 
HETATM   14  CBE   D T1357     -13.439  -1.958  -8.124  1.00 25.84     0.093 A 
HETATM   15  NAZ   D T1357     -13.297  -2.006  -9.431  1.00 31.44    -0.150 NA
HETATM   16  NAW   D T1357     -12.482  -1.061  -9.769  1.00 33.50    -0.129 NA
BRANCH  14  17
HETATM   17  CAT   D T1357     -14.323  -2.975  -7.338  1.00 28.27     0.138 C 
BRANCH  17  18
HETATM   18  CBB   D T1357     -15.315  -2.173  -6.408  1.00 27.93     0.262 C 
HETATM   19  NAX   D T1357     -15.882  -1.151  -7.085  1.00 27.49    -0.211 NA
HETATM   20  OAB   D T1357     -15.617  -2.620  -5.288  1.00 33.48    -0.270 OA
BRANCH  19  21
HETATM   21  CBD   D T1357     -16.670  -0.144  -6.515  1.00 31.17     0.087 A 
HETATM   22  CAK   D T1357     -16.186   1.061  -6.011  1.00 30.64     0.049 A 
HETATM   23  CBC   D T1357     -17.056   1.994  -5.513  1.00 33.42     0.142 A 
HETATM   24  FAD   D T1357     -16.458   3.212  -4.906  1.00 41.75    -0.204 F 
HETATM   25  CAG   D T1357     -18.435   1.794  -5.581  1.00 32.67     0.030 A 
HETATM   26  CAE   D T1357     -18.948   0.647  -6.160  1.00 32.69     0.004 A 
HETATM   27  CAH   D T1357     -18.068  -0.311  -6.632  1.00 33.60     0.019 A 
ENDBRANCH  19  21
ENDBRANCH  17  18
ENDBRANCH  14  17
ENDBRANCH  11  12
ENDBRANCH   1  11
BRANCH  10  28
HETATM   28  OBA   D T1357     -12.744   5.008  -4.082  1.00 26.67    -0.331 OA
BRANCH  28  29
HETATM   29  CAQ   D T1357     -11.836   5.640  -3.155  1.00 28.69     0.151 C 
BRANCH  29  30
HETATM   30  CAP   D T1357     -12.272   5.301  -1.748  1.00 36.88     0.068 C 
BRANCH  30  31
HETATM   31  CAS   D T1357     -13.770   5.082  -1.729  1.00 45.24     0.253 C 
BRANCH  31  32
HETATM   32  NBK   D T1357     -14.186   3.771  -1.146  1.00 52.30     0.140 N 
BRANCH  32  33
HETATM   33  CAO   D T1357     -14.896   2.938  -2.143  1.00 59.56     0.250 C 
HETATM   34  CAA   D T1357     -13.888   1.916  -2.706  1.00 58.25     0.037 C 
ENDBRANCH  32  33
BRANCH  32  35
HETATM   35  CAR   D T1357     -14.940   3.713   0.132  1.00 61.43     0.285 C 
BRANCH  35  36
HETATM   36  CAN   D T1357     -15.561   5.075   0.547  1.00 65.15     0.218 C 
HETATM   37  OAC   D T1357     -16.894   4.916   0.031  1.00 70.90    -0.218 OA
ENDBRANCH  35  36
ENDBRANCH  32  35
ENDBRANCH  31  32
ENDBRANCH  30  31
ENDBRANCH  29  30
ENDBRANCH  28  29
ENDBRANCH  10  28
TORSDOF 13
ENDMDL
MODEL 6
REMARK VINA RESULT:    -7.362      2.195      4.075
REMARK INTER + INTRA:         -14.670
REMARK INTER:                 -12.971
REMARK INTRA:                  -1.699
REMARK UNBOUND:                -1.712
REMARK  13 active torsions:
REMARK  status: ('A' for Active; 'I' for Inactive)
REMARK    1  A    between atoms: CBD_7  and  NAX_8 
REMARK       I    between atoms: NAX_8  and  CBB_9 
REMARK    2  A    between atoms: CBB_9  and  CAT_11 
REMARK    3  A    between atoms: CAT_11  and  CBE_12 
REMARK    4  A    between atoms: CBG_16  and  NAY_17 
REMARK    5  A    between atoms: NAY_17  and  C6_18 
REMARK    6  A    between atoms: CBF_27  and  OBA_28 
REMARK    7  A    between atoms: OBA_28  and  CAQ_29 
REMARK    8  A    between atoms: CAQ_29  and  CAP_30 
REMARK    9  A    between atoms: CAP_30  and  CAS_31 
REMARK   10  A    between atoms: CAS_31  and  NBK_32 
REMARK   11  A    between atoms: NBK_32  and  CAO_33 
REMARK   12  A    between atoms: NBK_32  and  CAR_35 
REMARK   13  A    between atoms: CAR_35  and  CAN_36 
ROOT
HETATM    1  C6    D T1357     -12.272   3.000  -6.015  1.00 24.40     0.167 A 
HETATM    2  N1    D T1357     -11.043   3.555  -5.734  1.00 22.79    -0.205 NA
HETATM    3  C2    D T1357      -9.983   3.043  -6.323  1.00 21.83     0.200 A 
HETATM    4  N3    D T1357      -9.906   2.085  -7.251  1.00 18.31    -0.224 NA
HETATM    5  C4    D T1357     -11.101   1.488  -7.596  1.00 25.22     0.088 A 
HETATM    6  CAM   D T1357     -11.048   0.393  -8.498  1.00 18.41     0.043 A 
HETATM    7  C5    D T1357     -12.309   1.935  -6.977  1.00 24.34     0.054 A 
HETATM    8  CAJ   D T1357     -13.455   1.236  -7.412  1.00 26.00     0.007 A 
HETATM    9  CAI   D T1357     -13.416   0.171  -8.344  1.00 25.92     0.024 A 
HETATM   10  CBF   D T1357     -12.197  -0.241  -8.939  1.00 25.65     0.096 A 
ENDROOT
BRANCH   1  11
HETATM   11  NAY   D T1357     -13.414   3.429  -5.355  1.00 27.01    -0.206 NA
BRANCH  11  12
HETATM   12  CBG   D T1357     -13.415   4.187  -4.181  1.00 29.06     0.186 A 
HETATM   13  CAL   D T1357     -13.382   3.903  -2.856  1.00 25.08     0.058 A 
HETATM   14  CBE   D T1357     -13.444   5.117  -2.207  1.00 25.84     0.093 A 
HETATM   15  NAZ   D T1357     -13.518   6.081  -3.099  1.00 31.44    -0.150 NA
HETATM   16  NAW   D T1357     -13.520   5.530  -4.268  1.00 33.50    -0.129 NA
BRANCH  14  17
HETATM   17  CAT   D T1357     -13.459   5.392  -0.671  1.00 28.27     0.138 C 
BRANCH  17  18
HETATM   18  CBB   D T1357     -14.959   5.495  -0.188  1.00 27.93     0.262 C 
HETATM   19  NAX   D T1357     -15.297   4.414   0.548  1.00 27.49    -0.211 NA
HETATM   20  OAB   D T1357     -15.591   6.554  -0.343  1.00 33.48    -0.270 OA
BRANCH  19  21
HETATM   21  CBD   D T1357     -16.592   4.106   0.981  1.00 31.17     0.087 A 
HETATM   22  CAK   D T1357     -17.532   3.389   0.243  1.00 30.64     0.049 A 
HETATM   23  CBC   D T1357     -18.759   3.110   0.785  1.00 33.42     0.142 A 
HETATM   24  FAD   D T1357     -19.741   2.425  -0.097  1.00 41.75    -0.204 F 
HETATM   25  CAG   D T1357     -19.055   3.458   2.103  1.00 32.67     0.030 A 
HETATM   26  CAE   D T1357     -18.108   4.089   2.890  1.00 32.69     0.004 A 
HETATM   27  CAH   D T1357     -16.881   4.402   2.332  1.00 33.60     0.019 A 
ENDBRANCH  19  21
ENDBRANCH  17  18
ENDBRANCH  14  17
ENDBRANCH  11  12
ENDBRANCH   1  11
BRANCH  10  28
HETATM   28  OBA   D T1357     -12.168  -1.231  -9.891  1.00 26.67    -0.331 OA
BRANCH  28  29
HETATM   29  CAQ   D T1357     -12.789  -2.491  -9.558  1.00 28.69     0.151 C 
BRANCH  29  30
HETATM   30  CAP   D T1357     -13.867  -2.781 -10.577  1.00 36.88     0.068 C 
BRANCH  30  31
HETATM   31  CAS   D T1357     -15.224  -2.670  -9.915  1.00 45.24     0.253 C 
BRANCH  31  32
HETATM   32  NBK   D T1357     -15.287  -3.274  -8.551  1.00 52.30     0.140 N 
BRANCH  32  33
HETATM   33  CAO   D T1357     -15.847  -4.643  -8.592  1.00 59.56     0.250 C 
HETATM   34  CAA   D T1357     -14.672  -5.637  -8.501  1.00 58.25     0.037 C 
ENDBRANCH  32  33
BRANCH  32  35
HETATM   35  CAR   D T1357     -15.923  -2.543  -7.425  1.00 61.43     0.285 C 
BRANCH  35  36
HETATM   36  CAN   D T1357     -15.347  -2.926  -6.034  1.00 65.15     0.218 C 
HETATM   37  OAC   D T1357     -13.955  -2.635  -6.246  1.00 70.90    -0.218 OA
ENDBRANCH  35  36
ENDBRANCH  32  35
ENDBRANCH  31  32
ENDBRANCH  30  31
ENDBRANCH  29  30
ENDBRANCH  28  29
ENDBRANCH  10  28
TORSDOF 13
ENDMDL
MODEL 7
REMARK VINA RESULT:    -7.332      1.526      2.192
REMARK INTER + INTRA:         -14.617
REMARK INTER:                 -13.262
REMARK INTRA:                  -1.354
REMARK UNBOUND:                -1.712
REMARK  13 active torsions:
REMARK  status: ('A' for Active; 'I' for Inactive)
REMARK    1  A    between atoms: CBD_7  and  NAX_8 
REMARK       I    between atoms: NAX_8  and  CBB_9 
REMARK    2  A    between atoms: CBB_9  and  CAT_11 
REMARK    3  A    between atoms: CAT_11  and  CBE_12 
REMARK    4  A    between atoms: CBG_16  and  NAY_17 
REMARK    5  A    between atoms: NAY_17  and  C6_18 
REMARK    6  A    between atoms: CBF_27  and  OBA_28 
REMARK    7  A    between atoms: OBA_28  and  CAQ_29 
REMARK    8  A    between atoms: CAQ_29  and  CAP_30 
REMARK    9  A    between atoms: CAP_30  and  CAS_31 
REMARK   10  A    between atoms: CAS_31  and  NBK_32 
REMARK   11  A    between atoms: NBK_32  and  CAO_33 
REMARK   12  A    between atoms: NBK_32  and  CAR_35 
REMARK   13  A    between atoms: CAR_35  and  CAN_36 
ROOT
HETATM    1  C6    D T1357     -12.072   5.870  -3.302  1.00 24.40     0.167 A 
HETATM    2  N1    D T1357     -10.982   6.506  -2.749  1.00 22.79    -0.205 NA
HETATM    3  C2    D T1357      -9.782   6.120  -3.127  1.00 21.83     0.200 A 
HETATM    4  N3    D T1357      -9.431   5.232  -4.060  1.00 18.31    -0.224 NA
HETATM    5  C4    D T1357     -10.470   4.561  -4.671  1.00 25.22     0.088 A 
HETATM    6  CAM   D T1357     -10.134   3.532  -5.590  1.00 18.41     0.043 A 
HETATM    7  C5    D T1357     -11.814   4.867  -4.296  1.00 24.34     0.054 A 
HETATM    8  CAJ   D T1357     -12.779   4.105  -4.989  1.00 26.00     0.007 A 
HETATM    9  CAI   D T1357     -12.453   3.107  -5.939  1.00 25.92     0.024 A 
HETATM   10  CBF   D T1357     -11.106   2.834  -6.287  1.00 25.65     0.096 A 
ENDROOT
BRANCH   1  11
HETATM   11  NAY   D T1357     -13.359   6.162  -2.874  1.00 27.01    -0.206 NA
BRANCH  11  12
HETATM   12  CBG   D T1357     -13.818   5.994  -1.565  1.00 29.06     0.186 A 
HETATM   13  CAL   D T1357     -14.413   6.794  -0.647  1.00 25.08     0.058 A 
HETATM   14  CBE   D T1357     -14.578   6.018   0.480  1.00 25.84     0.093 A 
HETATM   15  NAZ   D T1357     -14.100   4.815   0.251  1.00 31.44    -0.150 NA
HETATM   16  NAW   D T1357     -13.632   4.805  -0.954  1.00 33.50    -0.129 NA
BRANCH  14  17
HETATM   17  CAT   D T1357     -15.196   6.429   1.853  1.00 28.27     0.138 C 
BRANCH  17  18
HETATM   18  CBB   D T1357     -16.699   5.947   1.897  1.00 27.93     0.262 C 
HETATM   19  NAX   D T1357     -16.779   4.681   2.361  1.00 27.49    -0.211 NA
HETATM   20  OAB   D T1357     -17.619   6.761   1.707  1.00 33.48    -0.270 OA
BRANCH  19  21
HETATM   21  CBD   D T1357     -17.938   3.895   2.363  1.00 31.17     0.087 A 
HETATM   22  CAK   D T1357     -18.772   3.702   3.462  1.00 30.64     0.049 A 
HETATM   23  CBC   D T1357     -19.905   2.944   3.337  1.00 33.42     0.142 A 
HETATM   24  FAD   D T1357     -20.692   2.705   4.576  1.00 41.75    -0.204 F 
HETATM   25  CAG   D T1357     -20.288   2.429   2.098  1.00 32.67     0.030 A 
HETATM   26  CAE   D T1357     -19.529   2.681   0.971  1.00 32.69     0.004 A 
HETATM   27  CAH   D T1357     -18.365   3.419   1.102  1.00 33.60     0.019 A 
ENDBRANCH  19  21
ENDBRANCH  17  18
ENDBRANCH  14  17
ENDBRANCH  11  12
ENDBRANCH   1  11
BRANCH  10  28
HETATM   28  OBA   D T1357     -10.792   1.911  -7.255  1.00 26.67    -0.331 OA
BRANCH  28  29
HETATM   29  CAQ   D T1357     -11.885   1.346  -8.011  1.00 28.69     0.151 C 
BRANCH  29  30
HETATM   30  CAP   D T1357     -11.584  -0.112  -8.274  1.00 36.88     0.068 C 
BRANCH  30  31
HETATM   31  CAS   D T1357     -12.626  -0.674  -9.218  1.00 45.24     0.253 C 
BRANCH  31  32
HETATM   32  NBK   D T1357     -13.542  -1.673  -8.590  1.00 52.30     0.140 N 
BRANCH  32  33
HETATM   33  CAO   D T1357     -13.567  -2.939  -9.356  1.00 59.56     0.250 C 
HETATM   34  CAA   D T1357     -12.496  -2.843 -10.461  1.00 58.25     0.037 C 
ENDBRANCH  32  33
BRANCH  32  35
HETATM   35  CAR   D T1357     -14.939  -1.310  -8.243  1.00 61.43     0.285 C 
BRANCH  35  36
HETATM   36  CAN   D T1357     -15.049  -0.398  -6.990  1.00 65.15     0.218 C 
HETATM   37  OAC   D T1357     -14.224  -1.132  -6.068  1.00 70.90    -0.218 OA
ENDBRANCH  35  36
ENDBRANCH  32  35
ENDBRANCH  31  32
ENDBRANCH  30  31
ENDBRANCH  29  30
ENDBRANCH  28  29
ENDBRANCH  10  28
TORSDOF 13
ENDMDL
MODEL 8
REMARK VINA RESULT:    -7.318      4.856     11.646
REMARK INTER + INTRA:         -14.592
REMARK INTER:                 -13.051
REMARK INTRA:                  -1.541
REMARK UNBOUND:                -1.712
REMARK  13 active torsions:
REMARK  status: ('A' for Active; 'I' for Inactive)
REMARK    1  A    between atoms: CBD_7  and  NAX_8 
REMARK       I    between atoms: NAX_8  and  CBB_9 
REMARK    2  A    between atoms: CBB_9  and  CAT_11 
REMARK    3  A    between atoms: CAT_11  and  CBE_12 
REMARK    4  A    between atoms: CBG_16  and  NAY_17 
REMARK    5  A    between atoms: NAY_17  and  C6_18 
REMARK    6  A    between atoms: CBF_27  and  OBA_28 
REMARK    7  A    between atoms: OBA_28  and  CAQ_29 
REMARK    8  A    between atoms: CAQ_29  and  CAP_30 
REMARK    9  A    between atoms: CAP_30  and  CAS_31 
REMARK   10  A    between atoms: CAS_31  and  NBK_32 
REMARK   11  A    between atoms: NBK_32  and  CAO_33 
REMARK   12  A    between atoms: NBK_32  and  CAR_35 
REMARK   13  A    between atoms: CAR_35  and  CAN_36 
ROOT
HETATM    1  C6    D T1357     -11.224   1.392  -7.628  1.00 24.40     0.167 A 
HETATM    2  N1    D T1357     -10.192   0.724  -8.249  1.00 22.79    -0.205 NA
HETATM    3  C2    D T1357      -8.959   1.072  -7.946  1.00 21.83     0.200 A 
HETATM    4  N3    D T1357      -8.522   1.948  -7.037  1.00 18.31    -0.224 NA
HETATM    5  C4    D T1357      -9.500   2.649  -6.363  1.00 25.22     0.088 A 
HETATM    6  CAM   D T1357      -9.076   3.665  -5.467  1.00 18.41     0.043 A 
HETATM    7  C5    D T1357     -10.874   2.385  -6.653  1.00 24.34     0.054 A 
HETATM    8  CAJ   D T1357     -11.770   3.175  -5.901  1.00 26.00     0.007 A 
HETATM    9  CAI   D T1357     -11.355   4.161  -4.973  1.00 25.92     0.024 A 
HETATM   10  CBF   D T1357      -9.980   4.391  -4.711  1.00 25.65     0.096 A 
ENDROOT
BRANCH   1  11
HETATM   11  NAY   D T1357     -12.544   1.141  -7.975  1.00 27.01    -0.206 NA
BRANCH  11  12
HETATM   12  CBG   D T1357     -13.068  -0.128  -8.241  1.00 29.06     0.186 A 
HETATM   13  CAL   D T1357     -13.685  -0.708  -9.298  1.00 25.08     0.058 A 
HETATM   14  CBE   D T1357     -13.989  -1.992  -8.901  1.00 25.84     0.093 A 
HETATM   15  NAZ   D T1357     -13.580  -2.171  -7.664  1.00 31.44    -0.150 NA
HETATM   16  NAW   D T1357     -13.051  -1.061  -7.265  1.00 33.50    -0.129 NA
BRANCH  14  17
HETATM   17  CAT   D T1357     -14.721  -3.106  -9.712  1.00 28.27     0.138 C 
BRANCH  17  18
HETATM   18  CBB   D T1357     -14.160  -3.111 -11.188  1.00 27.93     0.262 C 
HETATM   19  NAX   D T1357     -12.870  -3.512 -11.206  1.00 27.49    -0.211 NA
HETATM   20  OAB   D T1357     -14.933  -2.949 -12.148  1.00 33.48    -0.270 OA
BRANCH  19  21
HETATM   21  CBD   D T1357     -12.026  -3.462 -12.322  1.00 31.17     0.087 A 
HETATM   22  CAK   D T1357     -11.814  -4.514 -13.212  1.00 30.64     0.049 A 
HETATM   23  CBC   D T1357     -10.996  -4.339 -14.296  1.00 33.42     0.142 A 
HETATM   24  FAD   D T1357     -10.743  -5.533 -15.144  1.00 41.75    -0.204 F 
HETATM   25  CAG   D T1357     -10.437  -3.092 -14.576  1.00 32.67     0.030 A 
HETATM   26  CAE   D T1357     -10.704  -2.006 -13.762  1.00 32.69     0.004 A 
HETATM   27  CAH   D T1357     -11.503  -2.190 -12.647  1.00 33.60     0.019 A 
ENDBRANCH  19  21
ENDBRANCH  17  18
ENDBRANCH  14  17
ENDBRANCH  11  12
ENDBRANCH   1  11
BRANCH  10  28
HETATM   28  OBA   D T1357      -9.579   5.303  -3.764  1.00 26.67    -0.331 OA
BRANCH  28  29
HETATM   29  CAQ   D T1357     -10.416   6.461  -3.561  1.00 28.69     0.151 C 
BRANCH  29  30
HETATM   30  CAP   D T1357     -11.022   6.379  -2.178  1.00 36.88     0.068 C 
BRANCH  30  31
HETATM   31  CAS   D T1357     -12.325   7.151  -2.158  1.00 45.24     0.253 C 
BRANCH  31  32
HETATM   32  NBK   D T1357     -13.514   6.328  -1.783  1.00 52.30     0.140 N 
BRANCH  32  33
HETATM   33  CAO   D T1357     -13.505   5.992  -0.342  1.00 59.56     0.250 C 
HETATM   34  CAA   D T1357     -14.970   5.865   0.123  1.00 58.25     0.037 C 
ENDBRANCH  32  33
BRANCH  32  35
HETATM   35  CAR   D T1357     -13.861   5.102  -2.546  1.00 61.43     0.285 C 
BRANCH  35  36
HETATM   36  CAN   D T1357     -15.089   5.281  -3.480  1.00 65.15     0.218 C 
HETATM   37  OAC   D T1357     -14.437   5.765  -4.667  1.00 70.90    -0.218 OA
ENDBRANCH  35  36
ENDBRANCH  32  35
ENDBRANCH  31  32
ENDBRANCH  30  31
ENDBRANCH  29  30
ENDBRANCH  28  29
ENDBRANCH  10  28
TORSDOF 13
ENDMDL
MODEL 9
REMARK VINA RESULT:    -7.265      3.045      4.420
REMARK INTER + INTRA:         -14.499
REMARK INTER:                 -13.329
REMARK INTRA:                  -1.169
REMARK UNBOUND:                -1.712
REMARK  13 active torsions:
REMARK  status: ('A' for Active; 'I' for Inactive)
REMARK    1  A    between atoms: CBD_7  and  NAX_8 
REMARK       I    between atoms: NAX_8  and  CBB_9 
REMARK    2  A    between atoms: CBB_9  and  CAT_11 
REMARK    3  A    between atoms: CAT_11  and  CBE_12 
REMARK    4  A    between atoms: CBG_16  and  NAY_17 
REMARK    5  A    between atoms: NAY_17  and  C6_18 
REMARK    6  A    between atoms: CBF_27  and  OBA_28 
REMARK    7  A    between atoms: OBA_28  and  CAQ_29 
REMARK    8  A    between atoms: CAQ_29  and  CAP_30 
REMARK    9  A    between atoms: CAP_30  and  CAS_31 
REMARK   10  A    between atoms: CAS_31  and  NBK_32 
REMARK   11  A    between atoms: NBK_32  and  CAO_33 
REMARK   12  A    between atoms: NBK_32  and  CAR_35 
REMARK   13  A    between atoms: CAR_35  and  CAN_36 
ROOT
HETATM    1  C6    D T1357     -12.091   3.539  -5.462  1.00 24.40     0.167 A 
HETATM    2  N1    D T1357     -10.884   4.116  -5.137  1.00 22.79    -0.205 NA
HETATM    3  C2    D T1357      -9.799   3.654  -5.721  1.00 21.83     0.200 A 
HETATM    4  N3    D T1357      -9.678   2.732  -6.680  1.00 18.31    -0.224 NA
HETATM    5  C4    D T1357     -10.849   2.116  -7.070  1.00 25.22     0.088 A 
HETATM    6  CAM   D T1357     -10.749   1.055  -8.008  1.00 18.41     0.043 A 
HETATM    7  C5    D T1357     -12.080   2.508  -6.461  1.00 24.34     0.054 A 
HETATM    8  CAJ   D T1357     -13.199   1.794  -6.943  1.00 26.00     0.007 A 
HETATM    9  CAI   D T1357     -13.113   0.764  -7.911  1.00 25.92     0.024 A 
HETATM   10  CBF   D T1357     -11.871   0.406  -8.494  1.00 25.65     0.096 A 
ENDROOT
BRANCH   1  11
HETATM   11  NAY   D T1357     -13.258   3.914  -4.811  1.00 27.01    -0.206 NA
BRANCH  11  12
HETATM   12  CBG   D T1357     -13.303   4.650  -3.624  1.00 29.06     0.186 A 
HETATM   13  CAL   D T1357     -13.541   4.357  -2.323  1.00 25.08     0.058 A 
HETATM   14  CBE   D T1357     -13.472   5.556  -1.645  1.00 25.84     0.093 A 
HETATM   15  NAZ   D T1357     -13.212   6.520  -2.501  1.00 31.44    -0.150 NA
HETATM   16  NAW   D T1357     -13.130   5.988  -3.676  1.00 33.50    -0.129 NA
BRANCH  14  17
HETATM   17  CAT   D T1357     -13.683   5.818  -0.122  1.00 28.27     0.138 C 
BRANCH  17  18
HETATM   18  CBB   D T1357     -15.228   5.752   0.195  1.00 27.93     0.262 C 
HETATM   19  NAX   D T1357     -15.550   4.562   0.747  1.00 27.49    -0.211 NA
HETATM   20  OAB   D T1357     -15.927   6.776   0.103  1.00 33.48    -0.270 OA
BRANCH  19  21
HETATM   21  CBD   D T1357     -16.854   4.111   0.986  1.00 31.17     0.087 A 
HETATM   22  CAK   D T1357     -17.629   3.389   0.081  1.00 30.64     0.049 A 
HETATM   23  CBC   D T1357     -18.880   2.962   0.440  1.00 33.42     0.142 A 
HETATM   24  FAD   D T1357     -19.683   2.283  -0.612  1.00 41.75    -0.204 F 
HETATM   25  CAG   D T1357     -19.361   3.162   1.734  1.00 32.67     0.030 A 
HETATM   26  CAE   D T1357     -18.577   3.793   2.682  1.00 32.69     0.004 A 
HETATM   27  CAH   D T1357     -17.326   4.256   2.310  1.00 33.60     0.019 A 
ENDBRANCH  19  21
ENDBRANCH  17  18
ENDBRANCH  14  17
ENDBRANCH  11  12
ENDBRANCH   1  11
BRANCH  10  28
HETATM   28  OBA   D T1357     -11.796  -0.549  -9.480  1.00 26.67    -0.331 OA
BRANCH  28  29
HETATM   29  CAQ   D T1357     -12.946  -1.402  -9.666  1.00 28.69     0.151 C 
BRANCH  29  30
HETATM   30  CAP   D T1357     -12.476  -2.729 -10.216  1.00 36.88     0.068 C 
BRANCH  30  31
HETATM   31  CAS   D T1357     -11.807  -2.506 -11.556  1.00 45.24     0.253 C 
BRANCH  31  32
HETATM   32  NBK   D T1357     -12.021  -3.613 -12.535  1.00 52.30     0.140 N 
BRANCH  32  33
HETATM   33  CAO   D T1357     -11.401  -3.305 -13.843  1.00 59.56     0.250 C 
HETATM   34  CAA   D T1357     -10.943  -1.832 -13.812  1.00 58.25     0.037 C 
ENDBRANCH  32  33
BRANCH  32  35
HETATM   35  CAR   D T1357     -13.380  -4.159 -12.780  1.00 61.43     0.285 C 
BRANCH  35  36
HETATM   36  CAN   D T1357     -14.376  -3.109 -13.345  1.00 65.15     0.218 C 
HETATM   37  OAC   D T1357     -14.997  -3.882 -14.386  1.00 70.90    -0.218 OA
ENDBRANCH  35  36
ENDBRANCH  32  35
ENDBRANCH  31  32
ENDBRANCH  30  31
ENDBRANCH  29  30
ENDBRANCH  28  29
ENDBRANCH  10  28
TORSDOF 13
ENDMDL
