MODEL 1
REMARK VINA RESULT:      -7.9      0.000      0.000
REMARK  13 active torsions:
REMARK  status: ('A' for Active; 'I' for Inactive)
REMARK    1  A    between atoms: CBD_7  and  NAX_8 
REMARK       I    between atoms: NAX_8  and  CBB_9 
REMARK    2  A    between atoms: CBB_9  and  CAT_11 
REMARK    3  A    between atoms: CAT_11  and  CBE_12 
REMARK    4  A    between atoms: CBG_16  and  NAY_17 
REMARK    5  A    between atoms: NAY_17  and  C6_18 
REMARK    6  A    between atoms: CBF_27  and  OBA_28 
REMARK    7  A    between atoms: OBA_28  and  CAQ_29 
REMARK    8  A    between atoms: CAQ_29  and  CAP_30 
REMARK    9  A    between atoms: CAP_30  and  CAS_31 
REMARK   10  A    between atoms: CAS_31  and  NBK_32 
REMARK   11  A    between atoms: NBK_32  and  CAO_33 
REMARK   12  A    between atoms: NBK_32  and  CAR_35 
REMARK   13  A    between atoms: CAR_35  and  CAN_36 
ROOT
HETATM    1  C6    D T1357       8.961 -28.965   4.133  1.00 24.40     0.167 A 
HETATM    2  N1    D T1357       9.558 -30.123   4.582  1.00 22.79    -0.205 NA
HETATM    3  C2    D T1357      10.721 -30.024   5.188  1.00 21.83     0.200 A 
HETATM    4  N3    D T1357      11.412 -28.933   5.529  1.00 18.31    -0.224 NA
HETATM    5  C4    D T1357      10.871 -27.731   5.125  1.00 25.22     0.088 A 
HETATM    6  CAM   D T1357      11.629 -26.555   5.373  1.00 18.41     0.043 A 
HETATM    7  C5    D T1357       9.632 -27.728   4.413  1.00 24.34     0.054 A 
HETATM    8  CAJ   D T1357       9.195 -26.435   4.051  1.00 26.00     0.007 A 
HETATM    9  CAI   D T1357       9.924 -25.254   4.332  1.00 25.92     0.024 A 
HETATM   10  CBF   D T1357      11.149 -25.299   5.046  1.00 25.65     0.096 A 
ENDROOT
BRANCH   1  11
HETATM   11  NAY   D T1357       7.783 -29.010   3.401  1.00 27.01    -0.206 NA
BRANCH  11  12
HETATM   12  CBG   D T1357       6.518 -29.242   3.946  1.00 29.06     0.186 A 
HETATM   13  CAL   D T1357       5.551 -30.173   3.762  1.00 25.08     0.058 A 
HETATM   14  CBE   D T1357       4.513 -29.811   4.594  1.00 25.84     0.093 A 
HETATM   15  NAZ   D T1357       4.840 -28.713   5.240  1.00 31.44    -0.150 NA
HETATM   16  NAW   D T1357       6.020 -28.364   4.842  1.00 33.50    -0.129 NA
BRANCH  14  17
HETATM   17  CAT   D T1357       3.135 -30.516   4.781  1.00 28.27     0.138 C 
BRANCH  17  18
HETATM   18  CBB   D T1357       3.347 -31.830   5.632  1.00 27.93     0.262 C 
HETATM   19  NAX   D T1357       3.072 -32.925   4.891  1.00 27.49    -0.211 NA
HETATM   20  OAB   D T1357       3.888 -31.767   6.749  1.00 33.48    -0.270 OA
BRANCH  19  21
HETATM   21  CBD   D T1357       2.990 -34.233   5.386  1.00 31.17     0.087 A 
HETATM   22  CAK   D T1357       1.818 -34.979   5.486  1.00 30.64     0.049 A 
HETATM   23  CBC   D T1357       1.864 -36.268   5.948  1.00 33.42     0.142 A 
HETATM   24  FAD   D T1357       0.562 -36.965   6.117  1.00 41.75    -0.204 F 
HETATM   25  CAG   D T1357       3.082 -36.879   6.241  1.00 32.67     0.030 A 
HETATM   26  CAE   D T1357       4.270 -36.193   6.063  1.00 32.69     0.004 A 
HETATM   27  CAH   D T1357       4.222 -34.881   5.630  1.00 33.60     0.019 A 
ENDBRANCH  19  21
ENDBRANCH  17  18
ENDBRANCH  14  17
ENDBRANCH  11  12
ENDBRANCH   1  11
BRANCH  10  28
HETATM   28  OBA   D T1357      11.824 -24.148   5.375  1.00 26.67    -0.331 OA
BRANCH  28  29
HETATM   29  CAQ   D T1357      11.793 -23.733   6.758  1.00 28.69     0.151 C 
BRANCH  29  30
HETATM   30  CAP   D T1357      10.702 -22.701   6.926  1.00 36.88     0.068 C 
BRANCH  30  31
HETATM   31  CAS   D T1357       9.518 -23.335   7.627  1.00 45.24     0.253 C 
BRANCH  31  32
HETATM   32  NBK   D T1357       8.215 -22.658   7.354  1.00 52.30     0.140 N 
BRANCH  32  33
HETATM   33  CAO   D T1357       7.938 -22.585   5.903  1.00 59.56     0.250 C 
HETATM   34  CAA   D T1357       7.724 -21.101   5.538  1.00 58.25     0.037 C 
ENDBRANCH  32  33
BRANCH  32  35
HETATM   35  CAR   D T1357       7.905 -21.337   7.957  1.00 61.43     0.285 C 
BRANCH  35  36
HETATM   36  CAN   D T1357       6.849 -21.407   9.094  1.00 65.15     0.218 C 
HETATM   37  OAC   D T1357       6.211 -20.130   8.927  1.00 70.90    -0.218 OA
ENDBRANCH  35  36
ENDBRANCH  32  35
ENDBRANCH  31  32
ENDBRANCH  30  31
ENDBRANCH  29  30
ENDBRANCH  28  29
ENDBRANCH  10  28
TORSDOF 13
ENDMDL
MODEL 2
REMARK VINA RESULT:      -7.7      3.667     11.075
REMARK  13 active torsions:
REMARK  status: ('A' for Active; 'I' for Inactive)
REMARK    1  A    between atoms: CBD_7  and  NAX_8 
REMARK       I    between atoms: NAX_8  and  CBB_9 
REMARK    2  A    between atoms: CBB_9  and  CAT_11 
REMARK    3  A    between atoms: CAT_11  and  CBE_12 
REMARK    4  A    between atoms: CBG_16  and  NAY_17 
REMARK    5  A    between atoms: NAY_17  and  C6_18 
REMARK    6  A    between atoms: CBF_27  and  OBA_28 
REMARK    7  A    between atoms: OBA_28  and  CAQ_29 
REMARK    8  A    between atoms: CAQ_29  and  CAP_30 
REMARK    9  A    between atoms: CAP_30  and  CAS_31 
REMARK   10  A    between atoms: CAS_31  and  NBK_32 
REMARK   11  A    between atoms: NBK_32  and  CAO_33 
REMARK   12  A    between atoms: NBK_32  and  CAR_35 
REMARK   13  A    between atoms: CAR_35  and  CAN_36 
ROOT
HETATM    1  C6    D T1357      10.245 -27.373   4.386  1.00 24.40     0.167 A 
HETATM    2  N1    D T1357      11.302 -28.179   4.750  1.00 22.79    -0.205 NA
HETATM    3  C2    D T1357      11.054 -29.443   5.015  1.00 21.83     0.200 A 
HETATM    4  N3    D T1357       9.911 -30.125   4.908  1.00 18.31    -0.224 NA
HETATM    5  C4    D T1357       8.806 -29.389   4.536  1.00 25.22     0.088 A 
HETATM    6  CAM   D T1357       7.552 -30.054   4.516  1.00 18.41     0.043 A 
HETATM    7  C5    D T1357       8.956 -27.992   4.272  1.00 24.34     0.054 A 
HETATM    8  CAJ   D T1357       7.748 -27.357   3.910  1.00 26.00     0.007 A 
HETATM    9  CAI   D T1357       6.501 -28.022   3.846  1.00 25.92     0.024 A 
HETATM   10  CBF   D T1357       6.395 -29.412   4.112  1.00 25.65     0.096 A 
ENDROOT
BRANCH   1  11
HETATM   11  NAY   D T1357      10.424 -26.012   4.188  1.00 27.01    -0.206 NA
BRANCH  11  12
HETATM   12  CBG   D T1357      10.127 -25.026   5.131  1.00 29.06     0.186 A 
HETATM   13  CAL   D T1357       9.540 -25.012   6.352  1.00 25.08     0.058 A 
HETATM   14  CBE   D T1357       9.517 -23.692   6.748  1.00 25.84     0.093 A 
HETATM   15  NAZ   D T1357      10.059 -22.950   5.807  1.00 31.44    -0.150 NA
HETATM   16  NAW   D T1357      10.403 -23.737   4.840  1.00 33.50    -0.129 NA
BRANCH  14  17
HETATM   17  CAT   D T1357       8.940 -23.088   8.065  1.00 28.27     0.138 C 
BRANCH  17  18
HETATM   18  CBB   D T1357       7.565 -22.382   7.741  1.00 27.93     0.262 C 
HETATM   19  NAX   D T1357       7.402 -21.284   8.510  1.00 27.49    -0.211 NA
HETATM   20  OAB   D T1357       6.895 -22.745   6.759  1.00 33.48    -0.270 OA
BRANCH  19  21
HETATM   21  CBD   D T1357       6.224 -20.531   8.600  1.00 31.17     0.087 A 
HETATM   22  CAK   D T1357       5.371 -20.508   9.702  1.00 30.64     0.049 A 
HETATM   23  CBC   D T1357       4.265 -19.700   9.695  1.00 33.42     0.142 A 
HETATM   24  FAD   D T1357       3.353 -19.803  10.865  1.00 41.75    -0.204 F 
HETATM   25  CAG   D T1357       4.023 -18.829   8.633  1.00 32.67     0.030 A 
HETATM   26  CAE   D T1357       4.903 -18.763   7.568  1.00 32.69     0.004 A 
HETATM   27  CAH   D T1357       6.001 -19.604   7.558  1.00 33.60     0.019 A 
ENDBRANCH  19  21
ENDBRANCH  17  18
ENDBRANCH  14  17
ENDBRANCH  11  12
ENDBRANCH   1  11
BRANCH  10  28
HETATM   28  OBA   D T1357       5.195 -30.071   3.987  1.00 26.67    -0.331 OA
BRANCH  28  29
HETATM   29  CAQ   D T1357       4.681 -30.739   5.159  1.00 28.69     0.151 C 
BRANCH  29  30
HETATM   30  CAP   D T1357       4.521 -32.209   4.845  1.00 36.88     0.068 C 
BRANCH  30  31
HETATM   31  CAS   D T1357       3.858 -32.901   6.017  1.00 45.24     0.253 C 
BRANCH  31  32
HETATM   32  NBK   D T1357       3.022 -34.079   5.636  1.00 52.30     0.140 N 
BRANCH  32  33
HETATM   33  CAO   D T1357       3.858 -35.202   5.158  1.00 59.56     0.250 C 
HETATM   34  CAA   D T1357       4.452 -35.908   6.395  1.00 58.25     0.037 C 
ENDBRANCH  32  33
BRANCH  32  35
HETATM   35  CAR   D T1357       1.872 -33.925   4.709  1.00 61.43     0.285 C 
BRANCH  35  36
HETATM   36  CAN   D T1357       2.035 -34.718   3.383  1.00 65.15     0.218 C 
HETATM   37  OAC   D T1357       0.712 -35.265   3.251  1.00 70.90    -0.218 OA
ENDBRANCH  35  36
ENDBRANCH  32  35
ENDBRANCH  31  32
ENDBRANCH  30  31
ENDBRANCH  29  30
ENDBRANCH  28  29
ENDBRANCH  10  28
TORSDOF 13
ENDMDL
MODEL 3
REMARK VINA RESULT:      -7.6      4.971      9.969
REMARK  13 active torsions:
REMARK  status: ('A' for Active; 'I' for Inactive)
REMARK    1  A    between atoms: CBD_7  and  NAX_8 
REMARK       I    between atoms: NAX_8  and  CBB_9 
REMARK    2  A    between atoms: CBB_9  and  CAT_11 
REMARK    3  A    between atoms: CAT_11  and  CBE_12 
REMARK    4  A    between atoms: CBG_16  and  NAY_17 
REMARK    5  A    between atoms: NAY_17  and  C6_18 
REMARK    6  A    between atoms: CBF_27  and  OBA_28 
REMARK    7  A    between atoms: OBA_28  and  CAQ_29 
REMARK    8  A    between atoms: CAQ_29  and  CAP_30 
REMARK    9  A    between atoms: CAP_30  and  CAS_31 
REMARK   10  A    between atoms: CAS_31  and  NBK_32 
REMARK   11  A    between atoms: NBK_32  and  CAO_33 
REMARK   12  A    between atoms: NBK_32  and  CAR_35 
REMARK   13  A    between atoms: CAR_35  and  CAN_36 
ROOT
HETATM    1  C6    D T1357      10.613 -26.583   4.956  1.00 24.40     0.167 A 
HETATM    2  N1    D T1357      11.497 -27.151   4.064  1.00 22.79    -0.205 NA
HETATM    3  C2    D T1357      11.120 -28.238   3.425  1.00 21.83     0.200 A 
HETATM    4  N3    D T1357       9.940 -28.863   3.437  1.00 18.31    -0.224 NA
HETATM    5  C4    D T1357       8.995 -28.345   4.297  1.00 25.22     0.088 A 
HETATM    6  CAM   D T1357       7.765 -29.046   4.418  1.00 18.41     0.043 A 
HETATM    7  C5    D T1357       9.320 -27.193   5.078  1.00 24.34     0.054 A 
HETATM    8  CAJ   D T1357       8.269 -26.772   5.921  1.00 26.00     0.007 A 
HETATM    9  CAI   D T1357       7.025 -27.440   6.017  1.00 25.92     0.024 A 
HETATM   10  CBF   D T1357       6.739 -28.579   5.221  1.00 25.65     0.096 A 
ENDROOT
BRANCH   1  11
HETATM   11  NAY   D T1357      10.986 -25.495   5.731  1.00 27.01    -0.206 NA
BRANCH  11  12
HETATM   12  CBG   D T1357      10.233 -24.327   5.875  1.00 29.06     0.186 A 
HETATM   13  CAL   D T1357       9.488 -23.558   5.045  1.00 25.08     0.058 A 
HETATM   14  CBE   D T1357       9.031 -22.507   5.810  1.00 25.84     0.093 A 
HETATM   15  NAZ   D T1357       9.484 -22.637   7.038  1.00 31.44    -0.150 NA
HETATM   16  NAW   D T1357      10.213 -23.705   7.073  1.00 33.50    -0.129 NA
BRANCH  14  17
HETATM   17  CAT   D T1357       8.139 -21.306   5.368  1.00 28.27     0.138 C 
BRANCH  17  18
HETATM   18  CBB   D T1357       6.838 -21.282   6.263  1.00 27.93     0.262 C 
HETATM   19  NAX   D T1357       6.819 -20.179   7.043  1.00 27.49    -0.211 NA
HETATM   20  OAB   D T1357       5.925 -22.100   6.057  1.00 33.48    -0.270 OA
BRANCH  19  21
HETATM   21  CBD   D T1357       5.902 -19.938   8.074  1.00 31.17     0.087 A 
HETATM   22  CAK   D T1357       4.839 -19.039   8.006  1.00 30.64     0.049 A 
HETATM   23  CBC   D T1357       3.978 -18.915   9.063  1.00 33.42     0.142 A 
HETATM   24  FAD   D T1357       2.928 -17.867   8.953  1.00 41.75    -0.204 F 
HETATM   25  CAG   D T1357       4.095 -19.740  10.181  1.00 32.67     0.030 A 
HETATM   26  CAE   D T1357       5.084 -20.706  10.237  1.00 32.69     0.004 A 
HETATM   27  CAH   D T1357       5.976 -20.808   9.185  1.00 33.60     0.019 A 
ENDBRANCH  19  21
ENDBRANCH  17  18
ENDBRANCH  14  17
ENDBRANCH  11  12
ENDBRANCH   1  11
BRANCH  10  28
HETATM   28  OBA   D T1357       5.508 -29.189   5.266  1.00 26.67    -0.331 OA
BRANCH  28  29
HETATM   29  CAQ   D T1357       4.344 -28.338   5.193  1.00 28.69     0.151 C 
BRANCH  29  30
HETATM   30  CAP   D T1357       3.577 -28.679   3.935  1.00 36.88     0.068 C 
BRANCH  30  31
HETATM   31  CAS   D T1357       3.988 -27.730   2.828  1.00 45.24     0.253 C 
BRANCH  31  32
HETATM   32  NBK   D T1357       3.081 -26.555   2.665  1.00 52.30     0.140 N 
BRANCH  32  33
HETATM   33  CAO   D T1357       3.813 -25.280   2.835  1.00 59.56     0.250 C 
HETATM   34  CAA   D T1357       3.491 -24.735   4.242  1.00 58.25     0.037 C 
ENDBRANCH  32  33
BRANCH  32  35
HETATM   35  CAR   D T1357       1.808 -26.467   3.425  1.00 61.43     0.285 C 
BRANCH  35  36
HETATM   36  CAN   D T1357       0.544 -26.499   2.523  1.00 65.15     0.218 C 
HETATM   37  OAC   D T1357       0.393 -27.917   2.348  1.00 70.90    -0.218 OA
ENDBRANCH  35  36
ENDBRANCH  32  35
ENDBRANCH  31  32
ENDBRANCH  30  31
ENDBRANCH  29  30
ENDBRANCH  28  29
ENDBRANCH  10  28
TORSDOF 13
ENDMDL
MODEL 4
REMARK VINA RESULT:      -7.6      1.808      2.190
REMARK  13 active torsions:
REMARK  status: ('A' for Active; 'I' for Inactive)
REMARK    1  A    between atoms: CBD_7  and  NAX_8 
REMARK       I    between atoms: NAX_8  and  CBB_9 
REMARK    2  A    between atoms: CBB_9  and  CAT_11 
REMARK    3  A    between atoms: CAT_11  and  CBE_12 
REMARK    4  A    between atoms: CBG_16  and  NAY_17 
REMARK    5  A    between atoms: NAY_17  and  C6_18 
REMARK    6  A    between atoms: CBF_27  and  OBA_28 
REMARK    7  A    between atoms: OBA_28  and  CAQ_29 
REMARK    8  A    between atoms: CAQ_29  and  CAP_30 
REMARK    9  A    between atoms: CAP_30  and  CAS_31 
REMARK   10  A    between atoms: CAS_31  and  NBK_32 
REMARK   11  A    between atoms: NBK_32  and  CAO_33 
REMARK   12  A    between atoms: NBK_32  and  CAR_35 
REMARK   13  A    between atoms: CAR_35  and  CAN_36 
ROOT
HETATM    1  C6    D T1357       9.103 -28.997   4.314  1.00 24.40     0.167 A 
HETATM    2  N1    D T1357       9.814 -30.126   4.659  1.00 22.79    -0.205 NA
HETATM    3  C2    D T1357      11.029 -29.969   5.137  1.00 21.83     0.200 A 
HETATM    4  N3    D T1357      11.688 -28.846   5.433  1.00 18.31    -0.224 NA
HETATM    5  C4    D T1357      11.035 -27.670   5.127  1.00 25.22     0.088 A 
HETATM    6  CAM   D T1357      11.745 -26.456   5.325  1.00 18.41     0.043 A 
HETATM    7  C5    D T1357       9.727 -27.728   4.555  1.00 24.34     0.054 A 
HETATM    8  CAJ   D T1357       9.176 -26.456   4.283  1.00 26.00     0.007 A 
HETATM    9  CAI   D T1357       9.861 -25.239   4.518  1.00 25.92     0.024 A 
HETATM   10  CBF   D T1357      11.158 -25.225   5.091  1.00 25.65     0.096 A 
ENDROOT
BRANCH   1  11
HETATM   11  NAY   D T1357       7.855 -29.098   3.715  1.00 27.01    -0.206 NA
BRANCH  11  12
HETATM   12  CBG   D T1357       6.669 -29.388   4.393  1.00 29.06     0.186 A 
HETATM   13  CAL   D T1357       5.656 -30.271   4.219  1.00 25.08     0.058 A 
HETATM   14  CBE   D T1357       4.754 -30.018   5.230  1.00 25.84     0.093 A 
HETATM   15  NAZ   D T1357       5.202 -29.027   5.971  1.00 31.44    -0.150 NA
HETATM   16  NAW   D T1357       6.328 -28.641   5.464  1.00 33.50    -0.129 NA
BRANCH  14  17
HETATM   17  CAT   D T1357       3.391 -30.723   5.508  1.00 28.27     0.138 C 
BRANCH  17  18
HETATM   18  CBB   D T1357       3.405 -32.145   4.819  1.00 27.93     0.262 C 
HETATM   19  NAX   D T1357       3.981 -33.060   5.629  1.00 27.49    -0.211 NA
HETATM   20  OAB   D T1357       2.769 -32.333   3.768  1.00 33.48    -0.270 OA
BRANCH  19  21
HETATM   21  CBD   D T1357       4.309 -34.370   5.259  1.00 31.17     0.087 A 
HETATM   22  CAK   D T1357       5.278 -34.718   4.320  1.00 30.64     0.049 A 
HETATM   23  CBC   D T1357       5.544 -36.037   4.067  1.00 33.42     0.142 A 
HETATM   24  FAD   D T1357       6.521 -36.328   2.985  1.00 41.75    -0.204 F 
HETATM   25  CAG   D T1357       4.920 -37.045   4.800  1.00 32.67     0.030 A 
HETATM   26  CAE   D T1357       4.022 -36.728   5.803  1.00 32.69     0.004 A 
HETATM   27  CAH   D T1357       3.726 -35.397   6.035  1.00 33.60     0.019 A 
ENDBRANCH  19  21
ENDBRANCH  17  18
ENDBRANCH  14  17
ENDBRANCH  11  12
ENDBRANCH   1  11
BRANCH  10  28
HETATM   28  OBA   D T1357      11.796 -24.042   5.378  1.00 26.67    -0.331 OA
BRANCH  28  29
HETATM   29  CAQ   D T1357      11.673 -23.531   6.723  1.00 28.69     0.151 C 
BRANCH  29  30
HETATM   30  CAP   D T1357      10.437 -22.664   6.797  1.00 36.88     0.068 C 
BRANCH  30  31
HETATM   31  CAS   D T1357       9.455 -23.276   7.774  1.00 45.24     0.253 C 
BRANCH  31  32
HETATM   32  NBK   D T1357       8.044 -22.826   7.581  1.00 52.30     0.140 N 
BRANCH  32  33
HETATM   33  CAO   D T1357       7.520 -22.157   8.792  1.00 59.56     0.250 C 
HETATM   34  CAA   D T1357       6.833 -20.848   8.348  1.00 58.25     0.037 C 
ENDBRANCH  32  33
BRANCH  32  35
HETATM   35  CAR   D T1357       7.009 -23.768   7.084  1.00 61.43     0.285 C 
BRANCH  35  36
HETATM   36  CAN   D T1357       6.688 -23.596   5.574  1.00 65.15     0.218 C 
HETATM   37  OAC   D T1357       5.871 -24.757   5.353  1.00 70.90    -0.218 OA
ENDBRANCH  35  36
ENDBRANCH  32  35
ENDBRANCH  31  32
ENDBRANCH  30  31
ENDBRANCH  29  30
ENDBRANCH  28  29
ENDBRANCH  10  28
TORSDOF 13
ENDMDL
MODEL 5
REMARK VINA RESULT:      -7.5      4.069      5.730
REMARK  13 active torsions:
REMARK  status: ('A' for Active; 'I' for Inactive)
REMARK    1  A    between atoms: CBD_7  and  NAX_8 
REMARK       I    between atoms: NAX_8  and  CBB_9 
REMARK    2  A    between atoms: CBB_9  and  CAT_11 
REMARK    3  A    between atoms: CAT_11  and  CBE_12 
REMARK    4  A    between atoms: CBG_16  and  NAY_17 
REMARK    5  A    between atoms: NAY_17  and  C6_18 
REMARK    6  A    between atoms: CBF_27  and  OBA_28 
REMARK    7  A    between atoms: OBA_28  and  CAQ_29 
REMARK    8  A    between atoms: CAQ_29  and  CAP_30 
REMARK    9  A    between atoms: CAP_30  and  CAS_31 
REMARK   10  A    between atoms: CAS_31  and  NBK_32 
REMARK   11  A    between atoms: NBK_32  and  CAO_33 
REMARK   12  A    between atoms: NBK_32  and  CAR_35 
REMARK   13  A    between atoms: CAR_35  and  CAN_36 
ROOT
HETATM    1  C6    D T1357       9.480 -28.947   4.198  1.00 24.40     0.167 A 
HETATM    2  N1    D T1357      10.205 -30.035   4.633  1.00 22.79    -0.205 NA
HETATM    3  C2    D T1357      11.358 -29.813   5.225  1.00 21.83     0.200 A 
HETATM    4  N3    D T1357      11.930 -28.655   5.564  1.00 18.31    -0.224 NA
HETATM    5  C4    D T1357      11.257 -27.517   5.174  1.00 25.22     0.088 A 
HETATM    6  CAM   D T1357      11.885 -26.267   5.419  1.00 18.41     0.043 A 
HETATM    7  C5    D T1357      10.016 -27.645   4.476  1.00 24.34     0.054 A 
HETATM    8  CAJ   D T1357       9.437 -26.406   4.128  1.00 26.00     0.007 A 
HETATM    9  CAI   D T1357      10.036 -25.154   4.406  1.00 25.92     0.024 A 
HETATM   10  CBF   D T1357      11.268 -25.069   5.105  1.00 25.65     0.096 A 
ENDROOT
BRANCH   1  11
HETATM   11  NAY   D T1357       8.304 -29.116   3.480  1.00 27.01    -0.206 NA
BRANCH  11  12
HETATM   12  CBG   D T1357       7.021 -29.012   4.021  1.00 29.06     0.186 A 
HETATM   13  CAL   D T1357       5.762 -29.156   3.540  1.00 25.08     0.058 A 
HETATM   14  CBE   D T1357       4.919 -28.879   4.594  1.00 25.84     0.093 A 
HETATM   15  NAZ   D T1357       5.637 -28.578   5.655  1.00 31.44    -0.150 NA
HETATM   16  NAW   D T1357       6.883 -28.638   5.311  1.00 33.50    -0.129 NA
BRANCH  14  17
HETATM   17  CAT   D T1357       3.360 -28.874   4.608  1.00 28.27     0.138 C 
BRANCH  17  18
HETATM   18  CBB   D T1357       2.844 -27.892   3.483  1.00 27.93     0.262 C 
HETATM   19  NAX   D T1357       2.996 -26.606   3.869  1.00 27.49    -0.211 NA
HETATM   20  OAB   D T1357       2.550 -28.333   2.359  1.00 33.48    -0.270 OA
BRANCH  19  21
HETATM   21  CBD   D T1357       2.485 -25.495   3.187  1.00 31.17     0.087 A 
HETATM   22  CAK   D T1357       3.216 -24.675   2.331  1.00 30.64     0.049 A 
HETATM   23  CBC   D T1357       2.600 -23.637   1.683  1.00 33.42     0.142 A 
HETATM   24  FAD   D T1357       3.466 -22.749   0.864  1.00 41.75    -0.204 F 
HETATM   25  CAG   D T1357       1.224 -23.439   1.799  1.00 32.67     0.030 A 
HETATM   26  CAE   D T1357       0.456 -24.294   2.568  1.00 32.69     0.004 A 
HETATM   27  CAH   D T1357       1.084 -25.321   3.251  1.00 33.60     0.019 A 
ENDBRANCH  19  21
ENDBRANCH  17  18
ENDBRANCH  14  17
ENDBRANCH  11  12
ENDBRANCH   1  11
BRANCH  10  28
HETATM   28  OBA   D T1357      11.818 -23.853   5.432  1.00 26.67    -0.331 OA
BRANCH  28  29
HETATM   29  CAQ   D T1357      11.792 -23.466   6.823  1.00 28.69     0.151 C 
BRANCH  29  30
HETATM   30  CAP   D T1357      10.582 -22.591   7.057  1.00 36.88     0.068 C 
BRANCH  30  31
HETATM   31  CAS   D T1357       9.471 -23.426   7.660  1.00 45.24     0.253 C 
BRANCH  31  32
HETATM   32  NBK   D T1357       8.124 -22.784   7.600  1.00 52.30     0.140 N 
BRANCH  32  33
HETATM   33  CAO   D T1357       7.497 -22.968   6.272  1.00 59.56     0.250 C 
HETATM   34  CAA   D T1357       6.813 -24.351   6.261  1.00 58.25     0.037 C 
ENDBRANCH  32  33
BRANCH  32  35
HETATM   35  CAR   D T1357       7.939 -21.369   8.011  1.00 61.43     0.285 C 
BRANCH  35  36
HETATM   36  CAN   D T1357       6.659 -20.715   7.424  1.00 65.15     0.218 C 
HETATM   37  OAC   D T1357       5.992 -20.327   8.637  1.00 70.90    -0.218 OA
ENDBRANCH  35  36
ENDBRANCH  32  35
ENDBRANCH  31  32
ENDBRANCH  30  31
ENDBRANCH  29  30
ENDBRANCH  28  29
ENDBRANCH  10  28
TORSDOF 13
ENDMDL
MODEL 6
REMARK VINA RESULT:      -7.3      3.776     11.347
REMARK  13 active torsions:
REMARK  status: ('A' for Active; 'I' for Inactive)
REMARK    1  A    between atoms: CBD_7  and  NAX_8 
REMARK       I    between atoms: NAX_8  and  CBB_9 
REMARK    2  A    between atoms: CBB_9  and  CAT_11 
REMARK    3  A    between atoms: CAT_11  and  CBE_12 
REMARK    4  A    between atoms: CBG_16  and  NAY_17 
REMARK    5  A    between atoms: NAY_17  and  C6_18 
REMARK    6  A    between atoms: CBF_27  and  OBA_28 
REMARK    7  A    between atoms: OBA_28  and  CAQ_29 
REMARK    8  A    between atoms: CAQ_29  and  CAP_30 
REMARK    9  A    between atoms: CAP_30  and  CAS_31 
REMARK   10  A    between atoms: CAS_31  and  NBK_32 
REMARK   11  A    between atoms: NBK_32  and  CAO_33 
REMARK   12  A    between atoms: NBK_32  and  CAR_35 
REMARK   13  A    between atoms: CAR_35  and  CAN_36 
ROOT
HETATM    1  C6    D T1357       6.204 -27.152   4.374  1.00 24.40     0.167 A 
HETATM    2  N1    D T1357       5.847 -26.451   3.243  1.00 22.79    -0.205 NA
HETATM    3  C2    D T1357       4.638 -26.634   2.756  1.00 21.83     0.200 A 
HETATM    4  N3    D T1357       3.627 -27.357   3.244  1.00 18.31    -0.224 NA
HETATM    5  C4    D T1357       3.903 -28.080   4.386  1.00 25.22     0.088 A 
HETATM    6  CAM   D T1357       2.888 -28.945   4.874  1.00 18.41     0.043 A 
HETATM    7  C5    D T1357       5.205 -27.992   4.969  1.00 24.34     0.054 A 
HETATM    8  CAJ   D T1357       5.356 -28.787   6.126  1.00 26.00     0.007 A 
HETATM    9  CAI   D T1357       4.336 -29.620   6.644  1.00 25.92     0.024 A 
HETATM   10  CBF   D T1357       3.055 -29.676   6.038  1.00 25.65     0.096 A 
ENDROOT
BRANCH   1  11
HETATM   11  NAY   D T1357       7.494 -27.078   4.879  1.00 27.01    -0.206 NA
BRANCH  11  12
HETATM   12  CBG   D T1357       8.204 -25.890   5.072  1.00 29.06     0.186 A 
HETATM   13  CAL   D T1357       7.998 -24.754   5.781  1.00 25.08     0.058 A 
HETATM   14  CBE   D T1357       9.077 -23.940   5.515  1.00 25.84     0.093 A 
HETATM   15  NAZ   D T1357       9.888 -24.555   4.682  1.00 31.44    -0.150 NA
HETATM   16  NAW   D T1357       9.362 -25.704   4.404  1.00 33.50    -0.129 NA
BRANCH  14  17
HETATM   17  CAT   D T1357       9.357 -22.501   6.049  1.00 28.27     0.138 C 
BRANCH  17  18
HETATM   18  CBB   D T1357       7.983 -21.733   6.184  1.00 27.93     0.262 C 
HETATM   19  NAX   D T1357       7.843 -21.225   7.428  1.00 27.49    -0.211 NA
HETATM   20  OAB   D T1357       7.294 -21.508   5.174  1.00 33.48    -0.270 OA
BRANCH  19  21
HETATM   21  CBD   D T1357       6.674 -20.641   7.933  1.00 31.17     0.087 A 
HETATM   22  CAK   D T1357       6.096 -20.943   9.164  1.00 30.64     0.049 A 
HETATM   23  CBC   D T1357       4.972 -20.278   9.574  1.00 33.42     0.142 A 
HETATM   24  FAD   D T1357       4.359 -20.723  10.853  1.00 41.75    -0.204 F 
HETATM   25  CAG   D T1357       4.442 -19.235   8.815  1.00 32.67     0.030 A 
HETATM   26  CAE   D T1357       5.048 -18.851   7.633  1.00 32.69     0.004 A 
HETATM   27  CAH   D T1357       6.164 -19.546   7.201  1.00 33.60     0.019 A 
ENDBRANCH  19  21
ENDBRANCH  17  18
ENDBRANCH  14  17
ENDBRANCH  11  12
ENDBRANCH   1  11
BRANCH  10  28
HETATM   28  OBA   D T1357       2.044 -30.435   6.578  1.00 26.67    -0.331 OA
BRANCH  28  29
HETATM   29  CAQ   D T1357       1.358 -31.350   5.696  1.00 28.69     0.151 C 
BRANCH  29  30
HETATM   30  CAP   D T1357       1.823 -32.755   6.005  1.00 36.88     0.068 C 
BRANCH  30  31
HETATM   31  CAS   D T1357       2.010 -33.516   4.709  1.00 45.24     0.253 C 
BRANCH  31  32
HETATM   32  NBK   D T1357       3.297 -34.270   4.625  1.00 52.30     0.140 N 
BRANCH  32  33
HETATM   33  CAO   D T1357       3.915 -34.432   5.960  1.00 59.56     0.250 C 
HETATM   34  CAA   D T1357       4.290 -35.920   6.128  1.00 58.25     0.037 C 
ENDBRANCH  32  33
BRANCH  32  35
HETATM   35  CAR   D T1357       4.355 -33.861   3.667  1.00 61.43     0.285 C 
BRANCH  35  36
HETATM   36  CAN   D T1357       5.356 -32.828   4.252  1.00 65.15     0.218 C 
HETATM   37  OAC   D T1357       4.822 -31.615   3.696  1.00 70.90    -0.218 OA
ENDBRANCH  35  36
ENDBRANCH  32  35
ENDBRANCH  31  32
ENDBRANCH  30  31
ENDBRANCH  29  30
ENDBRANCH  28  29
ENDBRANCH  10  28
TORSDOF 13
ENDMDL
MODEL 7
REMARK VINA RESULT:      -7.3      2.068      2.828
REMARK  13 active torsions:
REMARK  status: ('A' for Active; 'I' for Inactive)
REMARK    1  A    between atoms: CBD_7  and  NAX_8 
REMARK       I    between atoms: NAX_8  and  CBB_9 
REMARK    2  A    between atoms: CBB_9  and  CAT_11 
REMARK    3  A    between atoms: CAT_11  and  CBE_12 
REMARK    4  A    between atoms: CBG_16  and  NAY_17 
REMARK    5  A    between atoms: NAY_17  and  C6_18 
REMARK    6  A    between atoms: CBF_27  and  OBA_28 
REMARK    7  A    between atoms: OBA_28  and  CAQ_29 
REMARK    8  A    between atoms: CAQ_29  and  CAP_30 
REMARK    9  A    between atoms: CAP_30  and  CAS_31 
REMARK   10  A    between atoms: CAS_31  and  NBK_32 
REMARK   11  A    between atoms: NBK_32  and  CAO_33 
REMARK   12  A    between atoms: NBK_32  and  CAR_35 
REMARK   13  A    between atoms: CAR_35  and  CAN_36 
ROOT
HETATM    1  C6    D T1357       9.151 -27.580   4.137  1.00 24.40     0.167 A 
HETATM    2  N1    D T1357      10.336 -28.241   4.379  1.00 22.79    -0.205 NA
HETATM    3  C2    D T1357      11.333 -27.555   4.894  1.00 21.83     0.200 A 
HETATM    4  N3    D T1357      11.365 -26.288   5.314  1.00 18.31    -0.224 NA
HETATM    5  C4    D T1357      10.210 -25.562   5.117  1.00 25.22     0.088 A 
HETATM    6  CAM   D T1357      10.238 -24.182   5.452  1.00 18.41     0.043 A 
HETATM    7  C5    D T1357       9.079 -26.199   4.518  1.00 24.34     0.054 A 
HETATM    8  CAJ   D T1357       7.967 -25.342   4.366  1.00 26.00     0.007 A 
HETATM    9  CAI   D T1357       7.973 -23.976   4.736  1.00 25.92     0.024 A 
HETATM   10  CBF   D T1357       9.115 -23.382   5.332  1.00 25.65     0.096 A 
ENDROOT
BRANCH   1  11
HETATM   11  NAY   D T1357       8.094 -28.222   3.507  1.00 27.01    -0.206 NA
BRANCH  11  12
HETATM   12  CBG   D T1357       6.966 -28.724   4.161  1.00 29.06     0.186 A 
HETATM   13  CAL   D T1357       5.847 -29.382   3.773  1.00 25.08     0.058 A 
HETATM   14  CBE   D T1357       5.098 -29.562   4.916  1.00 25.84     0.093 A 
HETATM   15  NAZ   D T1357       5.735 -29.032   5.938  1.00 31.44    -0.150 NA
HETATM   16  NAW   D T1357       6.834 -28.519   5.488  1.00 33.50    -0.129 NA
BRANCH  14  17
HETATM   17  CAT   D T1357       3.704 -30.246   5.059  1.00 28.27     0.138 C 
BRANCH  17  18
HETATM   18  CBB   D T1357       3.791 -31.707   4.462  1.00 27.93     0.262 C 
HETATM   19  NAX   D T1357       4.200 -32.582   5.406  1.00 27.49    -0.211 NA
HETATM   20  OAB   D T1357       3.330 -31.945   3.333  1.00 33.48    -0.270 OA
BRANCH  19  21
HETATM   21  CBD   D T1357       4.548 -33.918   5.168  1.00 31.17     0.087 A 
HETATM   22  CAK   D T1357       5.489 -34.346   4.235  1.00 30.64     0.049 A 
HETATM   23  CBC   D T1357       5.780 -35.679   4.117  1.00 33.42     0.142 A 
HETATM   24  FAD   D T1357       6.722 -36.067   3.034  1.00 41.75    -0.204 F 
HETATM   25  CAG   D T1357       5.210 -36.614   4.981  1.00 32.67     0.030 A 
HETATM   26  CAE   D T1357       4.343 -36.207   5.978  1.00 32.69     0.004 A 
HETATM   27  CAH   D T1357       4.021 -34.865   6.075  1.00 33.60     0.019 A 
ENDBRANCH  19  21
ENDBRANCH  17  18
ENDBRANCH  14  17
ENDBRANCH  11  12
ENDBRANCH   1  11
BRANCH  10  28
HETATM   28  OBA   D T1357       9.100 -22.073   5.751  1.00 26.67    -0.331 OA
BRANCH  28  29
HETATM   29  CAQ   D T1357       8.250 -21.156   5.029  1.00 28.69     0.151 C 
BRANCH  29  30
HETATM   30  CAP   D T1357       7.479 -20.325   6.029  1.00 36.88     0.068 C 
BRANCH  30  31
HETATM   31  CAS   D T1357       6.477 -21.207   6.744  1.00 45.24     0.253 C 
BRANCH  31  32
HETATM   32  NBK   D T1357       6.043 -20.683   8.074  1.00 52.30     0.140 N 
BRANCH  32  33
HETATM   33  CAO   D T1357       6.399 -21.616   9.165  1.00 59.56     0.250 C 
HETATM   34  CAA   D T1357       7.606 -22.454   8.695  1.00 58.25     0.037 C 
ENDBRANCH  32  33
BRANCH  32  35
HETATM   35  CAR   D T1357       4.647 -20.223   8.289  1.00 61.43     0.285 C 
BRANCH  35  36
HETATM   36  CAN   D T1357       4.383 -18.782   7.773  1.00 65.15     0.218 C 
HETATM   37  OAC   D T1357       5.442 -18.075   8.440  1.00 70.90    -0.218 OA
ENDBRANCH  35  36
ENDBRANCH  32  35
ENDBRANCH  31  32
ENDBRANCH  30  31
ENDBRANCH  29  30
ENDBRANCH  28  29
ENDBRANCH  10  28
TORSDOF 13
ENDMDL
MODEL 8
REMARK VINA RESULT:      -7.2      1.752      2.356
REMARK  13 active torsions:
REMARK  status: ('A' for Active; 'I' for Inactive)
REMARK    1  A    between atoms: CBD_7  and  NAX_8 
REMARK       I    between atoms: NAX_8  and  CBB_9 
REMARK    2  A    between atoms: CBB_9  and  CAT_11 
REMARK    3  A    between atoms: CAT_11  and  CBE_12 
REMARK    4  A    between atoms: CBG_16  and  NAY_17 
REMARK    5  A    between atoms: NAY_17  and  C6_18 
REMARK    6  A    between atoms: CBF_27  and  OBA_28 
REMARK    7  A    between atoms: OBA_28  and  CAQ_29 
REMARK    8  A    between atoms: CAQ_29  and  CAP_30 
REMARK    9  A    between atoms: CAP_30  and  CAS_31 
REMARK   10  A    between atoms: CAS_31  and  NBK_32 
REMARK   11  A    between atoms: NBK_32  and  CAO_33 
REMARK   12  A    between atoms: NBK_32  and  CAR_35 
REMARK   13  A    between atoms: CAR_35  and  CAN_36 
ROOT
HETATM    1  C6    D T1357       9.209 -27.766   4.059  1.00 24.40     0.167 A 
HETATM    2  N1    D T1357      10.357 -28.506   4.238  1.00 22.79    -0.205 NA
HETATM    3  C2    D T1357      11.399 -27.911   4.778  1.00 21.83     0.200 A 
HETATM    4  N3    D T1357      11.507 -26.678   5.279  1.00 18.31    -0.224 NA
HETATM    5  C4    D T1357      10.392 -25.877   5.149  1.00 25.22     0.088 A 
HETATM    6  CAM   D T1357      10.503 -24.526   5.571  1.00 18.41     0.043 A 
HETATM    7  C5    D T1357       9.220 -26.411   4.529  1.00 24.34     0.054 A 
HETATM    8  CAJ   D T1357       8.156 -25.486   4.452  1.00 26.00     0.007 A 
HETATM    9  CAI   D T1357       8.244 -24.149   4.909  1.00 25.92     0.024 A 
HETATM   10  CBF   D T1357       9.425 -23.659   5.522  1.00 25.65     0.096 A 
ENDROOT
BRANCH   1  11
HETATM   11  NAY   D T1357       8.109 -28.306   3.407  1.00 27.01    -0.206 NA
BRANCH  11  12
HETATM   12  CBG   D T1357       6.976 -28.814   4.048  1.00 29.06     0.186 A 
HETATM   13  CAL   D T1357       5.916 -29.567   3.667  1.00 25.08     0.058 A 
HETATM   14  CBE   D T1357       5.118 -29.690   4.783  1.00 25.84     0.093 A 
HETATM   15  NAZ   D T1357       5.669 -29.037   5.783  1.00 31.44    -0.150 NA
HETATM   16  NAW   D T1357       6.761 -28.501   5.343  1.00 33.50    -0.129 NA
BRANCH  14  17
HETATM   17  CAT   D T1357       3.757 -30.439   4.920  1.00 28.27     0.138 C 
BRANCH  17  18
HETATM   18  CBB   D T1357       4.013 -31.839   5.605  1.00 27.93     0.262 C 
HETATM   19  NAX   D T1357       4.444 -32.741   4.697  1.00 27.49    -0.211 NA
HETATM   20  OAB   D T1357       3.990 -31.939   6.844  1.00 33.48    -0.270 OA
BRANCH  19  21
HETATM   21  CBD   D T1357       4.597 -34.112   4.934  1.00 31.17     0.087 A 
HETATM   22  CAK   D T1357       3.734 -34.893   5.699  1.00 30.64     0.049 A 
HETATM   23  CBC   D T1357       3.959 -36.238   5.829  1.00 33.42     0.142 A 
HETATM   24  FAD   D T1357       3.052 -36.985   6.739  1.00 41.75    -0.204 F 
HETATM   25  CAG   D T1357       4.995 -36.859   5.132  1.00 32.67     0.030 A 
HETATM   26  CAE   D T1357       5.811 -36.125   4.291  1.00 32.69     0.004 A 
HETATM   27  CAH   D T1357       5.606 -34.761   4.187  1.00 33.60     0.019 A 
ENDBRANCH  19  21
ENDBRANCH  17  18
ENDBRANCH  14  17
ENDBRANCH  11  12
ENDBRANCH   1  11
BRANCH  10  28
HETATM   28  OBA   D T1357       9.489 -22.381   6.024  1.00 26.67    -0.331 OA
BRANCH  28  29
HETATM   29  CAQ   D T1357       8.416 -21.479   5.681  1.00 28.69     0.151 C 
BRANCH  29  30
HETATM   30  CAP   D T1357       7.609 -21.194   6.927  1.00 36.88     0.068 C 
BRANCH  30  31
HETATM   31  CAS   D T1357       6.162 -21.566   6.681  1.00 45.24     0.253 C 
BRANCH  31  32
HETATM   32  NBK   D T1357       5.189 -20.839   7.550  1.00 52.30     0.140 N 
BRANCH  32  33
HETATM   33  CAO   D T1357       5.256 -19.377   7.330  1.00 59.56     0.250 C 
HETATM   34  CAA   D T1357       3.863 -18.790   7.635  1.00 58.25     0.037 C 
ENDBRANCH  32  33
BRANCH  32  35
HETATM   35  CAR   D T1357       5.144 -21.089   9.013  1.00 61.43     0.285 C 
BRANCH  35  36
HETATM   36  CAN   D T1357       5.929 -20.039   9.846  1.00 65.15     0.218 C 
HETATM   37  OAC   D T1357       5.115 -19.994  11.030  1.00 70.90    -0.218 OA
ENDBRANCH  35  36
ENDBRANCH  32  35
ENDBRANCH  31  32
ENDBRANCH  30  31
ENDBRANCH  29  30
ENDBRANCH  28  29
ENDBRANCH  10  28
TORSDOF 13
ENDMDL
MODEL 9
REMARK VINA RESULT:      -7.1      4.105     11.613
REMARK  13 active torsions:
REMARK  status: ('A' for Active; 'I' for Inactive)
REMARK    1  A    between atoms: CBD_7  and  NAX_8 
REMARK       I    between atoms: NAX_8  and  CBB_9 
REMARK    2  A    between atoms: CBB_9  and  CAT_11 
REMARK    3  A    between atoms: CAT_11  and  CBE_12 
REMARK    4  A    between atoms: CBG_16  and  NAY_17 
REMARK    5  A    between atoms: NAY_17  and  C6_18 
REMARK    6  A    between atoms: CBF_27  and  OBA_28 
REMARK    7  A    between atoms: OBA_28  and  CAQ_29 
REMARK    8  A    between atoms: CAQ_29  and  CAP_30 
REMARK    9  A    between atoms: CAP_30  and  CAS_31 
REMARK   10  A    between atoms: CAS_31  and  NBK_32 
REMARK   11  A    between atoms: NBK_32  and  CAO_33 
REMARK   12  A    between atoms: NBK_32  and  CAR_35 
REMARK   13  A    between atoms: CAR_35  and  CAN_36 
ROOT
HETATM    1  C6    D T1357       5.957 -26.245   4.437  1.00 24.40     0.167 A 
HETATM    2  N1    D T1357       5.144 -25.312   3.831  1.00 22.79    -0.205 NA
HETATM    3  C2    D T1357       3.857 -25.571   3.751  1.00 21.83     0.200 A 
HETATM    4  N3    D T1357       3.164 -26.596   4.254  1.00 18.31    -0.224 NA
HETATM    5  C4    D T1357       3.907 -27.569   4.889  1.00 25.22     0.088 A 
HETATM    6  CAM   D T1357       3.221 -28.727   5.342  1.00 18.41     0.043 A 
HETATM    7  C5    D T1357       5.324 -27.410   4.987  1.00 24.34     0.054 A 
HETATM    8  CAJ   D T1357       5.965 -28.479   5.651  1.00 26.00     0.007 A 
HETATM    9  CAI   D T1357       5.282 -29.617   6.143  1.00 25.92     0.024 A 
HETATM   10  CBF   D T1357       3.873 -29.735   6.029  1.00 25.65     0.096 A 
ENDROOT
BRANCH   1  11
HETATM   11  NAY   D T1357       7.334 -26.076   4.467  1.00 27.01    -0.206 NA
BRANCH  11  12
HETATM   12  CBG   D T1357       7.996 -25.071   5.176  1.00 29.06     0.186 A 
HETATM   13  CAL   D T1357       7.716 -24.329   6.275  1.00 25.08     0.058 A 
HETATM   14  CBE   D T1357       8.783 -23.472   6.435  1.00 25.84     0.093 A 
HETATM   15  NAZ   D T1357       9.657 -23.685   5.475  1.00 31.44    -0.150 NA
HETATM   16  NAW   D T1357       9.182 -24.619   4.717  1.00 33.50    -0.129 NA
BRANCH  14  17
HETATM   17  CAT   D T1357       8.990 -22.381   7.531  1.00 28.27     0.138 C 
BRANCH  17  18
HETATM   18  CBB   D T1357       7.810 -21.334   7.434  1.00 27.93     0.262 C 
HETATM   19  NAX   D T1357       7.187 -21.210   8.626  1.00 27.49    -0.211 NA
HETATM   20  OAB   D T1357       7.686 -20.629   6.419  1.00 33.48    -0.270 OA
BRANCH  19  21
HETATM   21  CBD   D T1357       5.998 -20.502   8.843  1.00 31.17     0.087 A 
HETATM   22  CAK   D T1357       5.266 -19.846   7.857  1.00 30.64     0.049 A 
HETATM   23  CBC   D T1357       4.092 -19.218   8.178  1.00 33.42     0.142 A 
HETATM   24  FAD   D T1357       3.419 -18.458   7.092  1.00 41.75    -0.204 F 
HETATM   25  CAG   D T1357       3.569 -19.299   9.468  1.00 32.67     0.030 A 
HETATM   26  CAE   D T1357       4.226 -20.022  10.446  1.00 32.69     0.004 A 
HETATM   27  CAH   D T1357       5.430 -20.627  10.131  1.00 33.60     0.019 A 
ENDBRANCH  19  21
ENDBRANCH  17  18
ENDBRANCH  14  17
ENDBRANCH  11  12
ENDBRANCH   1  11
BRANCH  10  28
HETATM   28  OBA   D T1357       3.204 -30.809   6.564  1.00 26.67    -0.331 OA
BRANCH  28  29
HETATM   29  CAQ   D T1357       3.796 -32.115   6.389  1.00 28.69     0.151 C 
BRANCH  29  30
HETATM   30  CAP   D T1357       3.395 -32.647   5.032  1.00 36.88     0.068 C 
BRANCH  30  31
HETATM   31  CAS   D T1357       3.422 -34.161   5.062  1.00 45.24     0.253 C 
BRANCH  31  32
HETATM   32  NBK   D T1357       4.551 -34.765   4.293  1.00 52.30     0.140 N 
BRANCH  32  33
HETATM   33  CAO   D T1357       5.234 -35.819   5.074  1.00 59.56     0.250 C 
HETATM   34  CAA   D T1357       4.501 -35.956   6.425  1.00 58.25     0.037 C 
ENDBRANCH  32  33
BRANCH  32  35
HETATM   35  CAR   D T1357       5.586 -33.906   3.663  1.00 61.43     0.285 C 
BRANCH  35  36
HETATM   36  CAN   D T1357       5.476 -33.835   2.115  1.00 65.15     0.218 C 
HETATM   37  OAC   D T1357       4.672 -35.000   1.865  1.00 70.90    -0.218 OA
ENDBRANCH  35  36
ENDBRANCH  32  35
ENDBRANCH  31  32
ENDBRANCH  30  31
ENDBRANCH  29  30
ENDBRANCH  28  29
ENDBRANCH  10  28
TORSDOF 13
ENDMDL
