MODEL 1
REMARK VINA RESULT:    -9.621      0.000      0.000
REMARK INTER + INTRA:         -14.176
REMARK INTER:                 -13.558
REMARK INTRA:                  -0.619
REMARK UNBOUND:                -0.619
REMARK  7 active torsions:
REMARK  status: ('A' for Active; 'I' for Inactive)
REMARK    1  A    between atoms: N3_2  and  C20_12 
REMARK    2  A    between atoms: C4_3  and  C5_4 
REMARK    3  A    between atoms: C13_9  and  N2_29 
REMARK    4  A    between atoms: C17_11  and  C19_33 
REMARK    5  A    between atoms: C20_12  and  C16_31 
REMARK    6  A    between atoms: C2_23  and  C3_24 
REMARK    7  A    between atoms: C9_25  and  C12_27 
REMARK       I    between atoms: C12_27  and  N2_29 
ROOT
HETATM    1  C12   D T1000       9.417   3.115  -0.290  1.00 43.27     0.279 C 
HETATM    2  O1    D T1000       9.064   4.287  -0.081  1.00 42.40    -0.265 OA
HETATM    3  N2    D T1000       9.047   2.380  -1.508  1.00 39.93    -0.208 NA
ENDROOT
BRANCH   1   4
HETATM    4  C9    D T1000      10.369   2.491   0.719  1.00 40.54     0.059 A 
HETATM    5  C8    D T1000      10.889   3.160   1.812  1.00 39.10     0.004 A 
HETATM    6  C7    D T1000      11.707   2.472   2.733  1.00 41.02    -0.004 A 
HETATM    7  C6    D T1000      11.991   1.102   2.598  1.00 41.29    -0.014 A 
HETATM    8  C5    D T1000      11.474   0.458   1.508  1.00 41.18     0.038 A 
HETATM    9  C11   D T1000      12.846   0.363   3.584  1.00 38.87     0.032 C 
HETATM   10  C10   D T1000      10.620   1.127   0.591  1.00 39.13     0.013 A 
BRANCH   8  11
HETATM   11  C4    D T1000      11.660  -1.016   1.254  1.00 40.03    -0.058 C 
HETATM   12  C3    D T1000      11.783  -2.163   1.006  1.00 38.63    -0.039 C 
BRANCH  12  13
HETATM   13  C2    D T1000      12.013  -3.595   0.698  1.00 38.26     0.145 A 
HETATM   14  N82   D T1000      12.188  -4.245  -0.493  1.00 40.77    -0.203 N 
HETATM   15  N81   D T1000      12.182  -3.790  -1.787  1.00 38.88    -0.162 NA
HETATM   16  C84   D T1000      12.396  -5.572  -0.180  1.00 40.90     0.165 A 
HETATM   17  C83   D T1000      12.404  -4.657  -2.785  1.00 41.85     0.121 A 
HETATM   18  C82   D T1000      12.621  -5.991  -2.528  1.00 42.85     0.026 A 
HETATM   19  C81   D T1000      12.618  -6.482  -1.236  1.00 42.17     0.041 A 
HETATM   20  N1    D T1000      12.332  -5.734   1.154  1.00 37.62    -0.223 NA
HETATM   21  C1    D T1000      12.101  -4.553   1.711  1.00 35.75     0.128 A 
ENDBRANCH  12  13
ENDBRANCH   8  11
ENDBRANCH   1   4
BRANCH   3  22
HETATM   22  C13   D T1000       8.252   2.884  -2.581  1.00 41.48     0.085 A 
HETATM   23  C14   D T1000       6.908   2.652  -2.731  1.00 41.52     0.019 A 
HETATM   24  C15   D T1000       6.254   3.158  -3.865  1.00 43.29    -0.001 A 
HETATM   25  C16   D T1000       6.946   3.868  -4.852  1.00 41.94     0.004 A 
HETATM   26  C17   D T1000       8.295   4.104  -4.727  1.00 41.92     0.071 A 
HETATM   27  C18   D T1000       8.951   3.579  -3.601  1.00 42.85     0.023 A 
BRANCH  25  28
HETATM   28  C20   D T1000       6.093   4.341  -6.033  1.00 42.14     0.124 C 
BRANCH  28  29
HETATM   29  N3    D T1000       5.822   3.177  -6.924  1.00 43.91    -0.362 N 
HETATM   30  C21   D T1000       6.042   3.487  -8.332  1.00 45.37     0.121 C 
HETATM   31  C22   D T1000       5.570   2.315  -9.162  1.00 47.91     0.121 C 
HETATM   32  N4    D T1000       6.216   1.077  -8.761  1.00 47.69    -0.364 N 
HETATM   33  C23   D T1000       6.947   1.095  -7.525  1.00 46.74     0.121 C 
HETATM   34  C25   D T1000       6.568   0.129  -9.812  1.00 50.05     0.121 C 
HETATM   35  C24   D T1000       6.175   1.854  -6.468  1.00 45.99     0.121 C 
ENDBRANCH  28  29
ENDBRANCH  25  28
BRANCH  26  36
HETATM   36  C19   D T1000       9.070   4.841  -5.790  1.00 48.32     0.419 C 
HETATM   37  F1    D T1000      10.341   4.892  -5.354  1.00 50.04    -0.166 F 
HETATM   38  F2    D T1000       8.673   6.121  -5.903  1.00 52.24    -0.166 F 
HETATM   39  F3    D T1000       8.974   4.228  -6.984  1.00 44.36    -0.166 F 
ENDBRANCH  26  36
ENDBRANCH   3  22
TORSDOF 7
ENDMDL
MODEL 2
REMARK VINA RESULT:    -9.111      5.740     11.514
REMARK INTER + INTRA:         -13.458
REMARK INTER:                 -12.735
REMARK INTRA:                  -0.723
REMARK UNBOUND:                -0.619
REMARK  7 active torsions:
REMARK  status: ('A' for Active; 'I' for Inactive)
REMARK    1  A    between atoms: N3_2  and  C20_12 
REMARK    2  A    between atoms: C4_3  and  C5_4 
REMARK    3  A    between atoms: C13_9  and  N2_29 
REMARK    4  A    between atoms: C17_11  and  C19_33 
REMARK    5  A    between atoms: C20_12  and  C16_31 
REMARK    6  A    between atoms: C2_23  and  C3_24 
REMARK    7  A    between atoms: C9_25  and  C12_27 
REMARK       I    between atoms: C12_27  and  N2_29 
ROOT
HETATM    1  C12   D T1000       9.530   4.196   0.436  1.00 43.27     0.279 C 
HETATM    2  O1    D T1000       8.478   3.902   1.025  1.00 42.40    -0.265 OA
HETATM    3  N2    D T1000      10.464   5.213   0.939  1.00 39.93    -0.208 NA
ENDROOT
BRANCH   1   4
HETATM    4  C9    D T1000       9.894   3.362  -0.784  1.00 40.54     0.059 A 
HETATM    5  C8    D T1000      10.657   2.210  -0.737  1.00 39.10     0.004 A 
HETATM    6  C7    D T1000      10.879   1.466  -1.915  1.00 41.02    -0.004 A 
HETATM    7  C6    D T1000      10.315   1.837  -3.148  1.00 41.29    -0.014 A 
HETATM    8  C5    D T1000       9.568   2.983  -3.177  1.00 41.18     0.038 A 
HETATM    9  C11   D T1000      10.533   1.040  -4.398  1.00 38.87     0.032 C 
HETATM   10  C10   D T1000       9.306   3.724  -1.994  1.00 39.13     0.013 A 
BRANCH   8  11
HETATM   11  C4    D T1000       8.869   3.482  -4.415  1.00 40.03    -0.058 C 
HETATM   12  C3    D T1000       8.344   3.832  -5.412  1.00 38.63    -0.039 C 
BRANCH  12  13
HETATM   13  C2    D T1000       7.617   4.258  -6.632  1.00 38.26     0.145 A 
HETATM   14  N82   D T1000       6.866   3.548  -7.529  1.00 40.77    -0.203 N 
HETATM   15  N81   D T1000       6.563   2.212  -7.606  1.00 38.88    -0.162 NA
HETATM   16  C84   D T1000       6.402   4.462  -8.451  1.00 40.90     0.165 A 
HETATM   17  C83   D T1000       5.772   1.779  -8.597  1.00 41.85     0.121 A 
HETATM   18  C82   D T1000       5.279   2.649  -9.541  1.00 42.85     0.026 A 
HETATM   19  C81   D T1000       5.579   3.998  -9.499  1.00 42.17     0.041 A 
HETATM   20  N1    D T1000       6.867   5.687  -8.143  1.00 37.62    -0.223 NA
HETATM   21  C1    D T1000       7.606   5.592  -7.046  1.00 35.75     0.128 A 
ENDBRANCH  12  13
ENDBRANCH   8  11
ENDBRANCH   1   4
BRANCH   3  22
HETATM   22  C13   D T1000      10.297   5.988   2.126  1.00 41.48     0.085 A 
HETATM   23  C14   D T1000      10.259   7.358   2.164  1.00 41.52     0.019 A 
HETATM   24  C15   D T1000      10.149   8.001   3.406  1.00 43.29    -0.001 A 
HETATM   25  C16   D T1000      10.104   7.278   4.602  1.00 41.94     0.004 A 
HETATM   26  C17   D T1000      10.150   5.903   4.589  1.00 41.92     0.071 A 
HETATM   27  C18   D T1000      10.281   5.263   3.346  1.00 42.85     0.023 A 
BRANCH  25  28
HETATM   28  C20   D T1000       9.997   8.125   5.873  1.00 42.14     0.124 C 
BRANCH  28  29
HETATM   29  N3    D T1000       8.558   8.395   6.150  1.00 43.91    -0.362 N 
HETATM   30  C21   D T1000       8.117   7.828   7.419  1.00 45.37     0.121 C 
HETATM   31  C22   D T1000       6.618   7.993   7.525  1.00 47.91     0.121 C 
HETATM   32  N4    D T1000       6.218   9.381   7.372  1.00 47.69    -0.364 N 
HETATM   33  C23   D T1000       7.213  10.296   6.886  1.00 46.74     0.121 C 
HETATM   34  C25   D T1000       5.117   9.861   8.198  1.00 50.05     0.121 C 
HETATM   35  C24   D T1000       8.000   9.667   5.757  1.00 45.99     0.121 C 
ENDBRANCH  28  29
ENDBRANCH  25  28
BRANCH  26  36
HETATM   36  C19   D T1000      10.132   5.100   5.866  1.00 48.32     0.419 C 
HETATM   37  F1    D T1000       8.841   5.008   6.228  1.00 50.04    -0.166 F 
HETATM   38  F2    D T1000      10.747   5.746   6.873  1.00 52.24    -0.166 F 
HETATM   39  F3    D T1000      10.693   3.889   5.693  1.00 44.36    -0.166 F 
ENDBRANCH  26  36
ENDBRANCH   3  22
TORSDOF 7
ENDMDL
MODEL 3
REMARK VINA RESULT:    -9.027      6.408     10.036
REMARK INTER + INTRA:         -13.340
REMARK INTER:                 -12.358
REMARK INTRA:                  -0.982
REMARK UNBOUND:                -0.619
REMARK  7 active torsions:
REMARK  status: ('A' for Active; 'I' for Inactive)
REMARK    1  A    between atoms: N3_2  and  C20_12 
REMARK    2  A    between atoms: C4_3  and  C5_4 
REMARK    3  A    between atoms: C13_9  and  N2_29 
REMARK    4  A    between atoms: C17_11  and  C19_33 
REMARK    5  A    between atoms: C20_12  and  C16_31 
REMARK    6  A    between atoms: C2_23  and  C3_24 
REMARK    7  A    between atoms: C9_25  and  C12_27 
REMARK       I    between atoms: C12_27  and  N2_29 
ROOT
HETATM    1  C12   D T1000      10.917   5.095   1.191  1.00 43.27     0.279 C 
HETATM    2  O1    D T1000      11.831   5.931   1.116  1.00 42.40    -0.265 OA
HETATM    3  N2    D T1000       9.901   5.122   2.253  1.00 39.93    -0.208 NA
ENDROOT
BRANCH   1   4
HETATM    4  C9    D T1000      10.805   4.092   0.052  1.00 40.54     0.059 A 
HETATM    5  C8    D T1000      10.579   4.438  -1.268  1.00 39.10     0.004 A 
HETATM    6  C7    D T1000      10.564   3.439  -2.264  1.00 41.02    -0.004 A 
HETATM    7  C6    D T1000      10.809   2.087  -1.966  1.00 41.29    -0.014 A 
HETATM    8  C5    D T1000      11.024   1.762  -0.655  1.00 41.18     0.038 A 
HETATM    9  C11   D T1000      10.811   1.025  -3.024  1.00 38.87     0.032 C 
HETATM   10  C10   D T1000      11.076   2.760   0.354  1.00 39.13     0.013 A 
BRANCH   8  11
HETATM   11  C4    D T1000      11.338   0.363  -0.192  1.00 40.03    -0.058 C 
HETATM   12  C3    D T1000      11.593  -0.712   0.221  1.00 38.63    -0.039 C 
BRANCH  12  13
HETATM   13  C2    D T1000      11.842  -2.085   0.725  1.00 38.26     0.145 A 
HETATM   14  N82   D T1000      11.967  -3.278   0.068  1.00 40.77    -0.203 N 
HETATM   15  N81   D T1000      11.878  -3.598  -1.263  1.00 38.88    -0.162 NA
HETATM   16  C84   D T1000      12.226  -4.225   1.036  1.00 40.90     0.165 A 
HETATM   17  C83   D T1000      12.067  -4.868  -1.643  1.00 41.85     0.121 A 
HETATM   18  C82   D T1000      12.331  -5.852  -0.719  1.00 42.85     0.026 A 
HETATM   19  C81   D T1000      12.413  -5.564   0.631  1.00 42.17     0.041 A 
HETATM   20  N1    D T1000      12.239  -3.637   2.247  1.00 37.62    -0.223 NA
HETATM   21  C1    D T1000      12.010  -2.342   2.088  1.00 35.75     0.128 A 
ENDBRANCH  12  13
ENDBRANCH   8  11
ENDBRANCH   1   4
BRANCH   3  22
HETATM   22  C13   D T1000       9.827   6.072   3.316  1.00 41.48     0.085 A 
HETATM   23  C14   D T1000       9.577   7.410   3.149  1.00 41.52     0.019 A 
HETATM   24  C15   D T1000       9.590   8.248   4.274  1.00 43.29    -0.001 A 
HETATM   25  C16   D T1000       9.876   7.755   5.551  1.00 41.94     0.004 A 
HETATM   26  C17   D T1000      10.139   6.418   5.740  1.00 41.92     0.071 A 
HETATM   27  C18   D T1000      10.146   5.584   4.609  1.00 42.85     0.023 A 
BRANCH  25  28
HETATM   28  C20   D T1000       9.865   8.798   6.672  1.00 42.14     0.124 C 
BRANCH  28  29
HETATM   29  N3    D T1000       8.494   9.374   6.776  1.00 43.91    -0.362 N 
HETATM   30  C21   D T1000       7.549   8.457   7.403  1.00 45.37     0.121 C 
HETATM   31  C22   D T1000       6.162   9.050   7.300  1.00 47.91     0.121 C 
HETATM   32  N4    D T1000       6.103  10.383   7.875  1.00 47.69    -0.364 N 
HETATM   33  C23   D T1000       7.355  11.016   8.180  1.00 46.74     0.121 C 
HETATM   34  C25   D T1000       4.895  10.750   8.604  1.00 50.05     0.121 C 
HETATM   35  C24   D T1000       8.350  10.781   7.063  1.00 45.99     0.121 C 
ENDBRANCH  28  29
ENDBRANCH  25  28
BRANCH  26  36
HETATM   36  C19   D T1000      10.479   5.864   7.101  1.00 48.32     0.419 C 
HETATM   37  F1    D T1000      11.559   6.547   7.521  1.00 50.04    -0.166 F 
HETATM   38  F2    D T1000      10.867   4.577   7.035  1.00 52.24    -0.166 F 
HETATM   39  F3    D T1000       9.446   5.984   7.954  1.00 44.36    -0.166 F 
ENDBRANCH  26  36
ENDBRANCH   3  22
TORSDOF 7
ENDMDL
MODEL 4
REMARK VINA RESULT:    -8.868      5.129     11.114
REMARK INTER + INTRA:         -13.115
REMARK INTER:                 -12.179
REMARK INTRA:                  -0.937
REMARK UNBOUND:                -0.619
REMARK  7 active torsions:
REMARK  status: ('A' for Active; 'I' for Inactive)
REMARK    1  A    between atoms: N3_2  and  C20_12 
REMARK    2  A    between atoms: C4_3  and  C5_4 
REMARK    3  A    between atoms: C13_9  and  N2_29 
REMARK    4  A    between atoms: C17_11  and  C19_33 
REMARK    5  A    between atoms: C20_12  and  C16_31 
REMARK    6  A    between atoms: C2_23  and  C3_24 
REMARK    7  A    between atoms: C9_25  and  C12_27 
REMARK       I    between atoms: C12_27  and  N2_29 
ROOT
HETATM    1  C12   D T1000      10.438   4.340  -0.515  1.00 43.27     0.279 C 
HETATM    2  O1    D T1000      10.129   3.933   0.617  1.00 42.40    -0.265 OA
HETATM    3  N2    D T1000      10.888   5.715  -0.768  1.00 39.93    -0.208 NA
ENDROOT
BRANCH   1   4
HETATM    4  C9    D T1000      10.454   3.312  -1.637  1.00 40.54     0.059 A 
HETATM    5  C8    D T1000      11.009   2.050  -1.526  1.00 39.10     0.004 A 
HETATM    6  C7    D T1000      10.909   1.142  -2.600  1.00 41.02    -0.004 A 
HETATM    7  C6    D T1000      10.225   1.462  -3.786  1.00 41.29    -0.014 A 
HETATM    8  C5    D T1000       9.687   2.716  -3.881  1.00 41.18     0.038 A 
HETATM    9  C11   D T1000      10.101   0.493  -4.923  1.00 38.87     0.032 C 
HETATM   10  C10   D T1000       9.749   3.630  -2.795  1.00 39.13     0.013 A 
BRANCH   8  11
HETATM   11  C4    D T1000       8.893   3.187  -5.072  1.00 40.03    -0.058 C 
HETATM   12  C3    D T1000       8.297   3.517  -6.035  1.00 38.63    -0.039 C 
BRANCH  12  13
HETATM   13  C2    D T1000       7.484   3.910  -7.211  1.00 38.26     0.145 A 
HETATM   14  N82   D T1000       6.606   3.196  -7.980  1.00 40.77    -0.203 N 
HETATM   15  N81   D T1000       6.211   1.884  -7.930  1.00 38.88    -0.162 NA
HETATM   16  C84   D T1000       6.113   4.078  -8.920  1.00 40.90     0.165 A 
HETATM   17  C83   D T1000       5.302   1.442  -8.809  1.00 41.85     0.121 A 
HETATM   18  C82   D T1000       4.776   2.279  -9.765  1.00 42.85     0.026 A 
HETATM   19  C81   D T1000       5.165   3.603  -9.850  1.00 42.17     0.041 A 
HETATM   20  N1    D T1000       6.685   5.284  -8.747  1.00 37.62    -0.223 NA
HETATM   21  C1    D T1000       7.519   5.211  -7.719  1.00 35.75     0.128 A 
ENDBRANCH  12  13
ENDBRANCH   8  11
ENDBRANCH   1   4
BRANCH   3  22
HETATM   22  C13   D T1000      11.023   6.745   0.212  1.00 41.48     0.085 A 
HETATM   23  C14   D T1000      12.077   6.861   1.081  1.00 41.52     0.019 A 
HETATM   24  C15   D T1000      12.060   7.887   2.037  1.00 43.29    -0.001 A 
HETATM   25  C16   D T1000      10.983   8.774   2.138  1.00 41.94     0.004 A 
HETATM   26  C17   D T1000       9.910   8.671   1.283  1.00 41.92     0.071 A 
HETATM   27  C18   D T1000       9.921   7.629   0.341  1.00 42.85     0.023 A 
BRANCH  25  28
HETATM   28  C20   D T1000      11.108   9.829   3.241  1.00 42.14     0.124 C 
BRANCH  28  29
HETATM   29  N3    D T1000      11.011   9.151   4.565  1.00 43.91    -0.362 N 
HETATM   30  C21   D T1000      11.563   9.958   5.647  1.00 45.37     0.121 C 
HETATM   31  C22   D T1000      11.586   9.122   6.907  1.00 47.91     0.121 C 
HETATM   32  N4    D T1000      10.272   8.594   7.226  1.00 47.69    -0.364 N 
HETATM   33  C23   D T1000       9.263   8.698   6.209  1.00 46.74     0.121 C 
HETATM   34  C25   D T1000       9.894   8.530   8.633  1.00 50.05     0.121 C 
HETATM   35  C24   D T1000       9.844   8.353   4.855  1.00 45.99     0.121 C 
ENDBRANCH  28  29
ENDBRANCH  25  28
BRANCH  26  36
HETATM   36  C19   D T1000       8.723   9.595   1.389  1.00 48.32     0.419 C 
HETATM   37  F1    D T1000       8.028   9.184   2.464  1.00 50.04    -0.166 F 
HETATM   38  F2    D T1000       7.888   9.459   0.343  1.00 52.24    -0.166 F 
HETATM   39  F3    D T1000       9.108  10.880   1.501  1.00 44.36    -0.166 F 
ENDBRANCH  26  36
ENDBRANCH   3  22
TORSDOF 7
ENDMDL
MODEL 5
REMARK VINA RESULT:    -8.627      1.864      2.939
REMARK INTER + INTRA:         -12.776
REMARK INTER:                 -12.792
REMARK INTRA:                   0.016
REMARK UNBOUND:                -0.619
REMARK  7 active torsions:
REMARK  status: ('A' for Active; 'I' for Inactive)
REMARK    1  A    between atoms: N3_2  and  C20_12 
REMARK    2  A    between atoms: C4_3  and  C5_4 
REMARK    3  A    between atoms: C13_9  and  N2_29 
REMARK    4  A    between atoms: C17_11  and  C19_33 
REMARK    5  A    between atoms: C20_12  and  C16_31 
REMARK    6  A    between atoms: C2_23  and  C3_24 
REMARK    7  A    between atoms: C9_25  and  C12_27 
REMARK       I    between atoms: C12_27  and  N2_29 
ROOT
HETATM    1  C12   D T1000       9.248   2.866  -1.250  1.00 43.27     0.279 C 
HETATM    2  O1    D T1000       9.288   4.089  -1.463  1.00 42.40    -0.265 OA
HETATM    3  N2    D T1000       8.576   1.925  -2.157  1.00 39.93    -0.208 NA
ENDROOT
BRANCH   1   4
HETATM    4  C9    D T1000      10.040   2.347  -0.060  1.00 40.54     0.059 A 
HETATM    5  C8    D T1000      10.292   3.081   1.085  1.00 39.10     0.004 A 
HETATM    6  C7    D T1000      10.975   2.485   2.166  1.00 41.02    -0.004 A 
HETATM    7  C6    D T1000      11.385   1.140   2.138  1.00 41.29    -0.014 A 
HETATM    8  C5    D T1000      11.133   0.431   0.996  1.00 41.18     0.038 A 
HETATM    9  C11   D T1000      12.094   0.498   3.292  1.00 38.87     0.032 C 
HETATM   10  C10   D T1000      10.416   1.006  -0.087  1.00 39.13     0.013 A 
BRANCH   8  11
HETATM   11  C4    D T1000      11.477  -1.027   0.836  1.00 40.03    -0.058 C 
HETATM   12  C3    D T1000      11.718  -2.179   0.757  1.00 38.63    -0.039 C 
BRANCH  12  13
HETATM   13  C2    D T1000      11.981  -3.629   0.594  1.00 38.26     0.145 A 
HETATM   14  N82   D T1000      12.205  -4.386  -0.524  1.00 40.77    -0.203 N 
HETATM   15  N81   D T1000      12.233  -4.056  -1.855  1.00 38.88    -0.162 NA
HETATM   16  C84   D T1000      12.425  -5.673  -0.079  1.00 40.90     0.165 A 
HETATM   17  C83   D T1000      12.502  -5.009  -2.757  1.00 41.85     0.121 A 
HETATM   18  C82   D T1000      12.732  -6.308  -2.369  1.00 42.85     0.026 A 
HETATM   19  C81   D T1000      12.696  -6.674  -1.036  1.00 42.17     0.041 A 
HETATM   20  N1    D T1000      12.319  -5.709   1.262  1.00 37.62    -0.223 NA
HETATM   21  C1    D T1000      12.052  -4.486   1.696  1.00 35.75     0.128 A 
ENDBRANCH  12  13
ENDBRANCH   8  11
ENDBRANCH   1   4
BRANCH   3  22
HETATM   22  C13   D T1000       7.892   2.268  -3.362  1.00 41.48     0.085 A 
HETATM   23  C14   D T1000       7.015   3.315  -3.489  1.00 41.52     0.019 A 
HETATM   24  C15   D T1000       6.362   3.508  -4.716  1.00 43.29    -0.001 A 
HETATM   25  C16   D T1000       6.566   2.645  -5.797  1.00 41.94     0.004 A 
HETATM   26  C17   D T1000       7.433   1.583  -5.689  1.00 41.92     0.071 A 
HETATM   27  C18   D T1000       8.070   1.379  -4.454  1.00 42.85     0.023 A 
BRANCH  25  28
HETATM   28  C20   D T1000       5.770   2.983  -7.061  1.00 42.14     0.124 C 
BRANCH  28  29
HETATM   29  N3    D T1000       5.970   4.425  -7.382  1.00 43.91    -0.362 N 
HETATM   30  C21   D T1000       5.058   5.293  -6.646  1.00 45.37     0.121 C 
HETATM   31  C22   D T1000       5.211   6.704  -7.168  1.00 47.91     0.121 C 
HETATM   32  N4    D T1000       6.588   7.159  -7.094  1.00 47.69    -0.364 N 
HETATM   33  C23   D T1000       7.589   6.165  -6.821  1.00 46.74     0.121 C 
HETATM   34  C25   D T1000       6.820   8.554  -6.739  1.00 50.05     0.121 C 
HETATM   35  C24   D T1000       7.311   4.906  -7.614  1.00 45.99     0.121 C 
ENDBRANCH  28  29
ENDBRANCH  25  28
BRANCH  26  36
HETATM   36  C19   D T1000       7.650   0.620  -6.830  1.00 48.32     0.419 C 
HETATM   37  F1    D T1000       6.707  -0.330  -6.697  1.00 50.04    -0.166 F 
HETATM   38  F2    D T1000       8.828  -0.021  -6.727  1.00 52.24    -0.166 F 
HETATM   39  F3    D T1000       7.573   1.242  -8.020  1.00 44.36    -0.166 F 
ENDBRANCH  26  36
ENDBRANCH   3  22
TORSDOF 7
ENDMDL
MODEL 6
REMARK VINA RESULT:    -8.611      5.609     11.242
REMARK INTER + INTRA:         -12.754
REMARK INTER:                 -11.719
REMARK INTRA:                  -1.035
REMARK UNBOUND:                -0.619
REMARK  7 active torsions:
REMARK  status: ('A' for Active; 'I' for Inactive)
REMARK    1  A    between atoms: N3_2  and  C20_12 
REMARK    2  A    between atoms: C4_3  and  C5_4 
REMARK    3  A    between atoms: C13_9  and  N2_29 
REMARK    4  A    between atoms: C17_11  and  C19_33 
REMARK    5  A    between atoms: C20_12  and  C16_31 
REMARK    6  A    between atoms: C2_23  and  C3_24 
REMARK    7  A    between atoms: C9_25  and  C12_27 
REMARK       I    between atoms: C12_27  and  N2_29 
ROOT
HETATM    1  C12   D T1000      10.654   4.420   0.284  1.00 43.27     0.279 C 
HETATM    2  O1    D T1000      10.782   3.994   1.443  1.00 42.40    -0.265 OA
HETATM    3  N2    D T1000      10.579   5.853  -0.032  1.00 39.93    -0.208 NA
ENDROOT
BRANCH   1   4
HETATM    4  C9    D T1000      10.702   3.393  -0.838  1.00 40.54     0.059 A 
HETATM    5  C8    D T1000      11.250   2.129  -0.709  1.00 39.10     0.004 A 
HETATM    6  C7    D T1000      11.181   1.221  -1.787  1.00 41.02    -0.004 A 
HETATM    7  C6    D T1000      10.536   1.544  -2.994  1.00 41.29    -0.014 A 
HETATM    8  C5    D T1000      10.006   2.800  -3.105  1.00 41.18     0.038 A 
HETATM    9  C11   D T1000      10.446   0.576  -4.134  1.00 38.87     0.032 C 
HETATM   10  C10   D T1000      10.036   3.714  -2.018  1.00 39.13     0.013 A 
BRANCH   8  11
HETATM   11  C4    D T1000       9.251   3.273  -4.321  1.00 40.03    -0.058 C 
HETATM   12  C3    D T1000       8.701   3.622  -5.304  1.00 38.63    -0.039 C 
BRANCH  12  13
HETATM   13  C2    D T1000       7.951   4.015  -6.522  1.00 38.26     0.145 A 
HETATM   14  N82   D T1000       7.130   3.296  -7.346  1.00 40.77    -0.203 N 
HETATM   15  N81   D T1000       6.753   1.977  -7.331  1.00 38.88    -0.162 NA
HETATM   16  C84   D T1000       6.679   4.179  -8.305  1.00 40.90     0.165 A 
HETATM   17  C83   D T1000       5.904   1.530  -8.265  1.00 41.85     0.121 A 
HETATM   18  C82   D T1000       5.421   2.368  -9.243  1.00 42.85     0.026 A 
HETATM   19  C81   D T1000       5.794   3.699  -9.294  1.00 42.17     0.041 A 
HETATM   20  N1    D T1000       7.221   5.391  -8.089  1.00 37.62    -0.223 NA
HETATM   21  C1    D T1000       7.995   5.321  -7.015  1.00 35.75     0.128 A 
ENDBRANCH  12  13
ENDBRANCH   8  11
ENDBRANCH   1   4
BRANCH   3  22
HETATM   22  C13   D T1000      10.632   6.922   0.913  1.00 41.48     0.085 A 
HETATM   23  C14   D T1000       9.547   7.420   1.588  1.00 41.52     0.019 A 
HETATM   24  C15   D T1000       9.726   8.515   2.447  1.00 43.29    -0.001 A 
HETATM   25  C16   D T1000      10.976   9.120   2.611  1.00 41.94     0.004 A 
HETATM   26  C17   D T1000      12.076   8.643   1.937  1.00 41.92     0.071 A 
HETATM   27  C18   D T1000      11.890   7.561   1.061  1.00 42.85     0.023 A 
BRANCH  25  28
HETATM   28  C20   D T1000      11.003  10.311   3.573  1.00 42.14     0.124 C 
BRANCH  28  29
HETATM   29  N3    D T1000      10.425   9.885   4.879  1.00 43.91    -0.362 N 
HETATM   30  C21   D T1000      11.441   9.719   5.912  1.00 45.37     0.121 C 
HETATM   31  C22   D T1000      10.789   9.116   7.135  1.00 47.91     0.121 C 
HETATM   32  N4    D T1000       9.662   9.911   7.591  1.00 47.69    -0.364 N 
HETATM   33  C23   D T1000       9.184  10.933   6.703  1.00 46.74     0.121 C 
HETATM   34  C25   D T1000       9.461  10.034   9.030  1.00 50.05     0.121 C 
HETATM   35  C24   D T1000       9.145  10.418   5.280  1.00 45.99     0.121 C 
ENDBRANCH  28  29
ENDBRANCH  25  28
BRANCH  26  36
HETATM   36  C19   D T1000      13.429   9.295   2.072  1.00 48.32     0.419 C 
HETATM   37  F1    D T1000      14.300   8.473   1.461  1.00 50.04    -0.166 F 
HETATM   38  F2    D T1000      13.829   9.359   3.354  1.00 52.24    -0.166 F 
HETATM   39  F3    D T1000      13.438  10.528   1.531  1.00 44.36    -0.166 F 
ENDBRANCH  26  36
ENDBRANCH   3  22
TORSDOF 7
ENDMDL
MODEL 7
REMARK VINA RESULT:    -8.521      5.845     11.170
REMARK INTER + INTRA:         -12.626
REMARK INTER:                 -11.703
REMARK INTRA:                  -0.923
REMARK UNBOUND:                -0.619
REMARK  7 active torsions:
REMARK  status: ('A' for Active; 'I' for Inactive)
REMARK    1  A    between atoms: N3_2  and  C20_12 
REMARK    2  A    between atoms: C4_3  and  C5_4 
REMARK    3  A    between atoms: C13_9  and  N2_29 
REMARK    4  A    between atoms: C17_11  and  C19_33 
REMARK    5  A    between atoms: C20_12  and  C16_31 
REMARK    6  A    between atoms: C2_23  and  C3_24 
REMARK    7  A    between atoms: C9_25  and  C12_27 
REMARK       I    between atoms: C12_27  and  N2_29 
ROOT
HETATM    1  C12   D T1000      10.187   4.202  -0.063  1.00 43.27     0.279 C 
HETATM    2  O1    D T1000      10.973   3.785  -0.929  1.00 42.40    -0.265 OA
HETATM    3  N2    D T1000       9.705   3.360   1.041  1.00 39.93    -0.208 NA
ENDROOT
BRANCH   1   4
HETATM    4  C9    D T1000       9.829   5.680  -0.110  1.00 40.54     0.059 A 
HETATM    5  C8    D T1000       9.333   6.323  -1.230  1.00 39.10     0.004 A 
HETATM    6  C7    D T1000       8.961   7.682  -1.153  1.00 41.02    -0.004 A 
HETATM    7  C6    D T1000       9.044   8.409   0.047  1.00 41.29    -0.014 A 
HETATM    8  C5    D T1000       9.541   7.760   1.143  1.00 41.18     0.038 A 
HETATM    9  C11   D T1000       8.633   9.848   0.137  1.00 38.87     0.032 C 
HETATM   10  C10   D T1000       9.888   6.383   1.091  1.00 39.13     0.013 A 
BRANCH   8  11
HETATM   11  C4    D T1000       9.650   8.398   2.503  1.00 40.03    -0.058 C 
HETATM   12  C3    D T1000       9.689   8.872   3.583  1.00 38.63    -0.039 C 
BRANCH  12  13
HETATM   13  C2    D T1000       9.800   9.430   4.952  1.00 38.26     0.145 A 
HETATM   14  N82   D T1000       9.594   8.859   6.178  1.00 40.77    -0.203 N 
HETATM   15  N81   D T1000       9.193   7.598   6.539  1.00 38.88    -0.162 NA
HETATM   16  C84   D T1000       9.877   9.836   7.110  1.00 40.90     0.165 A 
HETATM   17  C83   D T1000       9.091   7.293   7.840  1.00 41.85     0.121 A 
HETATM   18  C82   D T1000       9.364   8.228   8.810  1.00 42.85     0.026 A 
HETATM   19  C81   D T1000       9.756   9.512   8.478  1.00 42.17     0.041 A 
HETATM   20  N1    D T1000      10.225  10.972   6.478  1.00 37.62    -0.223 NA
HETATM   21  C1    D T1000      10.187  10.755   5.171  1.00 35.75     0.128 A 
ENDBRANCH  12  13
ENDBRANCH   8  11
ENDBRANCH   1   4
BRANCH   3  22
HETATM   22  C13   D T1000      10.049   1.993   1.263  1.00 41.48     0.085 A 
HETATM   23  C14   D T1000       9.306   0.923   0.835  1.00 41.52     0.019 A 
HETATM   24  C15   D T1000       9.725  -0.373   1.171  1.00 43.29    -0.001 A 
HETATM   25  C16   D T1000      10.865  -0.594   1.951  1.00 41.94     0.004 A 
HETATM   26  C17   D T1000      11.620   0.465   2.400  1.00 41.92     0.071 A 
HETATM   27  C18   D T1000      11.186   1.762   2.079  1.00 42.85     0.023 A 
BRANCH  25  28
HETATM   28  C20   D T1000      11.182  -2.063   2.243  1.00 42.14     0.124 C 
BRANCH  28  29
HETATM   29  N3    D T1000      11.159  -2.822   0.960  1.00 43.91    -0.362 N 
HETATM   30  C21   D T1000      12.168  -2.354   0.016  1.00 45.37     0.121 C 
HETATM   31  C22   D T1000      11.950  -3.052  -1.307  1.00 47.91     0.121 C 
HETATM   32  N4    D T1000      11.957  -4.497  -1.161  1.00 47.69    -0.364 N 
HETATM   33  C23   D T1000      11.889  -5.017   0.176  1.00 46.74     0.121 C 
HETATM   34  C25   D T1000      12.577  -5.279  -2.224  1.00 50.05     0.121 C 
HETATM   35  C24   D T1000      10.880  -4.237   0.992  1.00 45.99     0.121 C 
ENDBRANCH  28  29
ENDBRANCH  25  28
BRANCH  26  36
HETATM   36  C19   D T1000      12.837   0.257   3.267  1.00 48.32     0.419 C 
HETATM   37  F1    D T1000      12.372  -0.023   4.497  1.00 50.04    -0.166 F 
HETATM   38  F2    D T1000      13.556   1.386   3.399  1.00 52.24    -0.166 F 
HETATM   39  F3    D T1000      13.619  -0.728   2.789  1.00 44.36    -0.166 F 
ENDBRANCH  26  36
ENDBRANCH   3  22
TORSDOF 7
ENDMDL
MODEL 8
REMARK VINA RESULT:    -8.454      5.160      8.660
REMARK INTER + INTRA:         -12.533
REMARK INTER:                 -12.504
REMARK INTRA:                  -0.029
REMARK UNBOUND:                -0.619
REMARK  7 active torsions:
REMARK  status: ('A' for Active; 'I' for Inactive)
REMARK    1  A    between atoms: N3_2  and  C20_12 
REMARK    2  A    between atoms: C4_3  and  C5_4 
REMARK    3  A    between atoms: C13_9  and  N2_29 
REMARK    4  A    between atoms: C17_11  and  C19_33 
REMARK    5  A    between atoms: C20_12  and  C16_31 
REMARK    6  A    between atoms: C2_23  and  C3_24 
REMARK    7  A    between atoms: C9_25  and  C12_27 
REMARK       I    between atoms: C12_27  and  N2_29 
ROOT
HETATM    1  C12   D T1000       9.593   4.908  -0.695  1.00 43.27     0.279 C 
HETATM    2  O1    D T1000       8.874   4.124  -0.055  1.00 42.40    -0.265 OA
HETATM    3  N2    D T1000       9.704   4.867  -2.159  1.00 39.93    -0.208 NA
ENDROOT
BRANCH   1   4
HETATM    4  C9    D T1000      10.273   6.019   0.092  1.00 40.54     0.059 A 
HETATM    5  C8    D T1000      11.034   7.022  -0.480  1.00 39.10     0.004 A 
HETATM    6  C7    D T1000      11.563   8.050   0.328  1.00 41.02    -0.004 A 
HETATM    7  C6    D T1000      11.314   8.115   1.709  1.00 41.29    -0.014 A 
HETATM    8  C5    D T1000      10.564   7.112   2.260  1.00 41.18     0.038 A 
HETATM    9  C11   D T1000      11.860   9.216   2.568  1.00 38.87     0.032 C 
HETATM   10  C10   D T1000       9.994   6.089   1.455  1.00 39.13     0.013 A 
BRANCH   8  11
HETATM   11  C4    D T1000      10.181   7.071   3.717  1.00 40.03    -0.058 C 
HETATM   12  C3    D T1000       9.934   7.047   4.870  1.00 38.63    -0.039 C 
BRANCH  12  13
HETATM   13  C2    D T1000       9.582   7.079   6.310  1.00 38.26     0.145 A 
HETATM   14  N82   D T1000       8.721   7.879   7.011  1.00 40.77    -0.203 N 
HETATM   15  N81   D T1000       7.926   8.925   6.616  1.00 38.88    -0.162 NA
HETATM   16  C84   D T1000       8.766   7.441   8.318  1.00 40.90     0.165 A 
HETATM   17  C83   D T1000       7.149   9.533   7.524  1.00 41.85     0.121 A 
HETATM   18  C82   D T1000       7.153   9.133   8.840  1.00 42.85     0.026 A 
HETATM   19  C81   D T1000       7.954   8.092   9.270  1.00 42.17     0.041 A 
HETATM   20  N1    D T1000       9.638   6.421   8.419  1.00 37.62    -0.223 NA
HETATM   21  C1    D T1000      10.147   6.181   7.219  1.00 35.75     0.128 A 
ENDBRANCH  12  13
ENDBRANCH   8  11
ENDBRANCH   1   4
BRANCH   3  22
HETATM   22  C13   D T1000       9.036   3.948  -3.024  1.00 41.48     0.085 A 
HETATM   23  C14   D T1000       7.691   3.964  -3.288  1.00 41.52     0.019 A 
HETATM   24  C15   D T1000       7.148   2.966  -4.111  1.00 43.29    -0.001 A 
HETATM   25  C16   D T1000       7.942   1.946  -4.644  1.00 41.94     0.004 A 
HETATM   26  C17   D T1000       9.293   1.904  -4.385  1.00 41.92     0.071 A 
HETATM   27  C18   D T1000       9.830   2.893  -3.543  1.00 42.85     0.023 A 
BRANCH  25  28
HETATM   28  C20   D T1000       7.199   0.926  -5.511  1.00 42.14     0.124 C 
BRANCH  28  29
HETATM   29  N3    D T1000       6.952   1.527  -6.852  1.00 43.91    -0.362 N 
HETATM   30  C21   D T1000       5.761   0.984  -7.497  1.00 45.37     0.121 C 
HETATM   31  C22   D T1000       5.697   1.514  -8.911  1.00 47.91     0.121 C 
HETATM   32  N4    D T1000       5.730   2.966  -8.944  1.00 47.69    -0.364 N 
HETATM   33  C23   D T1000       6.086   3.637  -7.725  1.00 46.74     0.121 C 
HETATM   34  C25   D T1000       4.903   3.637  -9.940  1.00 50.05     0.121 C 
HETATM   35  C24   D T1000       7.241   2.927  -7.052  1.00 45.99     0.121 C 
ENDBRANCH  28  29
ENDBRANCH  25  28
BRANCH  26  36
HETATM   36  C19   D T1000      10.167   0.799  -4.922  1.00 48.32     0.419 C 
HETATM   37  F1    D T1000      11.284   1.397  -5.375  1.00 50.04    -0.166 F 
HETATM   38  F2    D T1000       9.616   0.201  -5.994  1.00 52.24    -0.166 F 
HETATM   39  F3    D T1000      10.437  -0.120  -3.977  1.00 44.36    -0.166 F 
ENDBRANCH  26  36
ENDBRANCH   3  22
TORSDOF 7
ENDMDL
MODEL 9
REMARK VINA RESULT:    -8.450      6.108      8.887
REMARK INTER + INTRA:         -12.527
REMARK INTER:                 -11.841
REMARK INTRA:                  -0.686
REMARK UNBOUND:                -0.619
REMARK  7 active torsions:
REMARK  status: ('A' for Active; 'I' for Inactive)
REMARK    1  A    between atoms: N3_2  and  C20_12 
REMARK    2  A    between atoms: C4_3  and  C5_4 
REMARK    3  A    between atoms: C13_9  and  N2_29 
REMARK    4  A    between atoms: C17_11  and  C19_33 
REMARK    5  A    between atoms: C20_12  and  C16_31 
REMARK    6  A    between atoms: C2_23  and  C3_24 
REMARK    7  A    between atoms: C9_25  and  C12_27 
REMARK       I    between atoms: C12_27  and  N2_29 
ROOT
HETATM    1  C12   D T1000      10.712   6.220  -1.183  1.00 43.27     0.279 C 
HETATM    2  O1    D T1000      11.036   5.094  -0.772  1.00 42.40    -0.265 OA
HETATM    3  N2    D T1000      10.022   6.430  -2.463  1.00 39.93    -0.208 NA
ENDROOT
BRANCH   1   4
HETATM    4  C9    D T1000      10.947   7.391  -0.240  1.00 40.54     0.059 A 
HETATM    5  C8    D T1000      11.361   8.646  -0.650  1.00 39.10     0.004 A 
HETATM    6  C7    D T1000      11.480   9.689   0.293  1.00 41.02    -0.004 A 
HETATM    7  C6    D T1000      11.155   9.508   1.649  1.00 41.29    -0.014 A 
HETATM    8  C5    D T1000      10.753   8.260   2.037  1.00 41.18     0.038 A 
HETATM    9  C11   D T1000      11.263  10.618   2.650  1.00 38.87     0.032 C 
HETATM   10  C10   D T1000      10.594   7.209   1.095  1.00 39.13     0.013 A 
BRANCH   8  11
HETATM   11  C4    D T1000      10.334   7.928   3.446  1.00 40.03    -0.058 C 
HETATM   12  C3    D T1000      10.058   7.655   4.560  1.00 38.63    -0.039 C 
BRANCH  12  13
HETATM   13  C2    D T1000       9.692   7.384   5.971  1.00 38.26     0.145 A 
HETATM   14  N82   D T1000       8.789   7.989   6.801  1.00 40.77    -0.203 N 
HETATM   15  N81   D T1000       7.948   9.056   6.608  1.00 38.88    -0.162 NA
HETATM   16  C84   D T1000       8.843   7.301   7.996  1.00 40.90     0.165 A 
HETATM   17  C83   D T1000       7.136   9.435   7.604  1.00 41.85     0.121 A 
HETATM   18  C82   D T1000       7.148   8.782   8.815  1.00 42.85     0.026 A 
HETATM   19  C81   D T1000       7.994   7.713   9.045  1.00 42.17     0.041 A 
HETATM   20  N1    D T1000       9.762   6.322   7.908  1.00 37.62    -0.223 NA
HETATM   21  C1    D T1000      10.292   6.348   6.694  1.00 35.75     0.128 A 
ENDBRANCH  12  13
ENDBRANCH   8  11
ENDBRANCH   1   4
BRANCH   3  22
HETATM   22  C13   D T1000       9.647   5.409  -3.388  1.00 41.48     0.085 A 
HETATM   23  C14   D T1000      10.174   5.266  -4.646  1.00 41.52     0.019 A 
HETATM   24  C15   D T1000       9.674   4.254  -5.480  1.00 43.29    -0.001 A 
HETATM   25  C16   D T1000       8.638   3.411  -5.067  1.00 41.94     0.004 A 
HETATM   26  C17   D T1000       8.087   3.543  -3.814  1.00 41.92     0.071 A 
HETATM   27  C18   D T1000       8.575   4.570  -2.988  1.00 42.85     0.023 A 
BRANCH  25  28
HETATM   28  C20   D T1000       8.196   2.368  -6.097  1.00 42.14     0.124 C 
BRANCH  28  29
HETATM   29  N3    D T1000       7.013   2.895  -6.836  1.00 43.91    -0.362 N 
HETATM   30  C21   D T1000       7.338   4.060  -7.651  1.00 45.37     0.121 C 
HETATM   31  C22   D T1000       6.053   4.627  -8.212  1.00 47.91     0.121 C 
HETATM   32  N4    D T1000       5.301   3.628  -8.950  1.00 47.69    -0.364 N 
HETATM   33  C23   D T1000       5.718   2.261  -8.807  1.00 46.74     0.121 C 
HETATM   34  C25   D T1000       4.603   4.063 -10.154  1.00 50.05     0.121 C 
HETATM   35  C24   D T1000       6.046   1.960  -7.360  1.00 45.99     0.121 C 
ENDBRANCH  28  29
ENDBRANCH  25  28
BRANCH  26  36
HETATM   36  C19   D T1000       6.949   2.667  -3.353  1.00 48.32     0.419 C 
HETATM   37  F1    D T1000       6.896   2.800  -2.016  1.00 50.04    -0.166 F 
HETATM   38  F2    D T1000       7.198   1.364  -3.578  1.00 52.24    -0.166 F 
HETATM   39  F3    D T1000       5.790   3.017  -3.940  1.00 44.36    -0.166 F 
ENDBRANCH  26  36
ENDBRANCH   3  22
TORSDOF 7
ENDMDL
