MODEL 1
REMARK VINA RESULT:    -9.081      0.000      0.000
REMARK INTER + INTRA:         -13.908
REMARK INTER:                 -12.797
REMARK INTRA:                  -1.111
REMARK UNBOUND:                -1.111
REMARK  7 active torsions:
REMARK  status: ('A' for Active; 'I' for Inactive)
REMARK    1  A    between atoms: N3_2  and  C20_12 
REMARK    2  A    between atoms: C4_3  and  C5_4 
REMARK    3  A    between atoms: C13_9  and  N2_29 
REMARK    4  A    between atoms: C17_11  and  C19_33 
REMARK    5  A    between atoms: C20_12  and  C16_31 
REMARK    6  A    between atoms: C2_23  and  C3_24 
REMARK    7  A    between atoms: C9_25  and  C12_27 
REMARK       I    between atoms: C12_27  and  N2_29 
ROOT
HETATM    1  C12   D T1000       1.286   9.140   5.056  1.00 43.27     0.279 C 
HETATM    2  O1    D T1000       0.908  10.289   5.343  1.00 42.40    -0.265 OA
HETATM    3  N2    D T1000       2.365   8.878   4.095  1.00 39.93    -0.208 NA
ENDROOT
BRANCH   1   4
HETATM    4  C9    D T1000       0.667   7.996   5.843  1.00 40.54     0.059 A 
HETATM    5  C8    D T1000      -0.599   7.488   5.607  1.00 39.10     0.004 A 
HETATM    6  C7    D T1000      -1.058   6.374   6.344  1.00 41.02    -0.004 A 
HETATM    7  C6    D T1000      -0.253   5.730   7.299  1.00 41.29    -0.014 A 
HETATM    8  C5    D T1000       0.993   6.249   7.522  1.00 41.18     0.038 A 
HETATM    9  C11   D T1000      -0.730   4.537   8.071  1.00 38.87     0.032 C 
HETATM   10  C10   D T1000       1.482   7.347   6.767  1.00 39.13     0.013 A 
BRANCH   8  11
HETATM   11  C4    D T1000       1.981   5.641   8.485  1.00 40.03    -0.058 C 
HETATM   12  C3    D T1000       2.771   5.133   9.197  1.00 38.63    -0.039 C 
BRANCH  12  13
HETATM   13  C2    D T1000       3.800   4.562  10.100  1.00 38.26     0.145 A 
HETATM   14  N82   D T1000       5.167   4.576  10.034  1.00 40.77    -0.203 N 
HETATM   15  N81   D T1000       6.027   5.097   9.102  1.00 38.88    -0.162 NA
HETATM   16  C84   D T1000       5.613   3.920  11.163  1.00 40.90     0.165 A 
HETATM   17  C83   D T1000       7.348   4.986   9.299  1.00 41.85     0.121 A 
HETATM   18  C82   D T1000       7.847   4.344  10.409  1.00 42.85     0.026 A 
HETATM   19  C81   D T1000       7.005   3.795  11.359  1.00 42.17     0.041 A 
HETATM   20  N1    D T1000       4.557   3.502  11.885  1.00 37.62    -0.223 NA
HETATM   21  C1    D T1000       3.448   3.878  11.265  1.00 35.75     0.128 A 
ENDBRANCH  12  13
ENDBRANCH   8  11
ENDBRANCH   1   4
BRANCH   3  22
HETATM   22  C13   D T1000       3.100   9.865   3.371  1.00 41.48     0.085 A 
HETATM   23  C14   D T1000       4.142  10.593   3.886  1.00 41.52     0.019 A 
HETATM   24  C15   D T1000       4.743  11.577   3.085  1.00 43.29    -0.001 A 
HETATM   25  C16   D T1000       4.286  11.846   1.790  1.00 41.94     0.004 A 
HETATM   26  C17   D T1000       3.236  11.135   1.259  1.00 41.92     0.071 A 
HETATM   27  C18   D T1000       2.622  10.165   2.069  1.00 42.85     0.023 A 
BRANCH  25  28
HETATM   28  C20   D T1000       5.038  12.956   1.052  1.00 42.14     0.124 C 
BRANCH  28  29
HETATM   29  N3    D T1000       6.483  12.597   0.988  1.00 43.91    -0.362 N 
HETATM   30  C21   D T1000       6.745  11.499   0.065  1.00 45.37     0.121 C 
HETATM   31  C22   D T1000       8.194  11.090   0.205  1.00 47.91     0.121 C 
HETATM   32  N4    D T1000       9.094  12.212  -0.001  1.00 47.69    -0.364 N 
HETATM   33  C23   D T1000       8.505  13.522  -0.023  1.00 46.74     0.121 C 
HETATM   34  C25   D T1000      10.343  11.954  -0.708  1.00 50.05     0.121 C 
HETATM   35  C24   D T1000       7.467  13.651   1.072  1.00 45.99     0.121 C 
ENDBRANCH  28  29
ENDBRANCH  25  28
BRANCH  26  36
HETATM   36  C19   D T1000       2.704  11.423  -0.123  1.00 48.32     0.419 C 
HETATM   37  F1    D T1000       1.902  10.390  -0.435  1.00 50.04    -0.166 F 
HETATM   38  F2    D T1000       3.681  11.416  -1.047  1.00 52.24    -0.166 F 
HETATM   39  F3    D T1000       2.049  12.598  -0.162  1.00 44.36    -0.166 F 
ENDBRANCH  26  36
ENDBRANCH   3  22
TORSDOF 7
ENDMDL
MODEL 2
REMARK VINA RESULT:    -8.828      2.176      2.665
REMARK INTER + INTRA:         -13.551
REMARK INTER:                 -12.467
REMARK INTRA:                  -1.084
REMARK UNBOUND:                -1.111
REMARK  7 active torsions:
REMARK  status: ('A' for Active; 'I' for Inactive)
REMARK    1  A    between atoms: N3_2  and  C20_12 
REMARK    2  A    between atoms: C4_3  and  C5_4 
REMARK    3  A    between atoms: C13_9  and  N2_29 
REMARK    4  A    between atoms: C17_11  and  C19_33 
REMARK    5  A    between atoms: C20_12  and  C16_31 
REMARK    6  A    between atoms: C2_23  and  C3_24 
REMARK    7  A    between atoms: C9_25  and  C12_27 
REMARK       I    between atoms: C12_27  and  N2_29 
ROOT
HETATM    1  C12   D T1000       1.293   9.581   4.940  1.00 43.27     0.279 C 
HETATM    2  O1    D T1000       0.856  10.699   5.260  1.00 42.40    -0.265 OA
HETATM    3  N2    D T1000       2.477   9.406   4.089  1.00 39.93    -0.208 NA
ENDROOT
BRANCH   1   4
HETATM    4  C9    D T1000       0.622   8.373   5.576  1.00 40.54     0.059 A 
HETATM    5  C8    D T1000      -0.621   7.892   5.203  1.00 39.10     0.004 A 
HETATM    6  C7    D T1000      -1.130   6.719   5.804  1.00 41.02    -0.004 A 
HETATM    7  C6    D T1000      -0.395   5.991   6.754  1.00 41.29    -0.014 A 
HETATM    8  C5    D T1000       0.830   6.484   7.113  1.00 41.18     0.038 A 
HETATM    9  C11   D T1000      -0.923   4.735   7.381  1.00 38.87     0.032 C 
HETATM   10  C10   D T1000       1.370   7.643   6.496  1.00 39.13     0.013 A 
BRANCH   8  11
HETATM   11  C4    D T1000       1.746   5.790   8.089  1.00 40.03    -0.058 C 
HETATM   12  C3    D T1000       2.502   5.247   8.813  1.00 38.63    -0.039 C 
BRANCH  12  13
HETATM   13  C2    D T1000       3.450   4.627   9.770  1.00 38.26     0.145 A 
HETATM   14  N82   D T1000       4.818   4.601   9.796  1.00 40.77    -0.203 N 
HETATM   15  N81   D T1000       5.755   5.115   8.937  1.00 38.88    -0.162 NA
HETATM   16  C84   D T1000       5.167   3.908  10.938  1.00 40.90     0.165 A 
HETATM   17  C83   D T1000       7.055   4.959   9.219  1.00 41.85     0.121 A 
HETATM   18  C82   D T1000       7.458   4.279  10.345  1.00 42.85     0.026 A 
HETATM   19  C81   D T1000       6.538   3.736  11.224  1.00 42.17     0.041 A 
HETATM   20  N1    D T1000       4.053   3.507  11.577  1.00 37.62    -0.223 NA
HETATM   21  C1    D T1000       2.999   3.929  10.893  1.00 35.75     0.128 A 
ENDBRANCH  12  13
ENDBRANCH   8  11
ENDBRANCH   1   4
BRANCH   3  22
HETATM   22  C13   D T1000       3.261  10.454   3.519  1.00 41.48     0.085 A 
HETATM   23  C14   D T1000       2.801  11.355   2.593  1.00 41.52     0.019 A 
HETATM   24  C15   D T1000       3.694  12.302   2.066  1.00 43.29    -0.001 A 
HETATM   25  C16   D T1000       5.040  12.328   2.445  1.00 41.94     0.004 A 
HETATM   26  C17   D T1000       5.524  11.427   3.364  1.00 41.92     0.071 A 
HETATM   27  C18   D T1000       4.634  10.467   3.874  1.00 42.85     0.023 A 
BRANCH  25  28
HETATM   28  C20   D T1000       5.886  13.412   1.771  1.00 42.14     0.124 C 
BRANCH  28  29
HETATM   29  N3    D T1000       5.949  13.131   0.308  1.00 43.91    -0.362 N 
HETATM   30  C21   D T1000       5.626  14.302  -0.499  1.00 45.37     0.121 C 
HETATM   31  C22   D T1000       5.539  13.876  -1.947  1.00 47.91     0.121 C 
HETATM   32  N4    D T1000       6.756  13.219  -2.390  1.00 47.69    -0.364 N 
HETATM   33  C23   D T1000       7.695  12.835  -1.374  1.00 46.74     0.121 C 
HETATM   34  C25   D T1000       7.210  13.484  -3.750  1.00 50.05     0.121 C 
HETATM   35  C24   D T1000       6.971  12.238  -0.185  1.00 45.99     0.121 C 
ENDBRANCH  28  29
ENDBRANCH  25  28
BRANCH  26  36
HETATM   36  C19   D T1000       6.977  11.414   3.769  1.00 48.32     0.419 C 
HETATM   37  F1    D T1000       7.055  10.609   4.845  1.00 50.04    -0.166 F 
HETATM   38  F2    D T1000       7.392  12.622   4.189  1.00 52.24    -0.166 F 
HETATM   39  F3    D T1000       7.763  10.987   2.765  1.00 44.36    -0.166 F 
ENDBRANCH  26  36
ENDBRANCH   3  22
TORSDOF 7
ENDMDL
MODEL 3
REMARK VINA RESULT:    -8.804      3.709      5.420
REMARK INTER + INTRA:         -13.518
REMARK INTER:                 -12.576
REMARK INTRA:                  -0.942
REMARK UNBOUND:                -1.111
REMARK  7 active torsions:
REMARK  status: ('A' for Active; 'I' for Inactive)
REMARK    1  A    between atoms: N3_2  and  C20_12 
REMARK    2  A    between atoms: C4_3  and  C5_4 
REMARK    3  A    between atoms: C13_9  and  N2_29 
REMARK    4  A    between atoms: C17_11  and  C19_33 
REMARK    5  A    between atoms: C20_12  and  C16_31 
REMARK    6  A    between atoms: C2_23  and  C3_24 
REMARK    7  A    between atoms: C9_25  and  C12_27 
REMARK       I    between atoms: C12_27  and  N2_29 
ROOT
HETATM    1  C12   D T1000       3.990  10.353   2.300  1.00 43.27     0.279 C 
HETATM    2  O1    D T1000       3.158  11.105   2.836  1.00 42.40    -0.265 OA
HETATM    3  N2    D T1000       4.313  10.419   0.869  1.00 39.93    -0.208 NA
ENDROOT
BRANCH   1   4
HETATM    4  C9    D T1000       4.773   9.428   3.220  1.00 40.54     0.059 A 
HETATM    5  C8    D T1000       6.152   9.312   3.212  1.00 39.10     0.004 A 
HETATM    6  C7    D T1000       6.793   8.479   4.154  1.00 41.02    -0.004 A 
HETATM    7  C6    D T1000       6.076   7.780   5.139  1.00 41.29    -0.014 A 
HETATM    8  C5    D T1000       4.713   7.903   5.129  1.00 41.18     0.038 A 
HETATM    9  C11   D T1000       6.753   6.908   6.153  1.00 38.87     0.032 C 
HETATM   10  C10   D T1000       4.055   8.762   4.209  1.00 39.13     0.013 A 
BRANCH   8  11
HETATM   11  C4    D T1000       3.817   7.245   6.147  1.00 40.03    -0.058 C 
HETATM   12  C3    D T1000       3.082   6.715   6.903  1.00 38.63    -0.039 C 
BRANCH  12  13
HETATM   13  C2    D T1000       2.216   6.000   7.870  1.00 38.26     0.145 A 
HETATM   14  N82   D T1000       2.516   5.099   8.856  1.00 40.77    -0.203 N 
HETATM   15  N81   D T1000       3.707   4.546   9.252  1.00 38.88    -0.162 NA
HETATM   16  C84   D T1000       1.319   4.788   9.469  1.00 40.90     0.165 A 
HETATM   17  C83   D T1000       3.718   3.688  10.281  1.00 41.85     0.121 A 
HETATM   18  C82   D T1000       2.554   3.345  10.930  1.00 42.85     0.026 A 
HETATM   19  C81   D T1000       1.335   3.875  10.545  1.00 42.17     0.041 A 
HETATM   20  N1    D T1000       0.320   5.459   8.868  1.00 37.62    -0.223 NA
HETATM   21  C1    D T1000       0.834   6.201   7.897  1.00 35.75     0.128 A 
ENDBRANCH  12  13
ENDBRANCH   8  11
ENDBRANCH   1   4
BRANCH   3  22
HETATM   22  C13   D T1000       3.731  11.313  -0.080  1.00 41.48     0.085 A 
HETATM   23  C14   D T1000       4.236  12.548  -0.397  1.00 41.52     0.019 A 
HETATM   24  C15   D T1000       3.533  13.355  -1.306  1.00 43.29    -0.001 A 
HETATM   25  C16   D T1000       2.323  12.939  -1.870  1.00 41.94     0.004 A 
HETATM   26  C17   D T1000       1.794  11.708  -1.558  1.00 41.92     0.071 A 
HETATM   27  C18   D T1000       2.488  10.911  -0.632  1.00 42.85     0.023 A 
BRANCH  25  28
HETATM   28  C20   D T1000       1.674  13.937  -2.832  1.00 42.14     0.124 C 
BRANCH  28  29
HETATM   29  N3    D T1000       2.717  14.455  -3.763  1.00 43.91    -0.362 N 
HETATM   30  C21   D T1000       3.134  13.459  -4.744  1.00 45.37     0.121 C 
HETATM   31  C22   D T1000       4.311  14.011  -5.516  1.00 47.91     0.121 C 
HETATM   32  N4    D T1000       4.003  15.292  -6.126  1.00 47.69    -0.364 N 
HETATM   33  C23   D T1000       2.798  15.945  -5.696  1.00 46.74     0.121 C 
HETATM   34  C25   D T1000       4.552  15.559  -7.450  1.00 50.05     0.121 C 
HETATM   35  C24   D T1000       2.645  15.831  -4.194  1.00 45.99     0.121 C 
ENDBRANCH  28  29
ENDBRANCH  25  28
BRANCH  26  36
HETATM   36  C19   D T1000       0.477  11.245  -2.129  1.00 48.32     0.419 C 
HETATM   37  F1    D T1000      -0.474  11.946  -1.485  1.00 50.04    -0.166 F 
HETATM   38  F2    D T1000       0.232   9.955  -1.844  1.00 52.24    -0.166 F 
HETATM   39  F3    D T1000       0.425  11.434  -3.460  1.00 44.36    -0.166 F 
ENDBRANCH  26  36
ENDBRANCH   3  22
TORSDOF 7
ENDMDL
MODEL 4
REMARK VINA RESULT:    -8.757      2.104      2.868
REMARK INTER + INTRA:         -13.451
REMARK INTER:                 -12.364
REMARK INTRA:                  -1.087
REMARK UNBOUND:                -1.111
REMARK  7 active torsions:
REMARK  status: ('A' for Active; 'I' for Inactive)
REMARK    1  A    between atoms: N3_2  and  C20_12 
REMARK    2  A    between atoms: C4_3  and  C5_4 
REMARK    3  A    between atoms: C13_9  and  N2_29 
REMARK    4  A    between atoms: C17_11  and  C19_33 
REMARK    5  A    between atoms: C20_12  and  C16_31 
REMARK    6  A    between atoms: C2_23  and  C3_24 
REMARK    7  A    between atoms: C9_25  and  C12_27 
REMARK       I    between atoms: C12_27  and  N2_29 
ROOT
HETATM    1  C12   D T1000       1.620   9.276   4.592  1.00 43.27     0.279 C 
HETATM    2  O1    D T1000       1.528  10.453   4.980  1.00 42.40    -0.265 OA
HETATM    3  N2    D T1000       2.493   8.873   3.482  1.00 39.93    -0.208 NA
ENDROOT
BRANCH   1   4
HETATM    4  C9    D T1000       0.879   8.224   5.403  1.00 40.54     0.059 A 
HETATM    5  C8    D T1000      -0.428   7.837   5.162  1.00 39.10     0.004 A 
HETATM    6  C7    D T1000      -1.006   6.799   5.924  1.00 41.02    -0.004 A 
HETATM    7  C6    D T1000      -0.282   6.109   6.911  1.00 41.29    -0.014 A 
HETATM    8  C5    D T1000       1.006   6.507   7.139  1.00 41.18     0.038 A 
HETATM    9  C11   D T1000      -0.886   4.993   7.711  1.00 38.87     0.032 C 
HETATM   10  C10   D T1000       1.613   7.527   6.359  1.00 39.13     0.013 A 
BRANCH   8  11
HETATM   11  C4    D T1000       1.915   5.835   8.136  1.00 40.03    -0.058 C 
HETATM   12  C3    D T1000       2.654   5.286   8.874  1.00 38.63    -0.039 C 
BRANCH  12  13
HETATM   13  C2    D T1000       3.607   4.665   9.825  1.00 38.26     0.145 A 
HETATM   14  N82   D T1000       4.975   4.641   9.845  1.00 40.77    -0.203 N 
HETATM   15  N81   D T1000       5.907   5.158   8.982  1.00 38.88    -0.162 NA
HETATM   16  C84   D T1000       5.330   3.947  10.984  1.00 40.90     0.165 A 
HETATM   17  C83   D T1000       7.209   5.003   9.259  1.00 41.85     0.121 A 
HETATM   18  C82   D T1000       7.618   4.322  10.382  1.00 42.85     0.026 A 
HETATM   19  C81   D T1000       6.703   3.776  11.264  1.00 42.17     0.041 A 
HETATM   20  N1    D T1000       4.220   3.543  11.627  1.00 37.62    -0.223 NA
HETATM   21  C1    D T1000       3.162   3.965  10.948  1.00 35.75     0.128 A 
ENDBRANCH  12  13
ENDBRANCH   8  11
ENDBRANCH   1   4
BRANCH   3  22
HETATM   22  C13   D T1000       3.321   9.744   2.710  1.00 41.48     0.085 A 
HETATM   23  C14   D T1000       2.870  10.560   1.705  1.00 41.52     0.019 A 
HETATM   24  C15   D T1000       3.801  11.323   0.982  1.00 43.29    -0.001 A 
HETATM   25  C16   D T1000       5.172  11.249   1.248  1.00 41.94     0.004 A 
HETATM   26  C17   D T1000       5.646  10.429   2.245  1.00 41.92     0.071 A 
HETATM   27  C18   D T1000       4.716   9.650   2.953  1.00 42.85     0.023 A 
BRANCH  25  28
HETATM   28  C20   D T1000       6.056  12.134   0.365  1.00 42.14     0.124 C 
BRANCH  28  29
HETATM   29  N3    D T1000       5.659  13.557   0.562  1.00 43.91    -0.362 N 
HETATM   30  C21   D T1000       6.412  14.204   1.630  1.00 45.37     0.121 C 
HETATM   31  C22   D T1000       5.818  15.573   1.874  1.00 47.91     0.121 C 
HETATM   32  N4    D T1000       5.785  16.371   0.660  1.00 47.69    -0.364 N 
HETATM   33  C23   D T1000       6.039  15.685  -0.576  1.00 46.74     0.121 C 
HETATM   34  C25   D T1000       6.064  17.797   0.782  1.00 50.05     0.121 C 
HETATM   35  C24   D T1000       5.321  14.352  -0.596  1.00 45.99     0.121 C 
ENDBRANCH  28  29
ENDBRANCH  25  28
BRANCH  26  36
HETATM   36  C19   D T1000       7.122  10.307   2.534  1.00 48.32     0.419 C 
HETATM   37  F1    D T1000       7.701   9.966   1.368  1.00 50.04    -0.166 F 
HETATM   38  F2    D T1000       7.386   9.297   3.380  1.00 52.24    -0.166 F 
HETATM   39  F3    D T1000       7.623  11.455   3.026  1.00 44.36    -0.166 F 
ENDBRANCH  26  36
ENDBRANCH   3  22
TORSDOF 7
ENDMDL
MODEL 5
REMARK VINA RESULT:    -8.503      3.769      5.843
REMARK INTER + INTRA:         -13.093
REMARK INTER:                 -12.210
REMARK INTRA:                  -0.883
REMARK UNBOUND:                -1.111
REMARK  7 active torsions:
REMARK  status: ('A' for Active; 'I' for Inactive)
REMARK    1  A    between atoms: N3_2  and  C20_12 
REMARK    2  A    between atoms: C4_3  and  C5_4 
REMARK    3  A    between atoms: C13_9  and  N2_29 
REMARK    4  A    between atoms: C17_11  and  C19_33 
REMARK    5  A    between atoms: C20_12  and  C16_31 
REMARK    6  A    between atoms: C2_23  and  C3_24 
REMARK    7  A    between atoms: C9_25  and  C12_27 
REMARK       I    between atoms: C12_27  and  N2_29 
ROOT
HETATM    1  C12   D T1000       4.076  11.011   2.233  1.00 43.27     0.279 C 
HETATM    2  O1    D T1000       3.506  12.017   2.688  1.00 42.40    -0.265 OA
HETATM    3  N2    D T1000       4.120  10.707   0.797  1.00 39.93    -0.208 NA
ENDROOT
BRANCH   1   4
HETATM    4  C9    D T1000       4.852  10.154   3.221  1.00 40.54     0.059 A 
HETATM    5  C8    D T1000       6.231  10.167   3.343  1.00 39.10     0.004 A 
HETATM    6  C7    D T1000       6.855   9.388   4.341  1.00 41.02    -0.004 A 
HETATM    7  C6    D T1000       6.117   8.615   5.253  1.00 41.29    -0.014 A 
HETATM    8  C5    D T1000       4.756   8.612   5.115  1.00 41.18     0.038 A 
HETATM    9  C11   D T1000       6.774   7.801   6.326  1.00 38.87     0.032 C 
HETATM   10  C10   D T1000       4.110   9.415   4.138  1.00 39.13     0.013 A 
BRANCH   8  11
HETATM   11  C4    D T1000       3.833   7.864   6.044  1.00 40.03    -0.058 C 
HETATM   12  C3    D T1000       3.086   7.258   6.726  1.00 38.63    -0.039 C 
BRANCH  12  13
HETATM   13  C2    D T1000       2.207   6.456   7.610  1.00 38.26     0.145 A 
HETATM   14  N82   D T1000       2.497   5.507   8.552  1.00 40.77    -0.203 N 
HETATM   15  N81   D T1000       3.690   4.969   8.964  1.00 38.88    -0.162 NA
HETATM   16  C84   D T1000       1.288   5.119   9.092  1.00 40.90     0.165 A 
HETATM   17  C83   D T1000       3.689   4.050   9.939  1.00 41.85     0.121 A 
HETATM   18  C82   D T1000       2.512   3.630  10.515  1.00 42.85     0.026 A 
HETATM   19  C81   D T1000       1.292   4.141  10.110  1.00 42.17     0.041 A 
HETATM   20  N1    D T1000       0.291   5.792   8.490  1.00 37.62    -0.223 NA
HETATM   21  C1    D T1000       0.818   6.609   7.589  1.00 35.75     0.128 A 
ENDBRANCH  12  13
ENDBRANCH   8  11
ENDBRANCH   1   4
BRANCH   3  22
HETATM   22  C13   D T1000       3.527  11.486  -0.243  1.00 41.48     0.085 A 
HETATM   23  C14   D T1000       4.024  12.679  -0.702  1.00 41.52     0.019 A 
HETATM   24  C15   D T1000       3.310  13.375  -1.690  1.00 43.29    -0.001 A 
HETATM   25  C16   D T1000       2.098  12.893  -2.194  1.00 41.94     0.004 A 
HETATM   26  C17   D T1000       1.577  11.704  -1.740  1.00 41.92     0.071 A 
HETATM   27  C18   D T1000       2.282  11.019  -0.736  1.00 42.85     0.023 A 
BRANCH  25  28
HETATM   28  C20   D T1000       1.437  13.774  -3.258  1.00 42.14     0.124 C 
BRANCH  28  29
HETATM   29  N3    D T1000       1.899  15.179  -3.071  1.00 43.91    -0.362 N 
HETATM   30  C21   D T1000       2.544  15.717  -4.263  1.00 45.37     0.121 C 
HETATM   31  C22   D T1000       3.134  17.067  -3.921  1.00 47.91     0.121 C 
HETATM   32  N4    D T1000       2.135  17.970  -3.377  1.00 47.69    -0.364 N 
HETATM   33  C23   D T1000       0.875  17.395  -2.999  1.00 46.74     0.121 C 
HETATM   34  C25   D T1000       2.219  19.376  -3.756  1.00 50.05     0.121 C 
HETATM   35  C24   D T1000       1.091  16.079  -2.283  1.00 45.99     0.121 C 
ENDBRANCH  28  29
ENDBRANCH  25  28
BRANCH  26  36
HETATM   36  C19   D T1000       0.258  11.174  -2.245  1.00 48.32     0.419 C 
HETATM   37  F1    D T1000       0.200   9.888  -1.854  1.00 50.04    -0.166 F 
HETATM   38  F2    D T1000       0.209  11.148  -3.588  1.00 52.24    -0.166 F 
HETATM   39  F3    D T1000      -0.775  11.891  -1.766  1.00 44.36    -0.166 F 
ENDBRANCH  26  36
ENDBRANCH   3  22
TORSDOF 7
ENDMDL
MODEL 6
REMARK VINA RESULT:    -8.439      3.312      4.398
REMARK INTER + INTRA:         -13.003
REMARK INTER:                 -11.868
REMARK INTRA:                  -1.135
REMARK UNBOUND:                -1.111
REMARK  7 active torsions:
REMARK  status: ('A' for Active; 'I' for Inactive)
REMARK    1  A    between atoms: N3_2  and  C20_12 
REMARK    2  A    between atoms: C4_3  and  C5_4 
REMARK    3  A    between atoms: C13_9  and  N2_29 
REMARK    4  A    between atoms: C17_11  and  C19_33 
REMARK    5  A    between atoms: C20_12  and  C16_31 
REMARK    6  A    between atoms: C2_23  and  C3_24 
REMARK    7  A    between atoms: C9_25  and  C12_27 
REMARK       I    between atoms: C12_27  and  N2_29 
ROOT
HETATM    1  C12   D T1000       3.217   7.413   7.012  1.00 43.27     0.279 C 
HETATM    2  O1    D T1000       3.113   8.618   7.297  1.00 42.40    -0.265 OA
HETATM    3  N2    D T1000       3.959   6.937   5.837  1.00 39.93    -0.208 NA
ENDROOT
BRANCH   1   4
HETATM    4  C9    D T1000       2.645   6.418   8.011  1.00 40.54     0.059 A 
HETATM    5  C8    D T1000       1.359   5.911   7.949  1.00 39.10     0.004 A 
HETATM    6  C7    D T1000       0.943   4.936   8.882  1.00 41.02    -0.004 A 
HETATM    7  C6    D T1000       1.809   4.427   9.863  1.00 41.29    -0.014 A 
HETATM    8  C5    D T1000       3.076   4.943   9.912  1.00 41.18     0.038 A 
HETATM    9  C11   D T1000       1.378   3.378  10.844  1.00 38.87     0.032 C 
HETATM   10  C10   D T1000       3.520   5.900   8.961  1.00 39.13     0.013 A 
BRANCH   8  11
HETATM   11  C4    D T1000       4.126   4.466  10.882  1.00 40.03    -0.058 C 
HETATM   12  C3    D T1000       4.926   4.042  11.638  1.00 38.63    -0.039 C 
BRANCH  12  13
HETATM   13  C2    D T1000       5.987   3.527  12.536  1.00 38.26     0.145 A 
HETATM   14  N82   D T1000       7.023   4.162  13.166  1.00 40.77    -0.203 N 
HETATM   15  N81   D T1000       7.433   5.471  13.151  1.00 38.88    -0.162 NA
HETATM   16  C84   D T1000       7.674   3.195  13.905  1.00 40.90     0.165 A 
HETATM   17  C83   D T1000       8.489   5.833  13.891  1.00 41.85     0.121 A 
HETATM   18  C82   D T1000       9.173   4.910  14.648  1.00 42.85     0.026 A 
HETATM   19  C81   D T1000       8.794   3.580  14.673  1.00 42.17     0.041 A 
HETATM   20  N1    D T1000       7.071   2.007  13.718  1.00 37.62    -0.223 NA
HETATM   21  C1    D T1000       6.046   2.179  12.895  1.00 35.75     0.128 A 
ENDBRANCH  12  13
ENDBRANCH   8  11
ENDBRANCH   1   4
BRANCH   3  22
HETATM   22  C13   D T1000       4.633   7.759   4.883  1.00 41.48     0.085 A 
HETATM   23  C14   D T1000       4.039   8.320   3.782  1.00 41.52     0.019 A 
HETATM   24  C15   D T1000       4.830   9.059   2.888  1.00 43.29    -0.001 A 
HETATM   25  C16   D T1000       6.207   9.212   3.083  1.00 41.94     0.004 A 
HETATM   26  C17   D T1000       6.823   8.648   4.175  1.00 41.92     0.071 A 
HETATM   27  C18   D T1000       6.035   7.891   5.057  1.00 42.85     0.023 A 
BRANCH  25  28
HETATM   28  C20   D T1000       6.930  10.035   2.013  1.00 42.14     0.124 C 
BRANCH  28  29
HETATM   29  N3    D T1000       6.277  11.371   1.914  1.00 43.91    -0.362 N 
HETATM   30  C21   D T1000       6.539  12.209   3.078  1.00 45.37     0.121 C 
HETATM   31  C22   D T1000       5.695  13.459   2.969  1.00 47.91     0.121 C 
HETATM   32  N4    D T1000       5.930  14.161   1.719  1.00 47.69    -0.364 N 
HETATM   33  C23   D T1000       6.668  13.459   0.708  1.00 46.74     0.121 C 
HETATM   34  C25   D T1000       5.931  15.619   1.754  1.00 50.05     0.121 C 
HETATM   35  C24   D T1000       6.208  12.018   0.625  1.00 45.99     0.121 C 
ENDBRANCH  28  29
ENDBRANCH  25  28
BRANCH  26  36
HETATM   36  C19   D T1000       8.311   8.772   4.395  1.00 48.32     0.419 C 
HETATM   37  F1    D T1000       8.572   8.116   5.540  1.00 50.04    -0.166 F 
HETATM   38  F2    D T1000       8.681  10.045   4.613  1.00 52.24    -0.166 F 
HETATM   39  F3    D T1000       9.005   8.267   3.358  1.00 44.36    -0.166 F 
ENDBRANCH  26  36
ENDBRANCH   3  22
TORSDOF 7
ENDMDL
MODEL 7
REMARK VINA RESULT:    -7.955      2.685      3.552
REMARK INTER + INTRA:         -12.321
REMARK INTER:                 -11.399
REMARK INTRA:                  -0.921
REMARK UNBOUND:                -1.111
REMARK  7 active torsions:
REMARK  status: ('A' for Active; 'I' for Inactive)
REMARK    1  A    between atoms: N3_2  and  C20_12 
REMARK    2  A    between atoms: C4_3  and  C5_4 
REMARK    3  A    between atoms: C13_9  and  N2_29 
REMARK    4  A    between atoms: C17_11  and  C19_33 
REMARK    5  A    between atoms: C20_12  and  C16_31 
REMARK    6  A    between atoms: C2_23  and  C3_24 
REMARK    7  A    between atoms: C9_25  and  C12_27 
REMARK       I    between atoms: C12_27  and  N2_29 
ROOT
HETATM    1  C12   D T1000       3.771   7.512   7.002  1.00 43.27     0.279 C 
HETATM    2  O1    D T1000       4.159   8.601   7.459  1.00 42.40    -0.265 OA
HETATM    3  N2    D T1000       4.097   7.062   5.643  1.00 39.93    -0.208 NA
ENDROOT
BRANCH   1   4
HETATM    4  C9    D T1000       3.037   6.587   7.960  1.00 40.54     0.059 A 
HETATM    5  C8    D T1000       1.702   6.243   7.836  1.00 39.10     0.004 A 
HETATM    6  C7    D T1000       1.128   5.318   8.735  1.00 41.02    -0.004 A 
HETATM    7  C6    D T1000       1.881   4.696   9.745  1.00 41.29    -0.014 A 
HETATM    8  C5    D T1000       3.198   5.051   9.855  1.00 41.18     0.038 A 
HETATM    9  C11   D T1000       1.281   3.699  10.691  1.00 38.87     0.032 C 
HETATM   10  C10   D T1000       3.799   5.955   8.939  1.00 39.13     0.013 A 
BRANCH   8  11
HETATM   11  C4    D T1000       4.138   4.438  10.862  1.00 40.03    -0.058 C 
HETATM   12  C3    D T1000       4.915   3.980  11.622  1.00 38.63    -0.039 C 
BRANCH  12  13
HETATM   13  C2    D T1000       5.862   3.449  12.631  1.00 38.26     0.145 A 
HETATM   14  N82   D T1000       6.736   4.084  13.471  1.00 40.77    -0.203 N 
HETATM   15  N81   D T1000       7.039   5.411  13.634  1.00 38.88    -0.162 NA
HETATM   16  C84   D T1000       7.339   3.093  14.218  1.00 40.90     0.165 A 
HETATM   17  C83   D T1000       7.938   5.766  14.562  1.00 41.85     0.121 A 
HETATM   18  C82   D T1000       8.567   4.819  15.337  1.00 42.85     0.026 A 
HETATM   19  C81   D T1000       8.294   3.471  15.187  1.00 42.17     0.041 A 
HETATM   20  N1    D T1000       6.867   1.892  13.837  1.00 37.62    -0.223 NA
HETATM   21  C1    D T1000       5.970   2.078  12.878  1.00 35.75     0.128 A 
ENDBRANCH  12  13
ENDBRANCH   8  11
ENDBRANCH   1   4
BRANCH   3  22
HETATM   22  C13   D T1000       4.869   7.785   4.683  1.00 41.48     0.085 A 
HETATM   23  C14   D T1000       6.239   7.782   4.623  1.00 41.52     0.019 A 
HETATM   24  C15   D T1000       6.877   8.585   3.665  1.00 43.29    -0.001 A 
HETATM   25  C16   D T1000       6.150   9.404   2.794  1.00 41.94     0.004 A 
HETATM   26  C17   D T1000       4.776   9.429   2.845  1.00 41.92     0.071 A 
HETATM   27  C18   D T1000       4.139   8.641   3.818  1.00 42.85     0.023 A 
BRANCH  25  28
HETATM   28  C20   D T1000       6.993  10.228   1.818  1.00 42.14     0.124 C 
BRANCH  28  29
HETATM   29  N3    D T1000       7.865  11.152   2.598  1.00 43.91    -0.362 N 
HETATM   30  C21   D T1000       9.181  11.321   1.993  1.00 45.37     0.121 C 
HETATM   31  C22   D T1000      10.046  12.120   2.941  1.00 47.91     0.121 C 
HETATM   32  N4    D T1000       9.431  13.389   3.292  1.00 47.69    -0.364 N 
HETATM   33  C23   D T1000       8.051  13.563   2.938  1.00 46.74     0.121 C 
HETATM   34  C25   D T1000      10.307  14.546   3.434  1.00 50.05     0.121 C 
HETATM   35  C24   D T1000       7.268  12.301   3.235  1.00 45.99     0.121 C 
ENDBRANCH  28  29
ENDBRANCH  25  28
BRANCH  26  36
HETATM   36  C19   D T1000       3.968  10.324   1.937  1.00 48.32     0.419 C 
HETATM   37  F1    D T1000       4.504  10.189   0.711  1.00 50.04    -0.166 F 
HETATM   38  F2    D T1000       4.111  11.622   2.256  1.00 52.24    -0.166 F 
HETATM   39  F3    D T1000       2.664   9.992   1.955  1.00 44.36    -0.166 F 
ENDBRANCH  26  36
ENDBRANCH   3  22
TORSDOF 7
ENDMDL
MODEL 8
REMARK VINA RESULT:    -7.824      3.976      6.583
REMARK INTER + INTRA:         -12.137
REMARK INTER:                 -11.633
REMARK INTRA:                  -0.503
REMARK UNBOUND:                -1.111
REMARK  7 active torsions:
REMARK  status: ('A' for Active; 'I' for Inactive)
REMARK    1  A    between atoms: N3_2  and  C20_12 
REMARK    2  A    between atoms: C4_3  and  C5_4 
REMARK    3  A    between atoms: C13_9  and  N2_29 
REMARK    4  A    between atoms: C17_11  and  C19_33 
REMARK    5  A    between atoms: C20_12  and  C16_31 
REMARK    6  A    between atoms: C2_23  and  C3_24 
REMARK    7  A    between atoms: C9_25  and  C12_27 
REMARK       I    between atoms: C12_27  and  N2_29 
ROOT
HETATM    1  C12   D T1000       6.023  10.902   1.229  1.00 43.27     0.279 C 
HETATM    2  O1    D T1000       6.857  11.334   0.416  1.00 42.40    -0.265 OA
HETATM    3  N2    D T1000       4.577  11.093   1.058  1.00 39.93    -0.208 NA
ENDROOT
BRANCH   1   4
HETATM    4  C9    D T1000       6.552  10.041   2.366  1.00 40.54     0.059 A 
HETATM    5  C8    D T1000       7.895   9.892   2.664  1.00 39.10     0.004 A 
HETATM    6  C7    D T1000       8.285   9.128   3.786  1.00 41.02    -0.004 A 
HETATM    7  C6    D T1000       7.345   8.534   4.645  1.00 41.29    -0.014 A 
HETATM    8  C5    D T1000       6.022   8.689   4.332  1.00 41.18     0.038 A 
HETATM    9  C11   D T1000       7.754   7.738   5.848  1.00 38.87     0.032 C 
HETATM   10  C10   D T1000       5.612   9.481   3.227  1.00 39.13     0.013 A 
BRANCH   8  11
HETATM   11  C4    D T1000       4.903   8.144   5.182  1.00 40.03    -0.058 C 
HETATM   12  C3    D T1000       4.032   7.670   5.820  1.00 38.63    -0.039 C 
BRANCH  12  13
HETATM   13  C2    D T1000       2.981   7.082   6.685  1.00 38.26     0.145 A 
HETATM   14  N82   D T1000       1.632   7.304   6.743  1.00 40.77    -0.203 N 
HETATM   15  N81   D T1000       0.819   8.157   6.042  1.00 38.88    -0.162 NA
HETATM   16  C84   D T1000       1.144   6.453   7.714  1.00 40.90     0.165 A 
HETATM   17  C83   D T1000      -0.498   8.156   6.291  1.00 41.85     0.121 A 
HETATM   18  C82   D T1000      -1.037   7.326   7.247  1.00 42.85     0.026 A 
HETATM   19  C81   D T1000      -0.242   6.465   7.980  1.00 42.17     0.041 A 
HETATM   20  N1    D T1000       2.160   5.749   8.246  1.00 37.62    -0.223 NA
HETATM   21  C1    D T1000       3.284   6.110   7.641  1.00 35.75     0.128 A 
ENDBRANCH  12  13
ENDBRANCH   8  11
ENDBRANCH   1   4
BRANCH   3  22
HETATM   22  C13   D T1000       3.945  11.785  -0.020  1.00 41.48     0.085 A 
HETATM   23  C14   D T1000       4.384  12.973  -0.546  1.00 41.52     0.019 A 
HETATM   24  C15   D T1000       3.636  13.580  -1.567  1.00 43.29    -0.001 A 
HETATM   25  C16   D T1000       2.445  13.015  -2.037  1.00 41.94     0.004 A 
HETATM   26  C17   D T1000       1.982  11.830  -1.516  1.00 41.92     0.071 A 
HETATM   27  C18   D T1000       2.721  11.234  -0.480  1.00 42.85     0.023 A 
BRANCH  25  28
HETATM   28  C20   D T1000       1.741  13.805  -3.143  1.00 42.14     0.124 C 
BRANCH  28  29
HETATM   29  N3    D T1000       2.773  14.420  -4.026  1.00 43.91    -0.362 N 
HETATM   30  C21   D T1000       3.290  13.483  -5.016  1.00 45.37     0.121 C 
HETATM   31  C22   D T1000       4.448  14.137  -5.736  1.00 47.91     0.121 C 
HETATM   32  N4    D T1000       4.068  15.409  -6.325  1.00 47.69    -0.364 N 
HETATM   33  C23   D T1000       2.807  15.963  -5.919  1.00 46.74     0.121 C 
HETATM   34  C25   D T1000       4.638  15.749  -7.623  1.00 50.05     0.121 C 
HETATM   35  C24   D T1000       2.615  15.798  -4.426  1.00 45.99     0.121 C 
ENDBRANCH  28  29
ENDBRANCH  25  28
BRANCH  26  36
HETATM   36  C19   D T1000       0.687  11.212  -1.983  1.00 48.32     0.419 C 
HETATM   37  F1    D T1000       0.644  11.406  -3.314  1.00 50.04    -0.166 F 
HETATM   38  F2    D T1000      -0.383  11.857  -1.487  1.00 52.24    -0.166 F 
HETATM   39  F3    D T1000       0.621   9.908  -1.663  1.00 44.36    -0.166 F 
ENDBRANCH  26  36
ENDBRANCH   3  22
TORSDOF 7
ENDMDL
MODEL 9
REMARK VINA RESULT:    -7.795      3.941     12.050
REMARK INTER + INTRA:         -12.096
REMARK INTER:                 -11.296
REMARK INTRA:                  -0.800
REMARK UNBOUND:                -1.111
REMARK  7 active torsions:
REMARK  status: ('A' for Active; 'I' for Inactive)
REMARK    1  A    between atoms: N3_2  and  C20_12 
REMARK    2  A    between atoms: C4_3  and  C5_4 
REMARK    3  A    between atoms: C13_9  and  N2_29 
REMARK    4  A    between atoms: C17_11  and  C19_33 
REMARK    5  A    between atoms: C20_12  and  C16_31 
REMARK    6  A    between atoms: C2_23  and  C3_24 
REMARK    7  A    between atoms: C9_25  and  C12_27 
REMARK       I    between atoms: C12_27  and  N2_29 
ROOT
HETATM    1  C12   D T1000       6.847   8.519   5.433  1.00 43.27     0.279 C 
HETATM    2  O1    D T1000       6.580   9.261   6.394  1.00 42.40    -0.265 OA
HETATM    3  N2    D T1000       6.678   7.061   5.487  1.00 39.93    -0.208 NA
ENDROOT
BRANCH   1   4
HETATM    4  C9    D T1000       7.245   9.196   4.131  1.00 40.54     0.059 A 
HETATM    5  C8    D T1000       8.550   9.321   3.689  1.00 39.10     0.004 A 
HETATM    6  C7    D T1000       8.813   9.902   2.429  1.00 41.02    -0.004 A 
HETATM    7  C6    D T1000       7.782  10.334   1.579  1.00 41.29    -0.014 A 
HETATM    8  C5    D T1000       6.498  10.206   2.034  1.00 41.18     0.038 A 
HETATM    9  C11   D T1000       8.056  10.935   0.232  1.00 38.87     0.032 C 
HETATM   10  C10   D T1000       6.214   9.594   3.283  1.00 39.13     0.013 A 
BRANCH   8  11
HETATM   11  C4    D T1000       5.290  10.588   1.216  1.00 40.03    -0.058 C 
HETATM   12  C3    D T1000       4.374  10.928   0.556  1.00 38.63    -0.039 C 
BRANCH  12  13
HETATM   13  C2    D T1000       3.228  11.290  -0.311  1.00 38.26     0.145 A 
HETATM   14  N82   D T1000       3.032  12.352  -1.152  1.00 40.77    -0.203 N 
HETATM   15  N81   D T1000       3.818  13.437  -1.445  1.00 38.88    -0.162 NA
HETATM   16  C84   D T1000       1.795  12.160  -1.732  1.00 40.90     0.165 A 
HETATM   17  C83   D T1000       3.383  14.335  -2.340  1.00 41.85     0.121 A 
HETATM   18  C82   D T1000       2.158  14.190  -2.950  1.00 42.85     0.026 A 
HETATM   19  C81   D T1000       1.336  13.115  -2.665  1.00 42.17     0.041 A 
HETATM   20  N1    D T1000       1.243  11.031  -1.250  1.00 37.62    -0.223 NA
HETATM   21  C1    D T1000       2.089  10.484  -0.388  1.00 35.75     0.128 A 
ENDBRANCH  12  13
ENDBRANCH   8  11
ENDBRANCH   1   4
BRANCH   3  22
HETATM   22  C13   D T1000       6.210   6.313   6.610  1.00 41.48     0.085 A 
HETATM   23  C14   D T1000       6.870   5.246   7.164  1.00 41.52     0.019 A 
HETATM   24  C15   D T1000       6.270   4.558   8.231  1.00 43.29    -0.001 A 
HETATM   25  C16   D T1000       5.011   4.920   8.720  1.00 41.94     0.004 A 
HETATM   26  C17   D T1000       4.328   5.980   8.172  1.00 41.92     0.071 A 
HETATM   27  C18   D T1000       4.920   6.655   7.090  1.00 42.85     0.023 A 
BRANCH  25  28
HETATM   28  C20   D T1000       4.490   4.064   9.877  1.00 42.14     0.124 C 
BRANCH  28  29
HETATM   29  N3    D T1000       5.636   3.700  10.759  1.00 43.91    -0.362 N 
HETATM   30  C21   D T1000       5.886   4.700  11.790  1.00 45.37     0.121 C 
HETATM   31  C22   D T1000       7.165   4.336  12.510  1.00 47.91     0.121 C 
HETATM   32  N4    D T1000       7.117   2.987  13.047  1.00 47.69    -0.364 N 
HETATM   33  C23   D T1000       6.043   2.146  12.598  1.00 46.74     0.121 C 
HETATM   34  C25   D T1000       7.742   2.755  14.344  1.00 50.05     0.121 C 
HETATM   35  C24   D T1000       5.831   2.313  11.108  1.00 45.99     0.121 C 
ENDBRANCH  28  29
ENDBRANCH  25  28
BRANCH  26  36
HETATM   36  C19   D T1000       2.956   6.375   8.660  1.00 48.32     0.419 C 
HETATM   37  F1    D T1000       2.157   5.322   8.410  1.00 50.04    -0.166 F 
HETATM   38  F2    D T1000       2.445   7.395   7.949  1.00 52.24    -0.166 F 
HETATM   39  F3    D T1000       2.972   6.695   9.966  1.00 44.36    -0.166 F 
ENDBRANCH  26  36
ENDBRANCH   3  22
TORSDOF 7
ENDMDL
