MODEL 1
REMARK VINA RESULT:    -8.943      0.000      0.000
REMARK INTER + INTRA:         -13.588
REMARK INTER:                 -12.602
REMARK INTRA:                  -0.986
REMARK UNBOUND:                -0.986
REMARK  7 active torsions:
REMARK  status: ('A' for Active; 'I' for Inactive)
REMARK    1  A    between atoms: N3_2  and  C20_12 
REMARK    2  A    between atoms: C4_3  and  C5_4 
REMARK    3  A    between atoms: C13_9  and  N2_29 
REMARK    4  A    between atoms: C17_11  and  C19_33 
REMARK    5  A    between atoms: C20_12  and  C16_31 
REMARK    6  A    between atoms: C2_23  and  C3_24 
REMARK    7  A    between atoms: C9_25  and  C12_27 
REMARK       I    between atoms: C12_27  and  N2_29 
ROOT
HETATM    1  C12   D T1000       0.236   2.798  13.705  1.00 43.27     0.279 C 
HETATM    2  O1    D T1000       0.822   3.537  14.514  1.00 42.40    -0.265 OA
HETATM    3  N2    D T1000       0.822   2.412  12.415  1.00 39.93    -0.208 NA
ENDROOT
BRANCH   1   4
HETATM    4  C9    D T1000      -1.084   2.193  14.157  1.00 40.54     0.059 A 
HETATM    5  C8    D T1000      -2.324   2.736  13.870  1.00 39.10     0.004 A 
HETATM    6  C7    D T1000      -3.497   2.059  14.273  1.00 41.02    -0.004 A 
HETATM    7  C6    D T1000      -3.452   0.820  14.932  1.00 41.29    -0.014 A 
HETATM    8  C5    D T1000      -2.218   0.301  15.212  1.00 41.18     0.038 A 
HETATM    9  C11   D T1000      -4.695   0.090  15.345  1.00 38.87     0.032 C 
HETATM   10  C10   D T1000      -1.030   0.951  14.785  1.00 39.13     0.013 A 
BRANCH   8  11
HETATM   11  C4    D T1000      -2.015  -1.036  15.876  1.00 40.03    -0.058 C 
HETATM   12  C3    D T1000      -1.866  -2.060  16.444  1.00 38.63    -0.039 C 
BRANCH  12  13
HETATM   13  C2    D T1000      -1.740  -3.373  17.120  1.00 38.26     0.145 A 
HETATM   14  N82   D T1000      -2.681  -4.200  17.667  1.00 40.77    -0.203 N 
HETATM   15  N81   D T1000      -4.042  -4.074  17.793  1.00 38.88    -0.162 NA
HETATM   16  C84   D T1000      -1.999  -5.309  18.127  1.00 40.90     0.165 A 
HETATM   17  C83   D T1000      -4.739  -5.064  18.365  1.00 41.85     0.121 A 
HETATM   18  C82   D T1000      -4.110  -6.192  18.837  1.00 42.85     0.026 A 
HETATM   19  C81   D T1000      -2.738  -6.344  18.739  1.00 42.17     0.041 A 
HETATM   20  N1    D T1000      -0.685  -5.157  17.890  1.00 37.62    -0.223 NA
HETATM   21  C1    D T1000      -0.498  -3.994  17.279  1.00 35.75     0.128 A 
ENDBRANCH  12  13
ENDBRANCH   8  11
ENDBRANCH   1   4
BRANCH   3  22
HETATM   22  C13   D T1000       2.097   2.821  11.919  1.00 41.48     0.085 A 
HETATM   23  C14   D T1000       3.260   2.114  12.083  1.00 41.52     0.019 A 
HETATM   24  C15   D T1000       4.459   2.657  11.597  1.00 43.29    -0.001 A 
HETATM   25  C16   D T1000       4.496   3.909  10.975  1.00 41.94     0.004 A 
HETATM   26  C17   D T1000       3.342   4.640  10.808  1.00 41.92     0.071 A 
HETATM   27  C18   D T1000       2.147   4.103  11.314  1.00 42.85     0.023 A 
BRANCH  25  28
HETATM   28  C20   D T1000       5.881   4.368  10.512  1.00 42.14     0.124 C 
BRANCH  28  29
HETATM   29  N3    D T1000       6.207   3.687   9.226  1.00 43.91    -0.362 N 
HETATM   30  C21   D T1000       6.376   4.626   8.124  1.00 45.37     0.121 C 
HETATM   31  C22   D T1000       6.521   3.841   6.840  1.00 47.91     0.121 C 
HETATM   32  N4    D T1000       7.606   2.878   6.917  1.00 47.69    -0.364 N 
HETATM   33  C23   D T1000       8.163   2.628   8.218  1.00 46.74     0.121 C 
HETATM   34  C25   D T1000       8.410   2.672   5.720  1.00 50.05     0.121 C 
HETATM   35  C24   D T1000       7.062   2.525   9.252  1.00 45.99     0.121 C 
ENDBRANCH  28  29
ENDBRANCH  25  28
BRANCH  26  36
HETATM   36  C19   D T1000       3.356   6.006  10.166  1.00 48.32     0.419 C 
HETATM   37  F1    D T1000       2.127   6.517  10.357  1.00 50.04    -0.166 F 
HETATM   38  F2    D T1000       3.516   5.931   8.834  1.00 52.24    -0.166 F 
HETATM   39  F3    D T1000       4.313   6.788  10.697  1.00 44.36    -0.166 F 
ENDBRANCH  26  36
ENDBRANCH   3  22
TORSDOF 7
ENDMDL
MODEL 2
REMARK VINA RESULT:    -8.803      1.960      2.515
REMARK INTER + INTRA:         -13.391
REMARK INTER:                 -12.520
REMARK INTRA:                  -0.871
REMARK UNBOUND:                -0.986
REMARK  7 active torsions:
REMARK  status: ('A' for Active; 'I' for Inactive)
REMARK    1  A    between atoms: N3_2  and  C20_12 
REMARK    2  A    between atoms: C4_3  and  C5_4 
REMARK    3  A    between atoms: C13_9  and  N2_29 
REMARK    4  A    between atoms: C17_11  and  C19_33 
REMARK    5  A    between atoms: C20_12  and  C16_31 
REMARK    6  A    between atoms: C2_23  and  C3_24 
REMARK    7  A    between atoms: C9_25  and  C12_27 
REMARK       I    between atoms: C12_27  and  N2_29 
ROOT
HETATM    1  C12   D T1000       0.242   2.831  13.799  1.00 43.27     0.279 C 
HETATM    2  O1    D T1000       0.843   3.508  14.649  1.00 42.40    -0.265 OA
HETATM    3  N2    D T1000       0.805   2.539  12.474  1.00 39.93    -0.208 NA
ENDROOT
BRANCH   1   4
HETATM    4  C9    D T1000      -1.072   2.195  14.229  1.00 40.54     0.059 A 
HETATM    5  C8    D T1000      -2.319   2.701  13.910  1.00 39.10     0.004 A 
HETATM    6  C7    D T1000      -3.481   1.997  14.294  1.00 41.02    -0.004 A 
HETATM    7  C6    D T1000      -3.418   0.766  14.967  1.00 41.29    -0.014 A 
HETATM    8  C5    D T1000      -2.177   0.283  15.278  1.00 41.18     0.038 A 
HETATM    9  C11   D T1000      -4.650   0.007  15.360  1.00 38.87     0.032 C 
HETATM   10  C10   D T1000      -0.997   0.961  14.870  1.00 39.13     0.013 A 
BRANCH   8  11
HETATM   11  C4    D T1000      -1.952  -1.042  15.961  1.00 40.03    -0.058 C 
HETATM   12  C3    D T1000      -1.824  -2.072  16.521  1.00 38.63    -0.039 C 
BRANCH  12  13
HETATM   13  C2    D T1000      -1.667  -3.401  17.158  1.00 38.26     0.145 A 
HETATM   14  N82   D T1000      -2.587  -4.258  17.696  1.00 40.77    -0.203 N 
HETATM   15  N81   D T1000      -3.947  -4.157  17.845  1.00 38.88    -0.162 NA
HETATM   16  C84   D T1000      -1.880  -5.367  18.116  1.00 40.90     0.165 A 
HETATM   17  C83   D T1000      -4.620  -5.173  18.400  1.00 41.85     0.121 A 
HETATM   18  C82   D T1000      -3.966  -6.303  18.832  1.00 42.85     0.026 A 
HETATM   19  C81   D T1000      -2.594  -6.430  18.710  1.00 42.17     0.041 A 
HETATM   20  N1    D T1000      -0.572  -5.188  17.863  1.00 37.62    -0.223 NA
HETATM   21  C1    D T1000      -0.413  -4.006  17.283  1.00 35.75     0.128 A 
ENDBRANCH  12  13
ENDBRANCH   8  11
ENDBRANCH   1   4
BRANCH   3  22
HETATM   22  C13   D T1000       2.071   2.983  11.987  1.00 41.48     0.085 A 
HETATM   23  C14   D T1000       2.409   4.296  11.777  1.00 41.52     0.019 A 
HETATM   24  C15   D T1000       3.668   4.594  11.236  1.00 43.29    -0.001 A 
HETATM   25  C16   D T1000       4.572   3.586  10.885  1.00 41.94     0.004 A 
HETATM   26  C17   D T1000       4.250   2.262  11.078  1.00 41.92     0.071 A 
HETATM   27  C18   D T1000       2.980   1.966  11.600  1.00 42.85     0.023 A 
BRANCH  25  28
HETATM   28  C20   D T1000       5.898   4.074  10.297  1.00 42.14     0.124 C 
BRANCH  28  29
HETATM   29  N3    D T1000       5.610   4.949   9.125  1.00 43.91    -0.362 N 
HETATM   30  C21   D T1000       6.398   6.175   9.135  1.00 45.37     0.121 C 
HETATM   31  C22   D T1000       5.910   7.071   8.019  1.00 47.91     0.121 C 
HETATM   32  N4    D T1000       5.950   6.399   6.732  1.00 47.69    -0.364 N 
HETATM   33  C23   D T1000       6.163   4.979   6.746  1.00 46.74     0.121 C 
HETATM   34  C25   D T1000       6.336   7.190   5.571  1.00 50.05     0.121 C 
HETATM   35  C24   D T1000       5.346   4.334   7.846  1.00 45.99     0.121 C 
ENDBRANCH  28  29
ENDBRANCH  25  28
BRANCH  26  36
HETATM   36  C19   D T1000       5.193   1.153  10.682  1.00 48.32     0.419 C 
HETATM   37  F1    D T1000       4.437   0.046  10.573  1.00 50.04    -0.166 F 
HETATM   38  F2    D T1000       6.088   0.888  11.649  1.00 52.24    -0.166 F 
HETATM   39  F3    D T1000       5.834   1.439   9.534  1.00 44.36    -0.166 F 
ENDBRANCH  26  36
ENDBRANCH   3  22
TORSDOF 7
ENDMDL
MODEL 3
REMARK VINA RESULT:    -8.603      1.890      2.848
REMARK INTER + INTRA:         -13.109
REMARK INTER:                 -11.981
REMARK INTRA:                  -1.128
REMARK UNBOUND:                -0.986
REMARK  7 active torsions:
REMARK  status: ('A' for Active; 'I' for Inactive)
REMARK    1  A    between atoms: N3_2  and  C20_12 
REMARK    2  A    between atoms: C4_3  and  C5_4 
REMARK    3  A    between atoms: C13_9  and  N2_29 
REMARK    4  A    between atoms: C17_11  and  C19_33 
REMARK    5  A    between atoms: C20_12  and  C16_31 
REMARK    6  A    between atoms: C2_23  and  C3_24 
REMARK    7  A    between atoms: C9_25  and  C12_27 
REMARK       I    between atoms: C12_27  and  N2_29 
ROOT
HETATM    1  C12   D T1000      -0.170   3.072  13.434  1.00 43.27     0.279 C 
HETATM    2  O1    D T1000       0.017   4.243  13.803  1.00 42.40    -0.265 OA
HETATM    3  N2    D T1000       0.802   2.332  12.618  1.00 39.93    -0.208 NA
ENDROOT
BRANCH   1   4
HETATM    4  C9    D T1000      -1.409   2.371  13.971  1.00 40.54     0.059 A 
HETATM    5  C8    D T1000      -2.705   2.789  13.723  1.00 39.10     0.004 A 
HETATM    6  C7    D T1000      -3.792   2.028  14.206  1.00 41.02    -0.004 A 
HETATM    7  C6    D T1000      -3.606   0.826  14.908  1.00 41.29    -0.014 A 
HETATM    8  C5    D T1000      -2.319   0.431  15.148  1.00 41.18     0.038 A 
HETATM    9  C11   D T1000      -4.758   0.006  15.406  1.00 38.87     0.032 C 
HETATM   10  C10   D T1000      -1.214   1.166  14.641  1.00 39.13     0.013 A 
BRANCH   8  11
HETATM   11  C4    D T1000      -1.966  -0.854  15.852  1.00 40.03    -0.058 C 
HETATM   12  C3    D T1000      -1.737  -1.881  16.386  1.00 38.63    -0.039 C 
BRANCH  12  13
HETATM   13  C2    D T1000      -1.392  -3.181  17.010  1.00 38.26     0.145 A 
HETATM   14  N82   D T1000      -2.179  -4.155  17.558  1.00 40.77    -0.203 N 
HETATM   15  N81   D T1000      -3.538  -4.237  17.732  1.00 38.88    -0.162 NA
HETATM   16  C84   D T1000      -1.323  -5.163  17.956  1.00 40.90     0.165 A 
HETATM   17  C83   D T1000      -4.059  -5.338  18.291  1.00 41.85     0.121 A 
HETATM   18  C82   D T1000      -3.252  -6.373  18.703  1.00 42.85     0.026 A 
HETATM   19  C81   D T1000      -1.877  -6.315  18.555  1.00 42.17     0.041 A 
HETATM   20  N1    D T1000      -0.056  -4.809  17.681  1.00 37.62    -0.223 NA
HETATM   21  C1    D T1000      -0.067  -3.613  17.107  1.00 35.75     0.128 A 
ENDBRANCH  12  13
ENDBRANCH   8  11
ENDBRANCH   1   4
BRANCH   3  22
HETATM   22  C13   D T1000       2.049   2.836  12.141  1.00 41.48     0.085 A 
HETATM   23  C14   D T1000       3.263   2.597  12.732  1.00 41.52     0.019 A 
HETATM   24  C15   D T1000       4.410   3.203  12.196  1.00 43.29    -0.001 A 
HETATM   25  C16   D T1000       4.338   4.060  11.093  1.00 41.94     0.004 A 
HETATM   26  C17   D T1000       3.129   4.321  10.490  1.00 41.92     0.071 A 
HETATM   27  C18   D T1000       1.980   3.730  11.042  1.00 42.85     0.023 A 
BRANCH  25  28
HETATM   28  C20   D T1000       5.674   4.650  10.636  1.00 42.14     0.124 C 
BRANCH  28  29
HETATM   29  N3    D T1000       6.233   5.483  11.739  1.00 43.91    -0.362 N 
HETATM   30  C21   D T1000       7.655   5.243  11.956  1.00 45.37     0.121 C 
HETATM   31  C22   D T1000       8.085   5.988  13.199  1.00 47.91     0.121 C 
HETATM   32  N4    D T1000       7.770   7.404  13.115  1.00 47.69    -0.364 N 
HETATM   33  C23   D T1000       6.894   7.813  12.052  1.00 46.74     0.121 C 
HETATM   34  C25   D T1000       8.730   8.343  13.680  1.00 50.05     0.121 C 
HETATM   35  C24   D T1000       5.749   6.832  11.905  1.00 45.99     0.121 C 
ENDBRANCH  28  29
ENDBRANCH  25  28
BRANCH  26  36
HETATM   36  C19   D T1000       3.017   5.263   9.317  1.00 48.32     0.419 C 
HETATM   37  F1    D T1000       1.712   5.295   8.991  1.00 50.04    -0.166 F 
HETATM   38  F2    D T1000       3.651   4.789   8.232  1.00 52.24    -0.166 F 
HETATM   39  F3    D T1000       3.489   6.486   9.622  1.00 44.36    -0.166 F 
ENDBRANCH  26  36
ENDBRANCH   3  22
TORSDOF 7
ENDMDL
MODEL 4
REMARK VINA RESULT:    -8.360      2.038      2.878
REMARK INTER + INTRA:         -12.766
REMARK INTER:                 -11.677
REMARK INTRA:                  -1.090
REMARK UNBOUND:                -0.986
REMARK  7 active torsions:
REMARK  status: ('A' for Active; 'I' for Inactive)
REMARK    1  A    between atoms: N3_2  and  C20_12 
REMARK    2  A    between atoms: C4_3  and  C5_4 
REMARK    3  A    between atoms: C13_9  and  N2_29 
REMARK    4  A    between atoms: C17_11  and  C19_33 
REMARK    5  A    between atoms: C20_12  and  C16_31 
REMARK    6  A    between atoms: C2_23  and  C3_24 
REMARK    7  A    between atoms: C9_25  and  C12_27 
REMARK       I    between atoms: C12_27  and  N2_29 
ROOT
HETATM    1  C12   D T1000      -0.121   2.884  13.351  1.00 43.27     0.279 C 
HETATM    2  O1    D T1000       0.006   4.109  13.508  1.00 42.40    -0.265 OA
HETATM    3  N2    D T1000       0.929   2.047  12.756  1.00 39.93    -0.208 NA
ENDROOT
BRANCH   1   4
HETATM    4  C9    D T1000      -1.378   2.244  13.921  1.00 40.54     0.059 A 
HETATM    5  C8    D T1000      -2.658   2.718  13.697  1.00 39.10     0.004 A 
HETATM    6  C7    D T1000      -3.768   2.010  14.210  1.00 41.02    -0.004 A 
HETATM    7  C6    D T1000      -3.621   0.807  14.920  1.00 41.29    -0.014 A 
HETATM    8  C5    D T1000      -2.348   0.357  15.136  1.00 41.18     0.038 A 
HETATM    9  C11   D T1000      -4.797   0.044  15.450  1.00 38.87     0.032 C 
HETATM   10  C10   D T1000      -1.222   1.037  14.598  1.00 39.13     0.013 A 
BRANCH   8  11
HETATM   11  C4    D T1000      -2.037  -0.937  15.844  1.00 40.03    -0.058 C 
HETATM   12  C3    D T1000      -1.846  -1.964  16.391  1.00 38.63    -0.039 C 
BRANCH  12  13
HETATM   13  C2    D T1000      -1.557  -3.274  17.022  1.00 38.26     0.145 A 
HETATM   14  N82   D T1000      -0.378  -3.932  17.235  1.00 40.77    -0.203 N 
HETATM   15  N81   D T1000       0.916  -3.609  16.913  1.00 38.88    -0.162 NA
HETATM   16  C84   D T1000      -0.702  -5.100  17.897  1.00 40.90     0.165 A 
HETATM   17  C83   D T1000       1.905  -4.442  17.265  1.00 41.85     0.121 A 
HETATM   18  C82   D T1000       1.637  -5.617  17.929  1.00 42.85     0.026 A 
HETATM   19  C81   D T1000       0.342  -5.979  18.255  1.00 42.17     0.041 A 
HETATM   20  N1    D T1000      -2.034  -5.164  18.064  1.00 37.62    -0.223 NA
HETATM   21  C1    D T1000      -2.578  -4.072  17.545  1.00 35.75     0.128 A 
ENDBRANCH  12  13
ENDBRANCH   8  11
ENDBRANCH   1   4
BRANCH   3  22
HETATM   22  C13   D T1000       2.196   2.504  12.282  1.00 41.48     0.085 A 
HETATM   23  C14   D T1000       2.411   3.062  11.048  1.00 41.52     0.019 A 
HETATM   24  C15   D T1000       3.718   3.416  10.681  1.00 43.29    -0.001 A 
HETATM   25  C16   D T1000       4.804   3.189  11.533  1.00 41.94     0.004 A 
HETATM   26  C17   D T1000       4.612   2.622  12.772  1.00 41.92     0.071 A 
HETATM   27  C18   D T1000       3.306   2.250  13.128  1.00 42.85     0.023 A 
BRANCH  25  28
HETATM   28  C20   D T1000       6.166   3.619  10.982  1.00 42.14     0.124 C 
BRANCH  28  29
HETATM   29  N3    D T1000       6.266   3.189   9.558  1.00 43.91    -0.362 N 
HETATM   30  C21   D T1000       6.581   4.294   8.661  1.00 45.37     0.121 C 
HETATM   31  C22   D T1000       6.481   3.800   7.235  1.00 47.91     0.121 C 
HETATM   32  N4    D T1000       7.328   2.642   7.006  1.00 47.69    -0.364 N 
HETATM   33  C23   D T1000       7.882   2.001   8.166  1.00 46.74     0.121 C 
HETATM   34  C25   D T1000       8.003   2.546   5.718  1.00 50.05     0.121 C 
HETATM   35  C24   D T1000       6.841   1.899   9.260  1.00 45.99     0.121 C 
ENDBRANCH  28  29
ENDBRANCH  25  28
BRANCH  26  36
HETATM   36  C19   D T1000       5.769   2.339  13.699  1.00 48.32     0.419 C 
HETATM   37  F1    D T1000       5.225   1.865  14.834  1.00 50.04    -0.166 F 
HETATM   38  F2    D T1000       6.415   3.464  14.050  1.00 52.24    -0.166 F 
HETATM   39  F3    D T1000       6.635   1.467  13.154  1.00 44.36    -0.166 F 
ENDBRANCH  26  36
ENDBRANCH   3  22
TORSDOF 7
ENDMDL
MODEL 5
REMARK VINA RESULT:    -8.334      2.361      2.790
REMARK INTER + INTRA:         -12.730
REMARK INTER:                 -11.595
REMARK INTRA:                  -1.135
REMARK UNBOUND:                -0.986
REMARK  7 active torsions:
REMARK  status: ('A' for Active; 'I' for Inactive)
REMARK    1  A    between atoms: N3_2  and  C20_12 
REMARK    2  A    between atoms: C4_3  and  C5_4 
REMARK    3  A    between atoms: C13_9  and  N2_29 
REMARK    4  A    between atoms: C17_11  and  C19_33 
REMARK    5  A    between atoms: C20_12  and  C16_31 
REMARK    6  A    between atoms: C2_23  and  C3_24 
REMARK    7  A    between atoms: C9_25  and  C12_27 
REMARK       I    between atoms: C12_27  and  N2_29 
ROOT
HETATM    1  C12   D T1000       0.610   2.361  13.821  1.00 43.27     0.279 C 
HETATM    2  O1    D T1000       1.077   3.332  14.437  1.00 42.40    -0.265 OA
HETATM    3  N2    D T1000       1.370   1.627  12.800  1.00 39.93    -0.208 NA
ENDROOT
BRANCH   1   4
HETATM    4  C9    D T1000      -0.762   1.866  14.254  1.00 40.54     0.059 A 
HETATM    5  C8    D T1000      -1.950   2.505  13.945  1.00 39.10     0.004 A 
HETATM    6  C7    D T1000      -3.179   1.927  14.332  1.00 41.02    -0.004 A 
HETATM    7  C6    D T1000      -3.245   0.693  14.998  1.00 41.29    -0.014 A 
HETATM    8  C5    D T1000      -2.061   0.077  15.300  1.00 41.18     0.038 A 
HETATM    9  C11   D T1000      -4.548   0.067  15.394  1.00 38.87     0.032 C 
HETATM   10  C10   D T1000      -0.817   0.628  14.888  1.00 39.13     0.013 A 
BRANCH   8  11
HETATM   11  C4    D T1000      -1.976  -1.268  15.973  1.00 40.03    -0.058 C 
HETATM   12  C3    D T1000      -1.858  -2.309  16.514  1.00 38.63    -0.039 C 
BRANCH  12  13
HETATM   13  C2    D T1000      -1.763  -3.596  17.244  1.00 38.26     0.145 A 
HETATM   14  N82   D T1000      -2.721  -4.367  17.842  1.00 40.77    -0.203 N 
HETATM   15  N81   D T1000      -4.074  -4.189  17.985  1.00 38.88    -0.162 NA
HETATM   16  C84   D T1000      -2.068  -5.477  18.339  1.00 40.90     0.165 A 
HETATM   17  C83   D T1000      -4.794  -5.130  18.611  1.00 41.85     0.121 A 
HETATM   18  C82   D T1000      -4.193  -6.257  19.122  1.00 42.85     0.026 A 
HETATM   19  C81   D T1000      -2.830  -6.459  19.008  1.00 42.17     0.041 A 
HETATM   20  N1    D T1000      -0.753  -5.380  18.073  1.00 37.62    -0.223 NA
HETATM   21  C1    D T1000      -0.540  -4.251  17.410  1.00 35.75     0.128 A 
ENDBRANCH  12  13
ENDBRANCH   8  11
ENDBRANCH   1   4
BRANCH   3  22
HETATM   22  C13   D T1000       2.703   1.919  12.379  1.00 41.48     0.085 A 
HETATM   23  C14   D T1000       3.045   2.943  11.533  1.00 41.52     0.019 A 
HETATM   24  C15   D T1000       4.387   3.085  11.148  1.00 43.29    -0.001 A 
HETATM   25  C16   D T1000       5.373   2.195  11.586  1.00 41.94     0.004 A 
HETATM   26  C17   D T1000       5.049   1.155  12.428  1.00 41.92     0.071 A 
HETATM   27  C18   D T1000       3.702   1.003  12.794  1.00 42.85     0.023 A 
BRANCH  25  28
HETATM   28  C20   D T1000       6.785   2.478  11.068  1.00 42.14     0.124 C 
BRANCH  28  29
HETATM   29  N3    D T1000       6.799   2.298   9.589  1.00 43.91    -0.362 N 
HETATM   30  C21   D T1000       7.276   3.482   8.885  1.00 45.37     0.121 C 
HETATM   31  C22   D T1000       7.082   3.271   7.401  1.00 47.91     0.121 C 
HETATM   32  N4    D T1000       7.731   2.056   6.940  1.00 47.69    -0.364 N 
HETATM   33  C23   D T1000       8.189   1.141   7.949  1.00 46.74     0.121 C 
HETATM   34  C25   D T1000       8.368   2.086   5.630  1.00 50.05     0.121 C 
HETATM   35  C24   D T1000       7.158   1.008   9.049  1.00 45.99     0.121 C 
ENDBRANCH  28  29
ENDBRANCH  25  28
BRANCH  26  36
HETATM   36  C19   D T1000       6.087   0.163  12.893  1.00 48.32     0.419 C 
HETATM   37  F1    D T1000       5.443  -0.689  13.711  1.00 50.04    -0.166 F 
HETATM   38  F2    D T1000       7.033   0.745  13.648  1.00 52.24    -0.166 F 
HETATM   39  F3    D T1000       6.659  -0.473  11.855  1.00 44.36    -0.166 F 
ENDBRANCH  26  36
ENDBRANCH   3  22
TORSDOF 7
ENDMDL
MODEL 6
REMARK VINA RESULT:    -8.177      4.923     14.101
REMARK INTER + INTRA:         -12.509
REMARK INTER:                 -12.024
REMARK INTRA:                  -0.485
REMARK UNBOUND:                -0.986
REMARK  7 active torsions:
REMARK  status: ('A' for Active; 'I' for Inactive)
REMARK    1  A    between atoms: N3_2  and  C20_12 
REMARK    2  A    between atoms: C4_3  and  C5_4 
REMARK    3  A    between atoms: C13_9  and  N2_29 
REMARK    4  A    between atoms: C17_11  and  C19_33 
REMARK    5  A    between atoms: C20_12  and  C16_31 
REMARK    6  A    between atoms: C2_23  and  C3_24 
REMARK    7  A    between atoms: C9_25  and  C12_27 
REMARK       I    between atoms: C12_27  and  N2_29 
ROOT
HETATM    1  C12   D T1000       2.900   4.296   9.378  1.00 43.27     0.279 C 
HETATM    2  O1    D T1000       2.698   3.078   9.504  1.00 42.40    -0.265 OA
HETATM    3  N2    D T1000       2.091   5.311  10.066  1.00 39.93    -0.208 NA
ENDROOT
BRANCH   1   4
HETATM    4  C9    D T1000       4.118   4.712   8.566  1.00 40.54     0.059 A 
HETATM    5  C8    D T1000       5.146   3.853   8.216  1.00 39.10     0.004 A 
HETATM    6  C7    D T1000       6.199   4.317   7.398  1.00 41.02    -0.004 A 
HETATM    7  C6    D T1000       6.227   5.626   6.890  1.00 41.29    -0.014 A 
HETATM    8  C5    D T1000       5.206   6.462   7.250  1.00 41.18     0.038 A 
HETATM    9  C11   D T1000       7.334   6.116   6.006  1.00 38.87     0.032 C 
HETATM   10  C10   D T1000       4.121   6.002   8.044  1.00 39.13     0.013 A 
BRANCH   8  11
HETATM   11  C4    D T1000       5.080   7.877   6.749  1.00 40.03    -0.058 C 
HETATM   12  C3    D T1000       4.928   8.982   6.365  1.00 38.63    -0.039 C 
BRANCH  12  13
HETATM   13  C2    D T1000       4.776  10.395   5.942  1.00 38.26     0.145 A 
HETATM   14  N82   D T1000       5.617  11.226   5.255  1.00 40.77    -0.203 N 
HETATM   15  N81   D T1000       6.881  11.033   4.757  1.00 38.88    -0.162 NA
HETATM   16  C84   D T1000       4.943  12.422   5.111  1.00 40.90     0.165 A 
HETATM   17  C83   D T1000       7.480  12.031   4.093  1.00 41.85     0.121 A 
HETATM   18  C82   D T1000       6.852  13.242   3.918  1.00 42.85     0.026 A 
HETATM   19  C81   D T1000       5.584  13.473   4.421  1.00 42.17     0.041 A 
HETATM   20  N1    D T1000       3.742  12.334   5.707  1.00 37.62    -0.223 NA
HETATM   21  C1    D T1000       3.612  11.117   6.218  1.00 35.75     0.128 A 
ENDBRANCH  12  13
ENDBRANCH   8  11
ENDBRANCH   1   4
BRANCH   3  22
HETATM   22  C13   D T1000       0.991   5.052  10.939  1.00 41.48     0.085 A 
HETATM   23  C14   D T1000       1.110   4.615  12.234  1.00 41.52     0.019 A 
HETATM   24  C15   D T1000      -0.054   4.341  12.967  1.00 43.29    -0.001 A 
HETATM   25  C16   D T1000      -1.326   4.479  12.401  1.00 41.94     0.004 A 
HETATM   26  C17   D T1000      -1.468   4.907  11.101  1.00 41.92     0.071 A 
HETATM   27  C18   D T1000      -0.300   5.161  10.363  1.00 42.85     0.023 A 
BRANCH  25  28
HETATM   28  C20   D T1000      -2.494   4.130  13.326  1.00 42.14     0.124 C 
BRANCH  28  29
HETATM   29  N3    D T1000      -2.453   2.669  13.620  1.00 43.91    -0.362 N 
HETATM   30  C21   D T1000      -1.433   2.325  14.603  1.00 45.37     0.121 C 
HETATM   31  C22   D T1000      -1.345   0.818  14.698  1.00 47.91     0.121 C 
HETATM   32  N4    D T1000      -2.632   0.221  15.006  1.00 47.69    -0.364 N 
HETATM   33  C23   D T1000      -3.786   1.071  14.898  1.00 46.74     0.121 C 
HETATM   34  C25   D T1000      -2.646  -0.928  15.901  1.00 50.05     0.121 C 
HETATM   35  C24   D T1000      -3.693   1.931  13.655  1.00 45.99     0.121 C 
ENDBRANCH  28  29
ENDBRANCH  25  28
BRANCH  26  36
HETATM   36  C19   D T1000      -2.825   5.038  10.455  1.00 48.32     0.419 C 
HETATM   37  F1    D T1000      -2.594   5.279   9.152  1.00 50.04    -0.166 F 
HETATM   38  F2    D T1000      -3.494   6.111  10.909  1.00 52.24    -0.166 F 
HETATM   39  F3    D T1000      -3.565   3.929  10.637  1.00 44.36    -0.166 F 
ENDBRANCH  26  36
ENDBRANCH   3  22
TORSDOF 7
ENDMDL
MODEL 7
REMARK VINA RESULT:    -8.162      2.480      3.785
REMARK INTER + INTRA:         -12.489
REMARK INTER:                 -11.404
REMARK INTRA:                  -1.085
REMARK UNBOUND:                -0.986
REMARK  7 active torsions:
REMARK  status: ('A' for Active; 'I' for Inactive)
REMARK    1  A    between atoms: N3_2  and  C20_12 
REMARK    2  A    between atoms: C4_3  and  C5_4 
REMARK    3  A    between atoms: C13_9  and  N2_29 
REMARK    4  A    between atoms: C17_11  and  C19_33 
REMARK    5  A    between atoms: C20_12  and  C16_31 
REMARK    6  A    between atoms: C2_23  and  C3_24 
REMARK    7  A    between atoms: C9_25  and  C12_27 
REMARK       I    between atoms: C12_27  and  N2_29 
ROOT
HETATM    1  C12   D T1000      -0.152   3.426  13.391  1.00 43.27     0.279 C 
HETATM    2  O1    D T1000       0.364   4.205  14.209  1.00 42.40    -0.265 OA
HETATM    3  N2    D T1000       0.455   3.129  12.086  1.00 39.93    -0.208 NA
ENDROOT
BRANCH   1   4
HETATM    4  C9    D T1000      -1.396   2.678  13.843  1.00 40.54     0.059 A 
HETATM    5  C8    D T1000      -2.689   3.078  13.554  1.00 39.10     0.004 A 
HETATM    6  C7    D T1000      -3.779   2.275  13.958  1.00 41.02    -0.004 A 
HETATM    7  C6    D T1000      -3.596   1.050  14.620  1.00 41.29    -0.014 A 
HETATM    8  C5    D T1000      -2.312   0.673  14.901  1.00 41.18     0.038 A 
HETATM    9  C11   D T1000      -4.750   0.186  15.033  1.00 38.87     0.032 C 
HETATM   10  C10   D T1000      -1.204   1.451  14.473  1.00 39.13     0.013 A 
BRANCH   8  11
HETATM   11  C4    D T1000      -1.961  -0.632  15.569  1.00 40.03    -0.058 C 
HETATM   12  C3    D T1000      -1.674  -1.625  16.137  1.00 38.63    -0.039 C 
BRANCH  12  13
HETATM   13  C2    D T1000      -1.385  -2.896  16.843  1.00 38.26     0.145 A 
HETATM   14  N82   D T1000      -0.202  -3.482  17.198  1.00 40.77    -0.203 N 
HETATM   15  N81   D T1000       1.100  -3.100  16.995  1.00 38.88    -0.162 NA
HETATM   16  C84   D T1000      -0.533  -4.643  17.869  1.00 40.90     0.165 A 
HETATM   17  C83   D T1000       2.088  -3.867  17.476  1.00 41.85     0.121 A 
HETATM   18  C82   D T1000       1.814  -5.032  18.154  1.00 42.85     0.026 A 
HETATM   19  C81   D T1000       0.513  -5.452  18.363  1.00 42.17     0.041 A 
HETATM   20  N1    D T1000      -1.870  -4.774  17.904  1.00 37.62    -0.223 NA
HETATM   21  C1    D T1000      -2.412  -3.730  17.292  1.00 35.75     0.128 A 
ENDBRANCH  12  13
ENDBRANCH   8  11
ENDBRANCH   1   4
BRANCH   3  22
HETATM   22  C13   D T1000       1.674   3.678  11.586  1.00 41.48     0.085 A 
HETATM   23  C14   D T1000       1.792   4.917  11.011  1.00 41.52     0.019 A 
HETATM   24  C15   D T1000       3.038   5.315  10.503  1.00 43.29    -0.001 A 
HETATM   25  C16   D T1000       4.151   4.469  10.550  1.00 41.94     0.004 A 
HETATM   26  C17   D T1000       4.053   3.217  11.114  1.00 41.92     0.071 A 
HETATM   27  C18   D T1000       2.799   2.814  11.601  1.00 42.85     0.023 A 
BRANCH  25  28
HETATM   28  C20   D T1000       5.434   5.043   9.944  1.00 42.14     0.124 C 
BRANCH  28  29
HETATM   29  N3    D T1000       5.700   6.375  10.558  1.00 43.91    -0.362 N 
HETATM   30  C21   D T1000       6.319   6.271  11.874  1.00 45.37     0.121 C 
HETATM   31  C22   D T1000       6.381   7.652  12.487  1.00 47.91     0.121 C 
HETATM   32  N4    D T1000       7.071   8.594  11.625  1.00 47.69    -0.364 N 
HETATM   33  C23   D T1000       7.326   8.174  10.275  1.00 46.74     0.121 C 
HETATM   34  C25   D T1000       7.926   9.589  12.260  1.00 50.05     0.121 C 
HETATM   35  C24   D T1000       6.117   7.463   9.706  1.00 45.99     0.121 C 
ENDBRANCH  28  29
ENDBRANCH  25  28
BRANCH  26  36
HETATM   36  C19   D T1000       5.229   2.272  11.151  1.00 48.32     0.419 C 
HETATM   37  F1    D T1000       5.518   1.990   9.868  1.00 50.04    -0.166 F 
HETATM   38  F2    D T1000       4.908   1.097  11.718  1.00 52.24    -0.166 F 
HETATM   39  F3    D T1000       6.277   2.817  11.794  1.00 44.36    -0.166 F 
ENDBRANCH  26  36
ENDBRANCH   3  22
TORSDOF 7
ENDMDL
MODEL 8
REMARK VINA RESULT:    -7.704      4.952     11.637
REMARK INTER + INTRA:         -11.843
REMARK INTER:                 -11.962
REMARK INTRA:                   0.119
REMARK UNBOUND:                -0.986
REMARK  7 active torsions:
REMARK  status: ('A' for Active; 'I' for Inactive)
REMARK    1  A    between atoms: N3_2  and  C20_12 
REMARK    2  A    between atoms: C4_3  and  C5_4 
REMARK    3  A    between atoms: C13_9  and  N2_29 
REMARK    4  A    between atoms: C17_11  and  C19_33 
REMARK    5  A    between atoms: C20_12  and  C16_31 
REMARK    6  A    between atoms: C2_23  and  C3_24 
REMARK    7  A    between atoms: C9_25  and  C12_27 
REMARK       I    between atoms: C12_27  and  N2_29 
ROOT
HETATM    1  C12   D T1000      -2.644  -0.012  15.435  1.00 43.27     0.279 C 
HETATM    2  O1    D T1000      -3.691  -0.585  15.778  1.00 42.40    -0.265 OA
HETATM    3  N2    D T1000      -1.312  -0.586  15.666  1.00 39.93    -0.208 NA
ENDROOT
BRANCH   1   4
HETATM    4  C9    D T1000      -2.794   1.277  14.640  1.00 40.54     0.059 A 
HETATM    5  C8    D T1000      -3.970   2.000  14.551  1.00 39.10     0.004 A 
HETATM    6  C7    D T1000      -3.989   3.224  13.847  1.00 41.02    -0.004 A 
HETATM    7  C6    D T1000      -2.834   3.761  13.255  1.00 41.29    -0.014 A 
HETATM    8  C5    D T1000      -1.682   3.031  13.350  1.00 41.18     0.038 A 
HETATM    9  C11   D T1000      -2.846   5.070  12.523  1.00 38.87     0.032 C 
HETATM   10  C10   D T1000      -1.637   1.814  14.083  1.00 39.13     0.013 A 
BRANCH   8  11
HETATM   11  C4    D T1000      -0.358   3.498  12.801  1.00 40.03    -0.058 C 
HETATM   12  C3    D T1000       0.666   3.838  12.325  1.00 38.63    -0.039 C 
BRANCH  12  13
HETATM   13  C2    D T1000       1.930   4.336  11.731  1.00 38.26     0.145 A 
HETATM   14  N82   D T1000       3.220   3.904  11.862  1.00 40.77    -0.203 N 
HETATM   15  N81   D T1000       3.770   2.889  12.605  1.00 38.88    -0.162 NA
HETATM   16  C84   D T1000       3.984   4.720  11.052  1.00 40.90     0.165 A 
HETATM   17  C83   D T1000       5.089   2.666  12.531  1.00 41.85     0.121 A 
HETATM   18  C82   D T1000       5.895   3.448  11.737  1.00 42.85     0.026 A 
HETATM   19  C81   D T1000       5.375   4.488  10.988  1.00 42.17     0.041 A 
HETATM   20  N1    D T1000       3.193   5.633  10.462  1.00 37.62    -0.223 NA
HETATM   21  C1    D T1000       1.943   5.423  10.854  1.00 35.75     0.128 A 
ENDBRANCH  12  13
ENDBRANCH   8  11
ENDBRANCH   1   4
BRANCH   3  22
HETATM   22  C13   D T1000      -1.038  -1.835  16.301  1.00 41.48     0.085 A 
HETATM   23  C14   D T1000       0.186  -2.453  16.311  1.00 41.52     0.019 A 
HETATM   24  C15   D T1000       0.307  -3.710  16.921  1.00 43.29    -0.001 A 
HETATM   25  C16   D T1000      -0.793  -4.355  17.495  1.00 41.94     0.004 A 
HETATM   26  C17   D T1000      -2.033  -3.758  17.488  1.00 41.92     0.071 A 
HETATM   27  C18   D T1000      -2.156  -2.509  16.858  1.00 42.85     0.023 A 
BRANCH  25  28
HETATM   28  C20   D T1000      -0.500  -5.726  18.109  1.00 42.14     0.124 C 
BRANCH  28  29
HETATM   29  N3    D T1000       0.472  -5.554  19.226  1.00 43.91    -0.362 N 
HETATM   30  C21   D T1000       1.845  -5.823  18.818  1.00 45.37     0.121 C 
HETATM   31  C22   D T1000       2.725  -5.802  20.048  1.00 47.91     0.121 C 
HETATM   32  N4    D T1000       2.600  -4.552  20.778  1.00 47.69    -0.364 N 
HETATM   33  C23   D T1000       1.514  -3.689  20.408  1.00 46.74     0.121 C 
HETATM   34  C25   D T1000       3.806  -4.001  21.382  1.00 50.05     0.121 C 
HETATM   35  C24   D T1000       0.253  -4.495  20.181  1.00 45.99     0.121 C 
ENDBRANCH  28  29
ENDBRANCH  25  28
BRANCH  26  36
HETATM   36  C19   D T1000      -3.244  -4.442  18.074  1.00 48.32     0.419 C 
HETATM   37  F1    D T1000      -2.896  -4.807  19.321  1.00 50.04    -0.166 F 
HETATM   38  F2    D T1000      -3.533  -5.585  17.429  1.00 52.24    -0.166 F 
HETATM   39  F3    D T1000      -4.317  -3.632  18.068  1.00 44.36    -0.166 F 
ENDBRANCH  26  36
ENDBRANCH   3  22
TORSDOF 7
ENDMDL
MODEL 9
REMARK VINA RESULT:    -7.702      2.771      3.766
REMARK INTER + INTRA:         -11.839
REMARK INTER:                 -10.667
REMARK INTRA:                  -1.173
REMARK UNBOUND:                -0.986
REMARK  7 active torsions:
REMARK  status: ('A' for Active; 'I' for Inactive)
REMARK    1  A    between atoms: N3_2  and  C20_12 
REMARK    2  A    between atoms: C4_3  and  C5_4 
REMARK    3  A    between atoms: C13_9  and  N2_29 
REMARK    4  A    between atoms: C17_11  and  C19_33 
REMARK    5  A    between atoms: C20_12  and  C16_31 
REMARK    6  A    between atoms: C2_23  and  C3_24 
REMARK    7  A    between atoms: C9_25  and  C12_27 
REMARK       I    between atoms: C12_27  and  N2_29 
ROOT
HETATM    1  C12   D T1000       0.372   1.864  14.031  1.00 43.27     0.279 C 
HETATM    2  O1    D T1000       0.483   3.041  13.654  1.00 42.40    -0.265 OA
HETATM    3  N2    D T1000       1.519   0.954  14.142  1.00 39.93    -0.208 NA
ENDROOT
BRANCH   1   4
HETATM    4  C9    D T1000      -1.005   1.420  14.504  1.00 40.54     0.059 A 
HETATM    5  C8    D T1000      -2.177   2.099  14.222  1.00 39.10     0.004 A 
HETATM    6  C7    D T1000      -3.415   1.566  14.645  1.00 41.02    -0.004 A 
HETATM    7  C6    D T1000      -3.506   0.338  15.320  1.00 41.29    -0.014 A 
HETATM    8  C5    D T1000      -2.337  -0.317  15.594  1.00 41.18     0.038 A 
HETATM    9  C11   D T1000      -4.820  -0.239  15.754  1.00 38.87     0.032 C 
HETATM   10  C10   D T1000      -1.086   0.187  15.147  1.00 39.13     0.013 A 
BRANCH   8  11
HETATM   11  C4    D T1000      -2.281  -1.661  16.273  1.00 40.03    -0.058 C 
HETATM   12  C3    D T1000      -2.193  -2.725  16.775  1.00 38.63    -0.039 C 
BRANCH  12  13
HETATM   13  C2    D T1000      -2.069  -4.027  17.472  1.00 38.26     0.145 A 
HETATM   14  N82   D T1000      -0.972  -4.780  17.789  1.00 40.77    -0.203 N 
HETATM   15  N81   D T1000       0.364  -4.589  17.544  1.00 38.88    -0.162 NA
HETATM   16  C84   D T1000      -1.446  -5.884  18.469  1.00 40.90     0.165 A 
HETATM   17  C83   D T1000       1.246  -5.492  17.993  1.00 41.85     0.121 A 
HETATM   18  C82   D T1000       0.827  -6.609  18.679  1.00 42.85     0.026 A 
HETATM   19  C81   D T1000      -0.514  -6.838  18.929  1.00 42.17     0.041 A 
HETATM   20  N1    D T1000      -2.787  -5.821  18.546  1.00 37.62    -0.223 NA
HETATM   21  C1    D T1000      -3.192  -4.707  17.952  1.00 35.75     0.128 A 
ENDBRANCH  12  13
ENDBRANCH   8  11
ENDBRANCH   1   4
BRANCH   3  22
HETATM   22  C13   D T1000       2.876   1.276  13.836  1.00 41.48     0.085 A 
HETATM   23  C14   D T1000       3.732   1.931  14.684  1.00 41.52     0.019 A 
HETATM   24  C15   D T1000       5.025   2.241  14.236  1.00 43.29    -0.001 A 
HETATM   25  C16   D T1000       5.448   1.922  12.942  1.00 41.94     0.004 A 
HETATM   26  C17   D T1000       4.602   1.274  12.071  1.00 41.92     0.071 A 
HETATM   27  C18   D T1000       3.302   0.983  12.514  1.00 42.85     0.023 A 
BRANCH  25  28
HETATM   28  C20   D T1000       6.881   2.338  12.602  1.00 42.14     0.124 C 
BRANCH  28  29
HETATM   29  N3    D T1000       6.956   3.827  12.577  1.00 43.91    -0.362 N 
HETATM   30  C21   D T1000       7.854   4.359  13.594  1.00 45.37     0.121 C 
HETATM   31  C22   D T1000       7.724   5.865  13.611  1.00 47.91     0.121 C 
HETATM   32  N4    D T1000       7.969   6.442  12.301  1.00 47.69    -0.364 N 
HETATM   33  C23   D T1000       8.014   5.534  11.189  1.00 46.74     0.121 C 
HETATM   34  C25   D T1000       8.685   7.710  12.246  1.00 50.05     0.121 C 
HETATM   35  C24   D T1000       6.910   4.504  11.304  1.00 45.99     0.121 C 
ENDBRANCH  28  29
ENDBRANCH  25  28
BRANCH  26  36
HETATM   36  C19   D T1000       5.022   0.942  10.660  1.00 48.32     0.419 C 
HETATM   37  F1    D T1000       4.048   0.162  10.158  1.00 50.04    -0.166 F 
HETATM   38  F2    D T1000       6.137   0.193  10.632  1.00 52.24    -0.166 F 
HETATM   39  F3    D T1000       5.202   2.056   9.926  1.00 44.36    -0.166 F 
ENDBRANCH  26  36
ENDBRANCH   3  22
TORSDOF 7
ENDMDL
