MODEL 1
REMARK VINA RESULT:    -8.235      0.000      0.000
REMARK INTER + INTRA:         -12.595
REMARK INTER:                 -11.605
REMARK INTRA:                  -0.990
REMARK UNBOUND:                -0.990
REMARK  7 active torsions:
REMARK  status: ('A' for Active; 'I' for Inactive)
REMARK    1  A    between atoms: N3_2  and  C20_12 
REMARK    2  A    between atoms: C4_3  and  C5_4 
REMARK    3  A    between atoms: C13_9  and  N2_29 
REMARK    4  A    between atoms: C17_11  and  C19_33 
REMARK    5  A    between atoms: C20_12  and  C16_31 
REMARK    6  A    between atoms: C2_23  and  C3_24 
REMARK    7  A    between atoms: C9_25  and  C12_27 
REMARK       I    between atoms: C12_27  and  N2_29 
ROOT
HETATM    1  C12   D T1000       8.185  -7.377  -0.151  1.00 43.27     0.279 C 
HETATM    2  O1    D T1000       7.268  -7.660  -0.940  1.00 42.40    -0.265 OA
HETATM    3  N2    D T1000       8.934  -8.399   0.594  1.00 39.93    -0.208 NA
ENDROOT
BRANCH   1   4
HETATM    4  C9    D T1000       8.601  -5.915  -0.073  1.00 40.54     0.059 A 
HETATM    5  C8    D T1000       9.270  -5.357   1.001  1.00 39.10     0.004 A 
HETATM    6  C7    D T1000       9.678  -4.006   0.948  1.00 41.02    -0.004 A 
HETATM    7  C6    D T1000       9.458  -3.206  -0.186  1.00 41.29    -0.014 A 
HETATM    8  C5    D T1000       8.791  -3.774  -1.237  1.00 41.18     0.038 A 
HETATM    9  C11   D T1000       9.906  -1.776  -0.254  1.00 38.87     0.032 C 
HETATM   10  C10   D T1000       8.404  -5.141  -1.212  1.00 39.13     0.013 A 
BRANCH   8  11
HETATM   11  C4    D T1000       8.520  -3.053  -2.532  1.00 40.03    -0.058 C 
HETATM   12  C3    D T1000       8.299  -2.539  -3.570  1.00 38.63    -0.039 C 
BRANCH  12  13
HETATM   13  C2    D T1000       7.962  -1.857  -4.842  1.00 38.26     0.145 A 
HETATM   14  N82   D T1000       8.219  -0.588  -5.282  1.00 40.77    -0.203 N 
HETATM   15  N81   D T1000       8.847   0.473  -4.683  1.00 38.88    -0.162 NA
HETATM   16  C84   D T1000       7.702  -0.511  -6.560  1.00 40.90     0.165 A 
HETATM   17  C83   D T1000       8.984   1.620  -5.362  1.00 41.85     0.121 A 
HETATM   18  C82   D T1000       8.489   1.750  -6.639  1.00 42.85     0.026 A 
HETATM   19  C81   D T1000       7.838   0.703  -7.266  1.00 42.17     0.041 A 
HETATM   20  N1    D T1000       7.130  -1.685  -6.883  1.00 37.62    -0.223 NA
HETATM   21  C1    D T1000       7.273  -2.519  -5.862  1.00 35.75     0.128 A 
ENDBRANCH  12  13
ENDBRANCH   8  11
ENDBRANCH   1   4
BRANCH   3  22
HETATM   22  C13   D T1000       8.718  -9.808   0.528  1.00 41.48     0.085 A 
HETATM   23  C14   D T1000       8.894 -10.573  -0.596  1.00 41.52     0.019 A 
HETATM   24  C15   D T1000       8.588 -11.942  -0.542  1.00 43.29    -0.001 A 
HETATM   25  C16   D T1000       8.086 -12.533   0.622  1.00 41.94     0.004 A 
HETATM   26  C17   D T1000       7.892 -11.784   1.758  1.00 41.92     0.071 A 
HETATM   27  C18   D T1000       8.179 -10.410   1.695  1.00 42.85     0.023 A 
BRANCH  25  28
HETATM   28  C20   D T1000       7.790 -14.032   0.516  1.00 42.14     0.124 C 
BRANCH  28  29
HETATM   29  N3    D T1000       8.977 -14.715  -0.071  1.00 43.91    -0.362 N 
HETATM   30  C21   D T1000       9.958 -15.101   0.939  1.00 45.37     0.121 C 
HETATM   31  C22   D T1000      11.194 -15.615   0.238  1.00 47.91     0.121 C 
HETATM   32  N4    D T1000      10.884 -16.701  -0.674  1.00 47.69    -0.364 N 
HETATM   33  C23   D T1000       9.497 -16.924  -0.973  1.00 46.74     0.121 C 
HETATM   34  C25   D T1000      11.842 -17.796  -0.771  1.00 50.05     0.121 C 
HETATM   35  C24   D T1000       8.787 -15.605  -1.191  1.00 45.99     0.121 C 
ENDBRANCH  28  29
ENDBRANCH  25  28
BRANCH  26  36
HETATM   36  C19   D T1000       7.324 -12.390   3.018  1.00 48.32     0.419 C 
HETATM   37  F1    D T1000       6.058 -12.736   2.725  1.00 50.04    -0.166 F 
HETATM   38  F2    D T1000       7.233 -11.488   4.011  1.00 52.24    -0.166 F 
HETATM   39  F3    D T1000       8.053 -13.444   3.427  1.00 44.36    -0.166 F 
ENDBRANCH  26  36
ENDBRANCH   3  22
TORSDOF 7
ENDMDL
MODEL 2
REMARK VINA RESULT:    -8.176      2.024      2.718
REMARK INTER + INTRA:         -12.512
REMARK INTER:                 -11.461
REMARK INTRA:                  -1.051
REMARK UNBOUND:                -0.990
REMARK  7 active torsions:
REMARK  status: ('A' for Active; 'I' for Inactive)
REMARK    1  A    between atoms: N3_2  and  C20_12 
REMARK    2  A    between atoms: C4_3  and  C5_4 
REMARK    3  A    between atoms: C13_9  and  N2_29 
REMARK    4  A    between atoms: C17_11  and  C19_33 
REMARK    5  A    between atoms: C20_12  and  C16_31 
REMARK    6  A    between atoms: C2_23  and  C3_24 
REMARK    7  A    between atoms: C9_25  and  C12_27 
REMARK       I    between atoms: C12_27  and  N2_29 
ROOT
HETATM    1  C12   D T1000       8.464  -7.407   0.253  1.00 43.27     0.279 C 
HETATM    2  O1    D T1000       8.051  -7.912  -0.804  1.00 42.40    -0.265 OA
HETATM    3  N2    D T1000       8.717  -8.198   1.465  1.00 39.93    -0.208 NA
ENDROOT
BRANCH   1   4
HETATM    4  C9    D T1000       8.829  -5.930   0.215  1.00 40.54     0.059 A 
HETATM    5  C8    D T1000       9.499  -5.271   1.230  1.00 39.10     0.004 A 
HETATM    6  C7    D T1000       9.856  -3.914   1.070  1.00 41.02    -0.004 A 
HETATM    7  C6    D T1000       9.584  -3.207  -0.113  1.00 41.29    -0.014 A 
HETATM    8  C5    D T1000       8.916  -3.874  -1.104  1.00 41.18     0.038 A 
HETATM    9  C11   D T1000       9.978  -1.772  -0.295  1.00 38.87     0.032 C 
HETATM   10  C10   D T1000       8.579  -5.248  -0.972  1.00 39.13     0.013 A 
BRANCH   8  11
HETATM   11  C4    D T1000       8.592  -3.259  -2.441  1.00 40.03    -0.058 C 
HETATM   12  C3    D T1000       8.287  -2.768  -3.469  1.00 38.63    -0.039 C 
BRANCH  12  13
HETATM   13  C2    D T1000       7.958  -2.097  -4.749  1.00 38.26     0.145 A 
HETATM   14  N82   D T1000       8.185  -0.820  -5.184  1.00 40.77    -0.203 N 
HETATM   15  N81   D T1000       8.765   0.261  -4.570  1.00 38.88    -0.162 NA
HETATM   16  C84   D T1000       7.696  -0.759  -6.473  1.00 40.90     0.165 A 
HETATM   17  C83   D T1000       8.882   1.411  -5.247  1.00 41.85     0.121 A 
HETATM   18  C82   D T1000       8.414   1.526  -6.535  1.00 42.85     0.026 A 
HETATM   19  C81   D T1000       7.810   0.459  -7.177  1.00 42.17     0.041 A 
HETATM   20  N1    D T1000       7.169  -1.950  -6.809  1.00 37.62    -0.223 NA
HETATM   21  C1    D T1000       7.315  -2.780  -5.785  1.00 35.75     0.128 A 
ENDBRANCH  12  13
ENDBRANCH   8  11
ENDBRANCH   1   4
BRANCH   3  22
HETATM   22  C13   D T1000       8.521  -9.606   1.600  1.00 41.48     0.085 A 
HETATM   23  C14   D T1000       7.459 -10.187   2.246  1.00 41.52     0.019 A 
HETATM   24  C15   D T1000       7.417 -11.585   2.361  1.00 43.29    -0.001 A 
HETATM   25  C16   D T1000       8.442 -12.392   1.856  1.00 41.94     0.004 A 
HETATM   26  C17   D T1000       9.520 -11.831   1.214  1.00 41.92     0.071 A 
HETATM   27  C18   D T1000       9.571 -10.430   1.119  1.00 42.85     0.023 A 
BRANCH  25  28
HETATM   28  C20   D T1000       8.253 -13.896   2.073  1.00 42.14     0.124 C 
BRANCH  28  29
HETATM   29  N3    D T1000       7.168 -14.378   1.173  1.00 43.91    -0.362 N 
HETATM   30  C21   D T1000       7.677 -15.152   0.045  1.00 45.37     0.121 C 
HETATM   31  C22   D T1000       6.532 -15.438  -0.899  1.00 47.91     0.121 C 
HETATM   32  N4    D T1000       5.432 -16.104  -0.225  1.00 47.69    -0.364 N 
HETATM   33  C23   D T1000       5.471 -16.134   1.211  1.00 46.74     0.121 C 
HETATM   34  C25   D T1000       4.713 -17.136  -0.963  1.00 50.05     0.121 C 
HETATM   35  C24   D T1000       5.913 -14.792   1.753  1.00 45.99     0.121 C 
ENDBRANCH  28  29
ENDBRANCH  25  28
BRANCH  26  36
HETATM   36  C19   D T1000      10.654 -12.675   0.686  1.00 48.32     0.419 C 
HETATM   37  F1    D T1000      11.609 -11.812   0.297  1.00 50.04    -0.166 F 
HETATM   38  F2    D T1000      10.302 -13.350  -0.422  1.00 52.24    -0.166 F 
HETATM   39  F3    D T1000      11.102 -13.535   1.619  1.00 44.36    -0.166 F 
ENDBRANCH  26  36
ENDBRANCH   3  22
TORSDOF 7
ENDMDL
MODEL 3
REMARK VINA RESULT:    -8.010      1.701      2.436
REMARK INTER + INTRA:         -12.277
REMARK INTER:                 -11.299
REMARK INTRA:                  -0.978
REMARK UNBOUND:                -0.990
REMARK  7 active torsions:
REMARK  status: ('A' for Active; 'I' for Inactive)
REMARK    1  A    between atoms: N3_2  and  C20_12 
REMARK    2  A    between atoms: C4_3  and  C5_4 
REMARK    3  A    between atoms: C13_9  and  N2_29 
REMARK    4  A    between atoms: C17_11  and  C19_33 
REMARK    5  A    between atoms: C20_12  and  C16_31 
REMARK    6  A    between atoms: C2_23  and  C3_24 
REMARK    7  A    between atoms: C9_25  and  C12_27 
REMARK       I    between atoms: C12_27  and  N2_29 
ROOT
HETATM    1  C12   D T1000       9.579  -7.603   0.030  1.00 43.27     0.279 C 
HETATM    2  O1    D T1000      10.540  -8.124  -0.560  1.00 42.40    -0.265 OA
HETATM    3  N2    D T1000       8.577  -8.389   0.763  1.00 39.93    -0.208 NA
ENDROOT
BRANCH   1   4
HETATM    4  C9    D T1000       9.542  -6.082   0.078  1.00 40.54     0.059 A 
HETATM    5  C8    D T1000       9.939  -5.332   1.170  1.00 39.10     0.004 A 
HETATM    6  C7    D T1000       9.936  -3.922   1.091  1.00 41.02    -0.004 A 
HETATM    7  C6    D T1000       9.573  -3.243  -0.084  1.00 41.29    -0.014 A 
HETATM    8  C5    D T1000       9.178  -4.001  -1.152  1.00 41.18     0.038 A 
HETATM    9  C11   D T1000       9.586  -1.746  -0.178  1.00 38.87     0.032 C 
HETATM   10  C10   D T1000       9.208  -5.421  -1.100  1.00 39.13     0.013 A 
BRANCH   8  11
HETATM   11  C4    D T1000       8.801  -3.416  -2.488  1.00 40.03    -0.058 C 
HETATM   12  C3    D T1000       8.456  -2.982  -3.530  1.00 38.63    -0.039 C 
BRANCH  12  13
HETATM   13  C2    D T1000       8.030  -2.367  -4.809  1.00 38.26     0.145 A 
HETATM   14  N82   D T1000       8.142  -1.087  -5.276  1.00 40.77    -0.203 N 
HETATM   15  N81   D T1000       8.659   0.048  -4.706  1.00 38.88    -0.162 NA
HETATM   16  C84   D T1000       7.603  -1.092  -6.547  1.00 40.90     0.165 A 
HETATM   17  C83   D T1000       8.662   1.190  -5.408  1.00 41.85     0.121 A 
HETATM   18  C82   D T1000       8.140   1.239  -6.680  1.00 42.85     0.026 A 
HETATM   19  C81   D T1000       7.598   0.115  -7.278  1.00 42.17     0.041 A 
HETATM   20  N1    D T1000       7.158  -2.327  -6.840  1.00 37.62    -0.223 NA
HETATM   21  C1    D T1000       7.405  -3.120  -5.806  1.00 35.75     0.128 A 
ENDBRANCH  12  13
ENDBRANCH   8  11
ENDBRANCH   1   4
BRANCH   3  22
HETATM   22  C13   D T1000       8.556  -9.811   0.888  1.00 41.48     0.085 A 
HETATM   23  C14   D T1000       8.534 -10.686  -0.168  1.00 41.52     0.019 A 
HETATM   24  C15   D T1000       8.455 -12.063   0.093  1.00 43.29    -0.001 A 
HETATM   25  C16   D T1000       8.372 -12.556   1.399  1.00 41.94     0.004 A 
HETATM   26  C17   D T1000       8.383 -11.697   2.473  1.00 41.92     0.071 A 
HETATM   27  C18   D T1000       8.442 -10.318   2.208  1.00 42.85     0.023 A 
BRANCH  25  28
HETATM   28  C20   D T1000       8.279 -14.080   1.515  1.00 42.14     0.124 C 
BRANCH  28  29
HETATM   29  N3    D T1000       7.010 -14.533   0.880  1.00 43.91    -0.362 N 
HETATM   30  C21   D T1000       7.229 -15.540  -0.154  1.00 45.37     0.121 C 
HETATM   31  C22   D T1000       5.918 -15.800  -0.859  1.00 47.91     0.121 C 
HETATM   32  N4    D T1000       4.872 -16.183   0.073  1.00 47.69    -0.364 N 
HETATM   33  C23   D T1000       5.144 -15.994   1.471  1.00 46.74     0.121 C 
HETATM   34  C25   D T1000       3.922 -17.202  -0.361  1.00 50.05     0.121 C 
HETATM   35  C24   D T1000       5.828 -14.663   1.698  1.00 45.99     0.121 C 
ENDBRANCH  28  29
ENDBRANCH  25  28
BRANCH  26  36
HETATM   36  C19   D T1000       8.266 -12.200   3.890  1.00 48.32     0.419 C 
HETATM   37  F1    D T1000       8.351 -11.112   4.678  1.00 50.04    -0.166 F 
HETATM   38  F2    D T1000       9.307 -12.978   4.233  1.00 52.24    -0.166 F 
HETATM   39  F3    D T1000       7.115 -12.869   4.080  1.00 44.36    -0.166 F 
ENDBRANCH  26  36
ENDBRANCH   3  22
TORSDOF 7
ENDMDL
MODEL 4
REMARK VINA RESULT:    -7.957      2.247      3.159
REMARK INTER + INTRA:         -12.203
REMARK INTER:                 -11.398
REMARK INTRA:                  -0.806
REMARK UNBOUND:                -0.990
REMARK  7 active torsions:
REMARK  status: ('A' for Active; 'I' for Inactive)
REMARK    1  A    between atoms: N3_2  and  C20_12 
REMARK    2  A    between atoms: C4_3  and  C5_4 
REMARK    3  A    between atoms: C13_9  and  N2_29 
REMARK    4  A    between atoms: C17_11  and  C19_33 
REMARK    5  A    between atoms: C20_12  and  C16_31 
REMARK    6  A    between atoms: C2_23  and  C3_24 
REMARK    7  A    between atoms: C9_25  and  C12_27 
REMARK       I    between atoms: C12_27  and  N2_29 
ROOT
HETATM    1  C12   D T1000       9.697  -7.495   0.127  1.00 43.27     0.279 C 
HETATM    2  O1    D T1000      10.622  -8.031  -0.504  1.00 42.40    -0.265 OA
HETATM    3  N2    D T1000       8.739  -8.263   0.935  1.00 39.93    -0.208 NA
ENDROOT
BRANCH   1   4
HETATM    4  C9    D T1000       9.662  -5.973   0.142  1.00 40.54     0.059 A 
HETATM    5  C8    D T1000      10.078  -5.199   1.209  1.00 39.10     0.004 A 
HETATM    6  C7    D T1000      10.074  -3.791   1.099  1.00 41.02    -0.004 A 
HETATM    7  C6    D T1000       9.691  -3.138  -0.085  1.00 41.29    -0.014 A 
HETATM    8  C5    D T1000       9.277  -3.921  -1.128  1.00 41.18     0.038 A 
HETATM    9  C11   D T1000       9.703  -1.645  -0.213  1.00 38.87     0.032 C 
HETATM   10  C10   D T1000       9.307  -5.339  -1.045  1.00 39.13     0.013 A 
BRANCH   8  11
HETATM   11  C4    D T1000       8.877  -3.365  -2.470  1.00 40.03    -0.058 C 
HETATM   12  C3    D T1000       8.518  -2.963  -3.520  1.00 38.63    -0.039 C 
BRANCH  12  13
HETATM   13  C2    D T1000       8.061  -2.388  -4.807  1.00 38.26     0.145 A 
HETATM   14  N82   D T1000       8.114  -1.112  -5.295  1.00 40.77    -0.203 N 
HETATM   15  N81   D T1000       8.581   0.055  -4.744  1.00 38.88    -0.162 NA
HETATM   16  C84   D T1000       7.573  -1.161  -6.564  1.00 40.90     0.165 A 
HETATM   17  C83   D T1000       8.530   1.184  -5.464  1.00 41.85     0.121 A 
HETATM   18  C82   D T1000       8.004   1.190  -6.735  1.00 42.85     0.026 A 
HETATM   19  C81   D T1000       7.511   0.034  -7.313  1.00 42.17     0.041 A 
HETATM   20  N1    D T1000       7.184  -2.419  -6.836  1.00 37.62    -0.223 NA
HETATM   21  C1    D T1000       7.468  -3.184  -5.791  1.00 35.75     0.128 A 
ENDBRANCH  12  13
ENDBRANCH   8  11
ENDBRANCH   1   4
BRANCH   3  22
HETATM   22  C13   D T1000       8.727  -9.681   1.094  1.00 41.48     0.085 A 
HETATM   23  C14   D T1000       9.040 -10.338   2.257  1.00 41.52     0.019 A 
HETATM   24  C15   D T1000       9.047 -11.741   2.264  1.00 43.29    -0.001 A 
HETATM   25  C16   D T1000       8.769 -12.480   1.109  1.00 41.94     0.004 A 
HETATM   26  C17   D T1000       8.462 -11.843  -0.070  1.00 41.92     0.071 A 
HETATM   27  C18   D T1000       8.476 -10.438  -0.079  1.00 42.85     0.023 A 
BRANCH  25  28
HETATM   28  C20   D T1000       8.830 -14.001   1.278  1.00 42.14     0.124 C 
BRANCH  28  29
HETATM   29  N3    D T1000       7.970 -14.391   2.430  1.00 43.91    -0.362 N 
HETATM   30  C21   D T1000       6.549 -14.372   2.099  1.00 45.37     0.121 C 
HETATM   31  C22   D T1000       5.756 -14.602   3.366  1.00 47.91     0.121 C 
HETATM   32  N4    D T1000       6.153 -15.828   4.035  1.00 47.69    -0.364 N 
HETATM   33  C23   D T1000       7.360 -16.459   3.577  1.00 46.74     0.121 C 
HETATM   34  C25   D T1000       5.105 -16.619   4.670  1.00 50.05     0.121 C 
HETATM   35  C24   D T1000       8.433 -15.421   3.328  1.00 45.99     0.121 C 
ENDBRANCH  28  29
ENDBRANCH  25  28
BRANCH  26  36
HETATM   36  C19   D T1000       8.186 -12.614  -1.337  1.00 48.32     0.419 C 
HETATM   37  F1    D T1000       7.284 -13.557  -1.009  1.00 50.04    -0.166 F 
HETATM   38  F2    D T1000       9.272 -13.283  -1.763  1.00 52.24    -0.166 F 
HETATM   39  F3    D T1000       7.737 -11.807  -2.315  1.00 44.36    -0.166 F 
ENDBRANCH  26  36
ENDBRANCH   3  22
TORSDOF 7
ENDMDL
MODEL 5
REMARK VINA RESULT:    -7.590      2.478      3.648
REMARK INTER + INTRA:         -11.685
REMARK INTER:                 -10.612
REMARK INTRA:                  -1.074
REMARK UNBOUND:                -0.990
REMARK  7 active torsions:
REMARK  status: ('A' for Active; 'I' for Inactive)
REMARK    1  A    between atoms: N3_2  and  C20_12 
REMARK    2  A    between atoms: C4_3  and  C5_4 
REMARK    3  A    between atoms: C13_9  and  N2_29 
REMARK    4  A    between atoms: C17_11  and  C19_33 
REMARK    5  A    between atoms: C20_12  and  C16_31 
REMARK    6  A    between atoms: C2_23  and  C3_24 
REMARK    7  A    between atoms: C9_25  and  C12_27 
REMARK       I    between atoms: C12_27  and  N2_29 
ROOT
HETATM    1  C12   D T1000       8.823  -6.972   0.603  1.00 43.27     0.279 C 
HETATM    2  O1    D T1000       8.430  -7.305  -0.527  1.00 42.40    -0.265 OA
HETATM    3  N2    D T1000       8.907  -7.917   1.725  1.00 39.93    -0.208 NA
ENDROOT
BRANCH   1   4
HETATM    4  C9    D T1000       9.347  -5.551   0.760  1.00 40.54     0.059 A 
HETATM    5  C8    D T1000      10.153  -5.134   1.803  1.00 39.10     0.004 A 
HETATM    6  C7    D T1000      10.648  -3.811   1.821  1.00 41.02    -0.004 A 
HETATM    7  C6    D T1000      10.376  -2.900   0.787  1.00 41.29    -0.014 A 
HETATM    8  C5    D T1000       9.572  -3.329  -0.234  1.00 41.18     0.038 A 
HETATM    9  C11   D T1000      10.914  -1.501   0.793  1.00 38.87     0.032 C 
HETATM   10  C10   D T1000       9.095  -4.666  -0.285  1.00 39.13     0.013 A 
BRANCH   8  11
HETATM   11  C4    D T1000       9.229  -2.480  -1.430  1.00 40.03    -0.058 C 
HETATM   12  C3    D T1000       8.987  -1.772  -2.343  1.00 38.63    -0.039 C 
BRANCH  12  13
HETATM   13  C2    D T1000       8.724  -0.930  -3.534  1.00 38.26     0.145 A 
HETATM   14  N82   D T1000       8.209  -1.240  -4.762  1.00 40.77    -0.203 N 
HETATM   15  N81   D T1000       7.796  -2.432  -5.301  1.00 38.88    -0.162 NA
HETATM   16  C84   D T1000       8.156  -0.055  -5.468  1.00 40.90     0.165 A 
HETATM   17  C83   D T1000       7.303  -2.449  -6.547  1.00 41.85     0.121 A 
HETATM   18  C82   D T1000       7.225  -1.296  -7.294  1.00 42.85     0.026 A 
HETATM   19  C81   D T1000       7.648  -0.082  -6.785  1.00 42.17     0.041 A 
HETATM   20  N1    D T1000       8.640   0.942  -4.706  1.00 37.62    -0.223 NA
HETATM   21  C1    D T1000       8.990   0.441  -3.529  1.00 35.75     0.128 A 
ENDBRANCH  12  13
ENDBRANCH   8  11
ENDBRANCH   1   4
BRANCH   3  22
HETATM   22  C13   D T1000       8.553  -9.299   1.683  1.00 41.48     0.085 A 
HETATM   23  C14   D T1000       7.372  -9.815   2.152  1.00 41.52     0.019 A 
HETATM   24  C15   D T1000       7.171 -11.204   2.105  1.00 43.29    -0.001 A 
HETATM   25  C16   D T1000       8.156 -12.069   1.617  1.00 41.94     0.004 A 
HETATM   26  C17   D T1000       9.351 -11.574   1.150  1.00 41.92     0.071 A 
HETATM   27  C18   D T1000       9.557 -10.186   1.218  1.00 42.85     0.023 A 
BRANCH  25  28
HETATM   28  C20   D T1000       7.790 -13.555   1.644  1.00 42.14     0.124 C 
BRANCH  28  29
HETATM   29  N3    D T1000       7.218 -13.884   2.980  1.00 43.91    -0.362 N 
HETATM   30  C21   D T1000       6.044 -14.746   2.890  1.00 45.37     0.121 C 
HETATM   31  C22   D T1000       5.433 -14.874   4.267  1.00 47.91     0.121 C 
HETATM   32  N4    D T1000       6.397 -15.353   5.242  1.00 47.69    -0.364 N 
HETATM   33  C23   D T1000       7.777 -15.363   4.842  1.00 46.74     0.121 C 
HETATM   34  C25   D T1000       5.921 -16.278   6.264  1.00 50.05     0.121 C 
HETATM   35  C24   D T1000       8.115 -14.093   4.091  1.00 45.99     0.121 C 
ENDBRANCH  28  29
ENDBRANCH  25  28
BRANCH  26  36
HETATM   36  C19   D T1000      10.442 -12.486   0.645  1.00 48.32     0.419 C 
HETATM   37  F1    D T1000      11.441 -11.681   0.241  1.00 50.04    -0.166 F 
HETATM   38  F2    D T1000      10.059 -13.166  -0.449  1.00 52.24    -0.166 F 
HETATM   39  F3    D T1000      10.843 -13.347   1.598  1.00 44.36    -0.166 F 
ENDBRANCH  26  36
ENDBRANCH   3  22
TORSDOF 7
ENDMDL
MODEL 6
REMARK VINA RESULT:    -7.564      2.505      3.323
REMARK INTER + INTRA:         -11.650
REMARK INTER:                 -10.641
REMARK INTRA:                  -1.009
REMARK UNBOUND:                -0.990
REMARK  7 active torsions:
REMARK  status: ('A' for Active; 'I' for Inactive)
REMARK    1  A    between atoms: N3_2  and  C20_12 
REMARK    2  A    between atoms: C4_3  and  C5_4 
REMARK    3  A    between atoms: C13_9  and  N2_29 
REMARK    4  A    between atoms: C17_11  and  C19_33 
REMARK    5  A    between atoms: C20_12  and  C16_31 
REMARK    6  A    between atoms: C2_23  and  C3_24 
REMARK    7  A    between atoms: C9_25  and  C12_27 
REMARK       I    between atoms: C12_27  and  N2_29 
ROOT
HETATM    1  C12   D T1000       9.342  -7.064   1.705  1.00 43.27     0.279 C 
HETATM    2  O1    D T1000       9.485  -7.687   0.641  1.00 42.40    -0.265 OA
HETATM    3  N2    D T1000       8.836  -7.695   2.932  1.00 39.93    -0.208 NA
ENDROOT
BRANCH   1   4
HETATM    4  C9    D T1000       9.838  -5.625   1.735  1.00 40.54     0.059 A 
HETATM    5  C8    D T1000      10.698  -5.122   2.694  1.00 39.10     0.004 A 
HETATM    6  C7    D T1000      11.159  -3.790   2.594  1.00 41.02    -0.004 A 
HETATM    7  C6    D T1000      10.801  -2.957   1.521  1.00 41.29    -0.014 A 
HETATM    8  C5    D T1000       9.946  -3.471   0.585  1.00 41.18     0.038 A 
HETATM    9  C11   D T1000      11.303  -1.549   1.401  1.00 38.87     0.032 C 
HETATM   10  C10   D T1000       9.500  -4.818   0.653  1.00 39.13     0.013 A 
BRANCH   8  11
HETATM   11  C4    D T1000       9.507  -2.711  -0.640  1.00 40.03    -0.058 C 
HETATM   12  C3    D T1000       9.188  -2.070  -1.578  1.00 38.63    -0.039 C 
BRANCH  12  13
HETATM   13  C2    D T1000       8.829  -1.311  -2.799  1.00 38.26     0.145 A 
HETATM   14  N82   D T1000       8.368  -1.726  -4.018  1.00 40.77    -0.203 N 
HETATM   15  N81   D T1000       8.113  -2.979  -4.515  1.00 38.88    -0.162 NA
HETATM   16  C84   D T1000       8.171  -0.583  -4.766  1.00 40.90     0.165 A 
HETATM   17  C83   D T1000       7.637  -3.103  -5.762  1.00 41.85     0.121 A 
HETATM   18  C82   D T1000       7.419  -1.996  -6.549  1.00 42.85     0.026 A 
HETATM   19  C81   D T1000       7.681  -0.720  -6.082  1.00 42.17     0.041 A 
HETATM   20  N1    D T1000       8.519   0.493  -4.039  1.00 37.62    -0.223 NA
HETATM   21  C1    D T1000       8.920   0.083  -2.843  1.00 35.75     0.128 A 
ENDBRANCH  12  13
ENDBRANCH   8  11
ENDBRANCH   1   4
BRANCH   3  22
HETATM   22  C13   D T1000       8.440  -9.059   3.069  1.00 41.48     0.085 A 
HETATM   23  C14   D T1000       7.269  -9.583   2.585  1.00 41.52     0.019 A 
HETATM   24  C15   D T1000       6.971 -10.931   2.840  1.00 43.29    -0.001 A 
HETATM   25  C16   D T1000       7.827 -11.739   3.595  1.00 41.94     0.004 A 
HETATM   26  C17   D T1000       9.002 -11.232   4.098  1.00 41.92     0.071 A 
HETATM   27  C18   D T1000       9.288  -9.877   3.859  1.00 42.85     0.023 A 
BRANCH  25  28
HETATM   28  C20   D T1000       7.354 -13.182   3.794  1.00 42.14     0.124 C 
BRANCH  28  29
HETATM   29  N3    D T1000       6.845 -13.704   2.495  1.00 43.91    -0.362 N 
HETATM   30  C21   D T1000       7.897 -14.308   1.683  1.00 45.37     0.121 C 
HETATM   31  C22   D T1000       7.326 -14.640   0.324  1.00 47.91     0.121 C 
HETATM   32  N4    D T1000       6.151 -15.487   0.425  1.00 47.69    -0.364 N 
HETATM   33  C23   D T1000       5.571 -15.642   1.730  1.00 46.74     0.121 C 
HETATM   34  C25   D T1000       5.978 -16.525  -0.585  1.00 50.05     0.121 C 
HETATM   35  C24   D T1000       5.537 -14.312   2.452  1.00 45.99     0.121 C 
ENDBRANCH  28  29
ENDBRANCH  25  28
BRANCH  26  36
HETATM   36  C19   D T1000       9.930 -12.073   4.940  1.00 48.32     0.419 C 
HETATM   37  F1    D T1000       9.223 -12.431   6.027  1.00 50.04    -0.166 F 
HETATM   38  F2    D T1000      10.971 -11.359   5.403  1.00 52.24    -0.166 F 
HETATM   39  F3    D T1000      10.379 -13.142   4.258  1.00 44.36    -0.166 F 
ENDBRANCH  26  36
ENDBRANCH   3  22
TORSDOF 7
ENDMDL
MODEL 7
REMARK VINA RESULT:    -7.252      3.180      3.908
REMARK INTER + INTRA:         -11.209
REMARK INTER:                 -10.326
REMARK INTRA:                  -0.883
REMARK UNBOUND:                -0.990
REMARK  7 active torsions:
REMARK  status: ('A' for Active; 'I' for Inactive)
REMARK    1  A    between atoms: N3_2  and  C20_12 
REMARK    2  A    between atoms: C4_3  and  C5_4 
REMARK    3  A    between atoms: C13_9  and  N2_29 
REMARK    4  A    between atoms: C17_11  and  C19_33 
REMARK    5  A    between atoms: C20_12  and  C16_31 
REMARK    6  A    between atoms: C2_23  and  C3_24 
REMARK    7  A    between atoms: C9_25  and  C12_27 
REMARK       I    between atoms: C12_27  and  N2_29 
ROOT
HETATM    1  C12   D T1000      10.214  -4.818   2.162  1.00 43.27     0.279 C 
HETATM    2  O1    D T1000       9.215  -4.359   2.741  1.00 42.40    -0.265 OA
HETATM    3  N2    D T1000      10.582  -6.238   2.223  1.00 39.93    -0.208 NA
ENDROOT
BRANCH   1   4
HETATM    4  C9    D T1000      10.989  -3.864   1.264  1.00 40.54     0.059 A 
HETATM    5  C8    D T1000      12.295  -3.472   1.496  1.00 39.10     0.004 A 
HETATM    6  C7    D T1000      12.953  -2.640   0.564  1.00 41.02    -0.004 A 
HETATM    7  C6    D T1000      12.335  -2.218  -0.625  1.00 41.29    -0.014 A 
HETATM    8  C5    D T1000      11.041  -2.612  -0.834  1.00 41.18     0.038 A 
HETATM    9  C11   D T1000      13.036  -1.349  -1.626  1.00 38.87     0.032 C 
HETATM   10  C10   D T1000      10.376  -3.476   0.076  1.00 39.13     0.013 A 
BRANCH   8  11
HETATM   11  C4    D T1000      10.264  -2.272  -2.080  1.00 40.03    -0.058 C 
HETATM   12  C3    D T1000       9.609  -2.012  -3.026  1.00 38.63    -0.039 C 
BRANCH  12  13
HETATM   13  C2    D T1000       8.817  -1.616  -4.214  1.00 38.26     0.145 A 
HETATM   14  N82   D T1000       8.832  -0.477  -4.971  1.00 40.77    -0.203 N 
HETATM   15  N81   D T1000       9.562   0.679  -4.861  1.00 38.88    -0.162 NA
HETATM   16  C84   D T1000       7.906  -0.670  -5.976  1.00 40.90     0.165 A 
HETATM   17  C83   D T1000       9.390   1.649  -5.768  1.00 41.85     0.121 A 
HETATM   18  C82   D T1000       8.482   1.507  -6.792  1.00 42.85     0.026 A 
HETATM   19  C81   D T1000       7.720   0.361  -6.922  1.00 42.17     0.041 A 
HETATM   20  N1    D T1000       7.330  -1.876  -5.829  1.00 37.62    -0.223 NA
HETATM   21  C1    D T1000       7.863  -2.472  -4.771  1.00 35.75     0.128 A 
ENDBRANCH  12  13
ENDBRANCH   8  11
ENDBRANCH   1   4
BRANCH   3  22
HETATM   22  C13   D T1000       9.880  -7.255   2.938  1.00 41.48     0.085 A 
HETATM   23  C14   D T1000      10.153  -7.632   4.228  1.00 41.52     0.019 A 
HETATM   24  C15   D T1000       9.425  -8.689   4.795  1.00 43.29    -0.001 A 
HETATM   25  C16   D T1000       8.451  -9.380   4.068  1.00 41.94     0.004 A 
HETATM   26  C17   D T1000       8.167  -9.026   2.770  1.00 41.92     0.071 A 
HETATM   27  C18   D T1000       8.911  -7.980   2.197  1.00 42.85     0.023 A 
BRANCH  25  28
HETATM   28  C20   D T1000       7.755 -10.515   4.824  1.00 42.14     0.124 C 
BRANCH  28  29
HETATM   29  N3    D T1000       8.482 -11.787   4.554  1.00 43.91    -0.362 N 
HETATM   30  C21   D T1000       9.565 -12.026   5.503  1.00 45.37     0.121 C 
HETATM   31  C22   D T1000      10.351 -13.233   5.043  1.00 47.91     0.121 C 
HETATM   32  N4    D T1000       9.500 -14.397   4.871  1.00 47.69    -0.364 N 
HETATM   33  C23   D T1000       8.081 -14.174   4.886  1.00 46.74     0.121 C 
HETATM   34  C25   D T1000      10.045 -15.694   5.256  1.00 50.05     0.121 C 
HETATM   35  C24   D T1000       7.736 -12.933   4.091  1.00 45.99     0.121 C 
ENDBRANCH  28  29
ENDBRANCH  25  28
BRANCH  26  36
HETATM   36  C19   D T1000       7.141  -9.772   1.952  1.00 48.32     0.419 C 
HETATM   37  F1    D T1000       7.727 -10.926   1.587  1.00 50.04    -0.166 F 
HETATM   38  F2    D T1000       6.853  -9.132   0.806  1.00 52.24    -0.166 F 
HETATM   39  F3    D T1000       6.012  -9.981   2.653  1.00 44.36    -0.166 F 
ENDBRANCH  26  36
ENDBRANCH   3  22
TORSDOF 7
ENDMDL
MODEL 8
REMARK VINA RESULT:    -7.198      3.215      4.846
REMARK INTER + INTRA:         -11.134
REMARK INTER:                 -10.281
REMARK INTRA:                  -0.853
REMARK UNBOUND:                -0.990
REMARK  7 active torsions:
REMARK  status: ('A' for Active; 'I' for Inactive)
REMARK    1  A    between atoms: N3_2  and  C20_12 
REMARK    2  A    between atoms: C4_3  and  C5_4 
REMARK    3  A    between atoms: C13_9  and  N2_29 
REMARK    4  A    between atoms: C17_11  and  C19_33 
REMARK    5  A    between atoms: C20_12  and  C16_31 
REMARK    6  A    between atoms: C2_23  and  C3_24 
REMARK    7  A    between atoms: C9_25  and  C12_27 
REMARK       I    between atoms: C12_27  and  N2_29 
ROOT
HETATM    1  C12   D T1000       8.197  -8.731  -3.111  1.00 43.27     0.279 C 
HETATM    2  O1    D T1000       7.101  -9.259  -3.362  1.00 42.40    -0.265 OA
HETATM    3  N2    D T1000       8.837  -8.819  -1.792  1.00 39.93    -0.208 NA
ENDROOT
BRANCH   1   4
HETATM    4  C9    D T1000       8.932  -8.083  -4.276  1.00 40.54     0.059 A 
HETATM    5  C8    D T1000       9.251  -8.738  -5.451  1.00 39.10     0.004 A 
HETATM    6  C7    D T1000       9.872  -8.029  -6.503  1.00 41.02    -0.004 A 
HETATM    7  C6    D T1000      10.149  -6.655  -6.413  1.00 41.29    -0.014 A 
HETATM    8  C5    D T1000       9.831  -6.025  -5.241  1.00 41.18     0.038 A 
HETATM    9  C11   D T1000      10.791  -5.894  -7.535  1.00 38.87     0.032 C 
HETATM   10  C10   D T1000       9.176  -6.715  -4.186  1.00 39.13     0.013 A 
BRANCH   8  11
HETATM   11  C4    D T1000      10.032  -4.549  -5.014  1.00 40.03    -0.058 C 
HETATM   12  C3    D T1000      10.138  -3.391  -4.813  1.00 38.63    -0.039 C 
BRANCH  12  13
HETATM   13  C2    D T1000      10.332  -1.952  -4.515  1.00 38.26     0.145 A 
HETATM   14  N82   D T1000       9.659  -0.843  -4.944  1.00 40.77    -0.203 N 
HETATM   15  N81   D T1000       8.604  -0.696  -5.809  1.00 38.88    -0.162 NA
HETATM   16  C84   D T1000      10.251   0.235  -4.317  1.00 40.90     0.165 A 
HETATM   17  C83   D T1000       8.115   0.530  -6.042  1.00 41.85     0.121 A 
HETATM   18  C82   D T1000       8.667   1.637  -5.441  1.00 42.85     0.026 A 
HETATM   19  C81   D T1000       9.741   1.525  -4.575  1.00 42.17     0.041 A 
HETATM   20  N1    D T1000      11.265  -0.198  -3.547  1.00 37.62    -0.223 NA
HETATM   21  C1    D T1000      11.337  -1.518  -3.646  1.00 35.75     0.128 A 
ENDBRANCH  12  13
ENDBRANCH   8  11
ENDBRANCH   1   4
BRANCH   3  22
HETATM   22  C13   D T1000       8.307  -9.489  -0.648  1.00 41.48     0.085 A 
HETATM   23  C14   D T1000       7.696  -8.863   0.408  1.00 41.52     0.019 A 
HETATM   24  C15   D T1000       7.271  -9.633   1.501  1.00 43.29    -0.001 A 
HETATM   25  C16   D T1000       7.480 -11.016   1.547  1.00 41.94     0.004 A 
HETATM   26  C17   D T1000       8.099 -11.663   0.503  1.00 41.92     0.071 A 
HETATM   27  C18   D T1000       8.542 -10.886  -0.580  1.00 42.85     0.023 A 
BRANCH  25  28
HETATM   28  C20   D T1000       6.970 -11.711   2.813  1.00 42.14     0.124 C 
BRANCH  28  29
HETATM   29  N3    D T1000       8.105 -11.867   3.765  1.00 43.91    -0.362 N 
HETATM   30  C21   D T1000       8.268 -10.707   4.637  1.00 45.37     0.121 C 
HETATM   31  C22   D T1000       9.541 -10.879   5.433  1.00 47.91     0.121 C 
HETATM   32  N4    D T1000       9.552 -12.130   6.170  1.00 47.69    -0.364 N 
HETATM   33  C23   D T1000       8.542 -13.094   5.831  1.00 46.74     0.121 C 
HETATM   34  C25   D T1000      10.146 -12.124   7.501  1.00 50.05     0.121 C 
HETATM   35  C24   D T1000       8.369 -13.168   4.329  1.00 45.99     0.121 C 
ENDBRANCH  28  29
ENDBRANCH  25  28
BRANCH  26  36
HETATM   36  C19   D T1000       8.363 -13.148   0.539  1.00 48.32     0.419 C 
HETATM   37  F1    D T1000       9.473 -13.310   1.281  1.00 50.04    -0.166 F 
HETATM   38  F2    D T1000       8.667 -13.632  -0.678  1.00 52.24    -0.166 F 
HETATM   39  F3    D T1000       7.315 -13.821   1.048  1.00 44.36    -0.166 F 
ENDBRANCH  26  36
ENDBRANCH   3  22
TORSDOF 7
ENDMDL
MODEL 9
REMARK VINA RESULT:    -7.184      3.914     12.959
REMARK INTER + INTRA:         -11.114
REMARK INTER:                 -10.287
REMARK INTRA:                  -0.827
REMARK UNBOUND:                -0.990
REMARK  7 active torsions:
REMARK  status: ('A' for Active; 'I' for Inactive)
REMARK    1  A    between atoms: N3_2  and  C20_12 
REMARK    2  A    between atoms: C4_3  and  C5_4 
REMARK    3  A    between atoms: C13_9  and  N2_29 
REMARK    4  A    between atoms: C17_11  and  C19_33 
REMARK    5  A    between atoms: C20_12  and  C16_31 
REMARK    6  A    between atoms: C2_23  and  C3_24 
REMARK    7  A    between atoms: C9_25  and  C12_27 
REMARK       I    between atoms: C12_27  and  N2_29 
ROOT
HETATM    1  C12   D T1000       8.125  -7.679  -1.319  1.00 43.27     0.279 C 
HETATM    2  O1    D T1000       7.160  -6.997  -0.934  1.00 42.40    -0.265 OA
HETATM    3  N2    D T1000       9.349  -7.082  -1.869  1.00 39.93    -0.208 NA
ENDROOT
BRANCH   1   4
HETATM    4  C9    D T1000       8.047  -9.180  -1.079  1.00 40.54     0.059 A 
HETATM    5  C8    D T1000       7.739 -10.106  -2.060  1.00 39.10     0.004 A 
HETATM    6  C7    D T1000       7.763 -11.485  -1.755  1.00 41.02    -0.004 A 
HETATM    7  C6    D T1000       8.128 -11.960  -0.484  1.00 41.29    -0.014 A 
HETATM    8  C5    D T1000       8.424 -11.029   0.474  1.00 41.18     0.038 A 
HETATM    9  C11   D T1000       8.172 -13.424  -0.162  1.00 38.87     0.032 C 
HETATM   10  C10   D T1000       8.437  -9.641   0.175  1.00 39.13     0.013 A 
BRANCH   8  11
HETATM   11  C4    D T1000       8.870 -11.390   1.867  1.00 40.03    -0.058 C 
HETATM   12  C3    D T1000       9.170 -11.654   2.977  1.00 38.63    -0.039 C 
BRANCH  12  13
HETATM   13  C2    D T1000       9.552 -12.059   4.351  1.00 38.26     0.145 A 
HETATM   14  N82   D T1000       8.962 -12.919   5.235  1.00 40.77    -0.203 N 
HETATM   15  N81   D T1000       7.813 -13.664   5.152  1.00 38.88    -0.162 NA
HETATM   16  C84   D T1000       9.773 -12.938   6.353  1.00 40.90     0.165 A 
HETATM   17  C83   D T1000       7.472 -14.455   6.178  1.00 41.85     0.121 A 
HETATM   18  C82   D T1000       8.245 -14.514   7.314  1.00 42.85     0.026 A 
HETATM   19  C81   D T1000       9.401 -13.764   7.436  1.00 42.17     0.041 A 
HETATM   20  N1    D T1000      10.811 -12.105   6.167  1.00 37.62    -0.223 NA
HETATM   21  C1    D T1000      10.704 -11.559   4.963  1.00 35.75     0.128 A 
ENDBRANCH  12  13
ENDBRANCH   8  11
ENDBRANCH   1   4
BRANCH   3  22
HETATM   22  C13   D T1000       9.594  -5.686  -2.045  1.00 41.48     0.085 A 
HETATM   23  C14   D T1000       9.623  -5.047  -3.258  1.00 41.52     0.019 A 
HETATM   24  C15   D T1000       9.934  -3.679  -3.297  1.00 43.29    -0.001 A 
HETATM   25  C16   D T1000      10.239  -2.965  -2.134  1.00 41.94     0.004 A 
HETATM   26  C17   D T1000      10.226  -3.588  -0.908  1.00 41.92     0.071 A 
HETATM   27  C18   D T1000       9.934  -4.962  -0.874  1.00 42.85     0.023 A 
BRANCH  25  28
HETATM   28  C20   D T1000      10.570  -1.485  -2.345  1.00 42.14     0.124 C 
BRANCH  28  29
HETATM   29  N3    D T1000      10.008  -1.050  -3.655  1.00 43.91    -0.362 N 
HETATM   30  C21   D T1000       8.731  -0.357  -3.514  1.00 45.37     0.121 C 
HETATM   31  C22   D T1000       8.157  -0.120  -4.892  1.00 47.91     0.121 C 
HETATM   32  N4    D T1000       9.085   0.600  -5.745  1.00 47.69    -0.364 N 
HETATM   33  C23   D T1000      10.438   0.724  -5.278  1.00 46.74     0.121 C 
HETATM   34  C25   D T1000       8.530   1.590  -6.661  1.00 50.05     0.121 C 
HETATM   35  C24   D T1000      10.909  -0.585  -4.681  1.00 45.99     0.121 C 
ENDBRANCH  28  29
ENDBRANCH  25  28
BRANCH  26  36
HETATM   36  C19   D T1000      10.579  -2.849   0.359  1.00 48.32     0.419 C 
HETATM   37  F1    D T1000      11.912  -2.670   0.325  1.00 50.04    -0.166 F 
HETATM   38  F2    D T1000      10.340  -3.590   1.455  1.00 52.24    -0.166 F 
HETATM   39  F3    D T1000       9.918  -1.680   0.447  1.00 44.36    -0.166 F 
ENDBRANCH  26  36
ENDBRANCH   3  22
TORSDOF 7
ENDMDL
