MODEL 1
REMARK VINA RESULT:      -5.4      0.000      0.000
REMARK  15 active torsions:
REMARK  status: ('A' for Active; 'I' for Inactive)
REMARK    1  A    between atoms: C3_6  and  C7_7 
REMARK    2  A    between atoms: C7_7  and  O8_8 
REMARK    3  A    between atoms: O8_8  and  C9_9 
REMARK       I    between atoms: C9_9  and  N10_11 
REMARK    4  A    between atoms: N10_11  and  C11_12 
REMARK    5  A    between atoms: C11_12  and  C12_13 
REMARK    6  A    between atoms: C11_12  and  C30_15 
REMARK       I    between atoms: C12_13  and  N13_19 
REMARK    7  A    between atoms: C30_15  and  C31_16 
REMARK    8  A    between atoms: N13_19  and  C14_20 
REMARK    9  A    between atoms: C14_20  and  C15_21 
REMARK   10  A    between atoms: C14_20  and  C24_23 
REMARK       I    between atoms: C15_21  and  N16_27 
REMARK   11  A    between atoms: C24_23  and  C25_24 
REMARK   12  A    between atoms: N16_27  and  C17_28 
REMARK   13  A    between atoms: C17_28  and  C22_29 
REMARK   14  A    between atoms: C17_28  and  C18_30 
REMARK   15  A    between atoms: C18_30  and  C19_31 
ROOT
HETATM    1  C12   D T 301     -14.555  62.158 -75.334  1.00 13.21     0.274 C 
HETATM    2  O32   D T 301     -14.543  61.781 -76.492  1.00 14.55    -0.268 OA
HETATM    3  N13   D T 301     -15.578  62.946 -74.906  1.00 13.47    -0.229 NA
ENDROOT
BRANCH   1   4
HETATM    4  C11   D T 301     -13.397  61.778 -74.325  1.00 17.72     0.189 C 
BRANCH   4   5
HETATM    5  N10   D T 301     -12.222  62.714 -74.545  1.00 20.10    -0.205 NA
HETATM    6  C9    D T 301     -11.092  62.185 -75.129  1.00 25.60     0.384 C 
HETATM    7  O31   D T 301     -11.206  61.108 -75.713  1.00 26.77    -0.236 OA
BRANCH   6   8
HETATM    8  O8    D T 301      -9.805  62.777 -74.951  1.00 42.69    -0.279 OA
BRANCH   8   9
HETATM    9  C7    D T 301      -9.381  63.155 -73.580  1.00 33.16     0.180 C 
BRANCH   9  10
HETATM   10  C3    D T 301      -8.417  64.364 -73.401  1.00 42.57     0.008 A 
HETATM   11  C4    D T 301      -7.782  64.973 -74.533  1.00 50.57    -0.002 A 
HETATM   12  C5    D T 301      -6.897  66.062 -74.407  1.00 43.28    -0.000 A 
HETATM   13  C6    D T 301      -6.609  66.592 -73.140  1.00 42.12    -0.000 A 
HETATM   14  C1    D T 301      -7.220  66.011 -72.025  1.00 30.35    -0.000 A 
HETATM   15  C2    D T 301      -8.099  64.926 -72.154  1.00 36.19    -0.002 A 
ENDBRANCH   9  10
ENDBRANCH   8   9
ENDBRANCH   6   8
ENDBRANCH   4   5
BRANCH   4  16
HETATM   16  C30   D T 301     -13.888  61.747 -72.835  1.00 18.59     0.034 C 
BRANCH  16  17
HETATM   17  C31   D T 301     -12.919  62.365 -71.847  1.00 24.93     0.002 C 
HETATM   18  C32   D T 301     -13.682  63.009 -70.678  1.00 19.19     0.000 C 
HETATM   19  C33   D T 301     -11.852  61.376 -71.298  1.00  7.30     0.000 C 
ENDBRANCH  16  17
ENDBRANCH   4  16
ENDBRANCH   1   4
BRANCH   3  20
HETATM   20  C14   D T 301     -16.689  63.348 -75.737  1.00 15.34     0.186 C 
BRANCH  20  21
HETATM   21  C15   D T 301     -17.277  64.708 -75.376  1.00 12.96     0.274 C 
HETATM   22  O34   D T 301     -16.841  65.727 -75.878  1.00 12.56    -0.268 OA
HETATM   23  N16   D T 301     -18.225  64.829 -74.494  1.00 17.04    -0.230 NA
BRANCH  23  24
HETATM   24  C17   D T 301     -18.708  66.087 -74.095  1.00 17.43     0.171 C 
BRANCH  24  25
HETATM   25  C22   D T 301     -18.402  65.899 -72.657  1.00 20.81     0.231 C 
HETATM   26  O33   D T 301     -18.495  66.861 -71.903  1.00 28.36    -0.286 OA
ENDBRANCH  24  25
BRANCH  24  27
HETATM   27  C18   D T 301     -20.235  66.228 -74.261  1.00 14.38     0.033 C 
BRANCH  27  28
HETATM   28  C19   D T 301     -20.711  65.907 -75.666  1.00 18.04     0.002 C 
HETATM   29  C20   D T 301     -20.251  66.948 -76.698  1.00  7.79     0.000 C 
HETATM   30  C21   D T 301     -22.225  65.753 -75.747  1.00 20.55     0.000 C 
ENDBRANCH  27  28
ENDBRANCH  24  27
ENDBRANCH  23  24
ENDBRANCH  20  21
BRANCH  20  31
HETATM   31  C24   D T 301     -17.878  62.361 -75.665  1.00 11.83     0.034 C 
BRANCH  31  32
HETATM   32  C25   D T 301     -18.460  61.979 -76.986  1.00 17.57     0.002 C 
HETATM   33  C26   D T 301     -17.551  62.393 -78.151  1.00 13.82     0.000 C 
HETATM   34  C27   D T 301     -19.829  62.632 -77.149  1.00 17.96     0.000 C 
ENDBRANCH  31  32
ENDBRANCH  20  31
ENDBRANCH   3  20
TORSDOF 15
ENDMDL
MODEL 2
REMARK VINA RESULT:      -5.4     15.610     18.528
REMARK  15 active torsions:
REMARK  status: ('A' for Active; 'I' for Inactive)
REMARK    1  A    between atoms: C3_6  and  C7_7 
REMARK    2  A    between atoms: C7_7  and  O8_8 
REMARK    3  A    between atoms: O8_8  and  C9_9 
REMARK       I    between atoms: C9_9  and  N10_11 
REMARK    4  A    between atoms: N10_11  and  C11_12 
REMARK    5  A    between atoms: C11_12  and  C12_13 
REMARK    6  A    between atoms: C11_12  and  C30_15 
REMARK       I    between atoms: C12_13  and  N13_19 
REMARK    7  A    between atoms: C30_15  and  C31_16 
REMARK    8  A    between atoms: N13_19  and  C14_20 
REMARK    9  A    between atoms: C14_20  and  C15_21 
REMARK   10  A    between atoms: C14_20  and  C24_23 
REMARK       I    between atoms: C15_21  and  N16_27 
REMARK   11  A    between atoms: C24_23  and  C25_24 
REMARK   12  A    between atoms: N16_27  and  C17_28 
REMARK   13  A    between atoms: C17_28  and  C22_29 
REMARK   14  A    between atoms: C17_28  and  C18_30 
REMARK   15  A    between atoms: C18_30  and  C19_31 
ROOT
HETATM    1  C12   D T 301      -8.810  76.411 -83.838  1.00 13.21     0.274 C 
HETATM    2  O32   D T 301      -7.779  76.912 -83.427  1.00 14.55    -0.268 OA
HETATM    3  N13   D T 301      -9.478  77.015 -84.858  1.00 13.47    -0.229 NA
ENDROOT
BRANCH   1   4
HETATM    4  C11   D T 301      -9.407  75.093 -83.196  1.00 17.72     0.189 C 
BRANCH   4   5
HETATM    5  N10   D T 301     -10.901  75.046 -83.460  1.00 20.10    -0.205 NA
HETATM    6  C9    D T 301     -11.694  74.447 -82.507  1.00 25.60     0.384 C 
HETATM    7  O31   D T 301     -11.207  74.277 -81.389  1.00 26.77    -0.236 OA
BRANCH   6   8
HETATM    8  O8    D T 301     -12.977  73.908 -82.825  1.00 42.69    -0.279 OA
BRANCH   8   9
HETATM    9  C7    D T 301     -13.855  74.666 -83.749  1.00 33.16     0.180 C 
BRANCH   9  10
HETATM   10  C3    D T 301     -14.091  74.110 -85.184  1.00 42.57     0.008 A 
HETATM   11  C4    D T 301     -15.355  73.548 -85.558  1.00 50.57    -0.002 A 
HETATM   12  C5    D T 301     -15.600  73.028 -86.844  1.00 43.28    -0.000 A 
HETATM   13  C6    D T 301     -14.588  73.048 -87.816  1.00 42.12    -0.000 A 
HETATM   14  C1    D T 301     -13.348  73.594 -87.470  1.00 30.35    -0.000 A 
HETATM   15  C2    D T 301     -13.108  74.110 -86.188  1.00 36.19    -0.002 A 
ENDBRANCH   9  10
ENDBRANCH   8   9
ENDBRANCH   6   8
ENDBRANCH   4   5
BRANCH   4  16
HETATM   16  C30   D T 301      -8.656  73.802 -83.676  1.00 18.59     0.034 C 
BRANCH  16  17
HETATM   17  C31   D T 301      -7.446  73.437 -82.837  1.00 24.93     0.002 C 
HETATM   18  C32   D T 301      -7.793  73.489 -81.341  1.00 19.19     0.000 C 
HETATM   19  C33   D T 301      -6.825  72.054 -83.186  1.00  7.30     0.000 C 
ENDBRANCH  16  17
ENDBRANCH   4  16
ENDBRANCH   1   4
BRANCH   3  20
HETATM   20  C14   D T 301      -9.023  78.214 -85.522  1.00 15.34     0.186 C 
BRANCH  20  21
HETATM   21  C15   D T 301      -9.380  79.504 -84.791  1.00 12.96     0.274 C 
HETATM   22  O34   D T 301     -10.438  79.612 -84.200  1.00 12.56    -0.268 OA
HETATM   23  N16   D T 301      -8.594  80.540 -84.811  1.00 17.04    -0.230 NA
BRANCH  23  24
HETATM   24  C17   D T 301      -8.958  81.758 -84.212  1.00 17.43     0.171 C 
BRANCH  24  25
HETATM   25  C22   D T 301      -8.827  82.561 -85.451  1.00 20.81     0.231 C 
HETATM   26  O33   D T 301      -8.017  82.207 -86.300  1.00 28.36    -0.286 OA
ENDBRANCH  24  25
BRANCH  24  27
HETATM   27  C18   D T 301      -7.923  82.261 -83.185  1.00 14.38     0.033 C 
BRANCH  27  28
HETATM   28  C19   D T 301      -7.942  81.470 -81.890  1.00 18.04     0.002 C 
HETATM   29  C20   D T 301      -7.935  82.371 -80.646  1.00  7.79     0.000 C 
HETATM   30  C21   D T 301      -6.789  80.476 -81.798  1.00 20.55     0.000 C 
ENDBRANCH  27  28
ENDBRANCH  24  27
ENDBRANCH  23  24
ENDBRANCH  20  21
BRANCH  20  31
HETATM   31  C24   D T 301      -9.618  78.375 -86.941  1.00 11.83     0.034 C 
BRANCH  31  32
HETATM   32  C25   D T 301     -10.706  77.411 -87.280  1.00 17.57     0.002 C 
HETATM   33  C26   D T 301     -10.510  76.797 -88.673  1.00 13.82     0.000 C 
HETATM   34  C27   D T 301     -12.054  78.121 -87.220  1.00 17.96     0.000 C 
ENDBRANCH  31  32
ENDBRANCH  20  31
ENDBRANCH   3  20
TORSDOF 15
ENDMDL
MODEL 3
REMARK VINA RESULT:      -5.2     13.168     14.960
REMARK  15 active torsions:
REMARK  status: ('A' for Active; 'I' for Inactive)
REMARK    1  A    between atoms: C3_6  and  C7_7 
REMARK    2  A    between atoms: C7_7  and  O8_8 
REMARK    3  A    between atoms: O8_8  and  C9_9 
REMARK       I    between atoms: C9_9  and  N10_11 
REMARK    4  A    between atoms: N10_11  and  C11_12 
REMARK    5  A    between atoms: C11_12  and  C12_13 
REMARK    6  A    between atoms: C11_12  and  C30_15 
REMARK       I    between atoms: C12_13  and  N13_19 
REMARK    7  A    between atoms: C30_15  and  C31_16 
REMARK    8  A    between atoms: N13_19  and  C14_20 
REMARK    9  A    between atoms: C14_20  and  C15_21 
REMARK   10  A    between atoms: C14_20  and  C24_23 
REMARK       I    between atoms: C15_21  and  N16_27 
REMARK   11  A    between atoms: C24_23  and  C25_24 
REMARK   12  A    between atoms: N16_27  and  C17_28 
REMARK   13  A    between atoms: C17_28  and  C22_29 
REMARK   14  A    between atoms: C17_28  and  C18_30 
REMARK   15  A    between atoms: C18_30  and  C19_31 
ROOT
HETATM    1  C12   D T 301     -11.338  72.113 -87.327  1.00 13.21     0.274 C 
HETATM    2  O32   D T 301     -11.237  72.799 -88.329  1.00 14.55    -0.268 OA
HETATM    3  N13   D T 301     -12.219  72.484 -86.359  1.00 13.47    -0.229 NA
ENDROOT
BRANCH   1   4
HETATM    4  C11   D T 301     -10.452  70.820 -87.112  1.00 17.72     0.189 C 
BRANCH   4   5
HETATM    5  N10   D T 301      -9.306  71.156 -86.175  1.00 20.10    -0.205 NA
HETATM    6  C9    D T 301      -8.036  71.170 -86.706  1.00 25.60     0.384 C 
HETATM    7  O31   D T 301      -7.934  71.227 -87.932  1.00 26.77    -0.236 OA
BRANCH   6   8
HETATM    8  O8    D T 301      -6.877  70.983 -85.894  1.00 42.69    -0.279 OA
BRANCH   8   9
HETATM    9  C7    D T 301      -6.805  71.682 -84.588  1.00 33.16     0.180 C 
BRANCH   9  10
HETATM   10  C3    D T 301      -6.433  70.862 -83.319  1.00 42.57     0.008 A 
HETATM   11  C4    D T 301      -6.171  71.515 -82.070  1.00 50.57    -0.002 A 
HETATM   12  C5    D T 301      -5.822  70.805 -80.904  1.00 43.28    -0.000 A 
HETATM   13  C6    D T 301      -5.723  69.405 -80.936  1.00 42.12    -0.000 A 
HETATM   14  C1    D T 301      -5.977  68.751 -82.145  1.00 30.35    -0.000 A 
HETATM   15  C2    D T 301      -6.322  69.461 -83.304  1.00 36.19    -0.002 A 
ENDBRANCH   9  10
ENDBRANCH   8   9
ENDBRANCH   6   8
ENDBRANCH   4   5
BRANCH   4  16
HETATM   16  C30   D T 301     -11.298  69.588 -86.635  1.00 18.59     0.034 C 
BRANCH  16  17
HETATM   17  C31   D T 301     -10.639  68.246 -86.886  1.00 24.93     0.002 C 
HETATM   18  C32   D T 301      -9.880  68.260 -88.221  1.00 19.19     0.000 C 
HETATM   19  C33   D T 301      -9.690  67.780 -85.745  1.00  7.30     0.000 C 
ENDBRANCH  16  17
ENDBRANCH   4  16
ENDBRANCH   1   4
BRANCH   3  20
HETATM   20  C14   D T 301     -13.081  73.639 -86.452  1.00 15.34     0.186 C 
BRANCH  20  21
HETATM   21  C15   D T 301     -12.951  74.610 -85.284  1.00 12.96     0.274 C 
HETATM   22  O34   D T 301     -13.904  74.854 -84.569  1.00 12.56    -0.268 OA
HETATM   23  N16   D T 301     -11.838  75.238 -85.039  1.00 17.04    -0.230 NA
BRANCH  23  24
HETATM   24  C17   D T 301     -11.739  76.198 -84.018  1.00 17.43     0.171 C 
BRANCH  24  25
HETATM   25  C22   D T 301     -11.362  77.314 -84.918  1.00 20.81     0.231 C 
HETATM   26  O33   D T 301     -10.780  78.283 -84.444  1.00 28.36    -0.286 OA
ENDBRANCH  24  25
BRANCH  24  27
HETATM   27  C18   D T 301     -10.571  75.929 -83.047  1.00 14.38     0.033 C 
BRANCH  27  28
HETATM   28  C19   D T 301     -10.556  74.507 -82.518  1.00 18.04     0.002 C 
HETATM   29  C20   D T 301     -11.436  74.330 -81.271  1.00  7.79     0.000 C 
HETATM   30  C21   D T 301      -9.146  74.015 -82.212  1.00 20.55     0.000 C 
ENDBRANCH  27  28
ENDBRANCH  24  27
ENDBRANCH  23  24
ENDBRANCH  20  21
BRANCH  20  31
HETATM   31  C24   D T 301     -14.581  73.263 -86.501  1.00 11.83     0.034 C 
BRANCH  31  32
HETATM   32  C25   D T 301     -15.169  73.199 -87.872  1.00 17.57     0.002 C 
HETATM   33  C26   D T 301     -15.036  71.798 -88.485  1.00 13.82     0.000 C 
HETATM   34  C27   D T 301     -14.479  74.218 -88.772  1.00 17.96     0.000 C 
ENDBRANCH  31  32
ENDBRANCH  20  31
ENDBRANCH   3  20
TORSDOF 15
ENDMDL
MODEL 4
REMARK VINA RESULT:      -5.1     13.060     14.947
REMARK  15 active torsions:
REMARK  status: ('A' for Active; 'I' for Inactive)
REMARK    1  A    between atoms: C3_6  and  C7_7 
REMARK    2  A    between atoms: C7_7  and  O8_8 
REMARK    3  A    between atoms: O8_8  and  C9_9 
REMARK       I    between atoms: C9_9  and  N10_11 
REMARK    4  A    between atoms: N10_11  and  C11_12 
REMARK    5  A    between atoms: C11_12  and  C12_13 
REMARK    6  A    between atoms: C11_12  and  C30_15 
REMARK       I    between atoms: C12_13  and  N13_19 
REMARK    7  A    between atoms: C30_15  and  C31_16 
REMARK    8  A    between atoms: N13_19  and  C14_20 
REMARK    9  A    between atoms: C14_20  and  C15_21 
REMARK   10  A    between atoms: C14_20  and  C24_23 
REMARK       I    between atoms: C15_21  and  N16_27 
REMARK   11  A    between atoms: C24_23  and  C25_24 
REMARK   12  A    between atoms: N16_27  and  C17_28 
REMARK   13  A    between atoms: C17_28  and  C22_29 
REMARK   14  A    between atoms: C17_28  and  C18_30 
REMARK   15  A    between atoms: C18_30  and  C19_31 
ROOT
HETATM    1  C12   D T 301      -7.645  70.397 -86.262  1.00 13.21     0.274 C 
HETATM    2  O32   D T 301      -7.347  70.215 -87.429  1.00 14.55    -0.268 OA
HETATM    3  N13   D T 301      -8.951  70.307 -85.891  1.00 13.47    -0.229 NA
ENDROOT
BRANCH   1   4
HETATM    4  C11   D T 301      -6.556  70.764 -85.174  1.00 17.72     0.189 C 
BRANCH   4   5
HETATM    5  N10   D T 301      -7.192  71.644 -84.113  1.00 20.10    -0.205 NA
HETATM    6  C9    D T 301      -6.848  72.977 -84.106  1.00 25.60     0.384 C 
HETATM    7  O31   D T 301      -6.317  73.431 -85.119  1.00 26.77    -0.236 OA
BRANCH   6   8
HETATM    8  O8    D T 301      -6.964  73.779 -82.931  1.00 42.69    -0.279 OA
BRANCH   8   9
HETATM    9  C7    D T 301      -7.669  75.081 -83.029  1.00 33.16     0.180 C 
BRANCH   9  10
HETATM   10  C3    D T 301      -9.193  75.133 -82.718  1.00 42.57     0.008 A 
HETATM   11  C4    D T 301     -10.020  76.171 -83.260  1.00 50.57    -0.002 A 
HETATM   12  C5    D T 301     -11.401  76.253 -82.993  1.00 43.28    -0.000 A 
HETATM   13  C6    D T 301     -12.017  75.298 -82.170  1.00 42.12    -0.000 A 
HETATM   14  C1    D T 301     -11.226  74.277 -81.633  1.00 30.35    -0.000 A 
HETATM   15  C2    D T 301      -9.852  74.200 -81.900  1.00 36.19    -0.002 A 
ENDBRANCH   9  10
ENDBRANCH   8   9
ENDBRANCH   6   8
ENDBRANCH   4   5
BRANCH   4  16
HETATM   16  C30   D T 301      -5.852  69.493 -84.580  1.00 18.59     0.034 C 
BRANCH  16  17
HETATM   17  C31   D T 301      -6.621  68.822 -83.459  1.00 24.93     0.002 C 
HETATM   18  C32   D T 301      -7.060  67.410 -83.877  1.00 19.19     0.000 C 
HETATM   19  C33   D T 301      -5.850  68.756 -82.110  1.00  7.30     0.000 C 
ENDBRANCH  16  17
ENDBRANCH   4  16
ENDBRANCH   1   4
BRANCH   3  20
HETATM   20  C14   D T 301     -10.025  69.972 -86.796  1.00 15.34     0.186 C 
BRANCH  20  21
HETATM   21  C15   D T 301     -10.875  71.165 -87.222  1.00 12.96     0.274 C 
HETATM   22  O34   D T 301     -11.792  71.026 -88.010  1.00 12.56    -0.268 OA
HETATM   23  N16   D T 301     -10.623  72.368 -86.798  1.00 17.04    -0.230 NA
BRANCH  23  24
HETATM   24  C17   D T 301     -11.348  73.482 -87.256  1.00 17.43     0.171 C 
BRANCH  24  25
HETATM   25  C22   D T 301     -10.153  74.289 -87.598  1.00 20.81     0.231 C 
HETATM   26  O33   D T 301      -9.048  73.762 -87.536  1.00 28.36    -0.286 OA
ENDBRANCH  24  25
BRANCH  24  27
HETATM   27  C18   D T 301     -12.126  74.200 -86.134  1.00 14.38     0.033 C 
BRANCH  27  28
HETATM   28  C19   D T 301     -13.481  73.574 -85.859  1.00 18.04     0.002 C 
HETATM   29  C20   D T 301     -14.302  73.352 -87.138  1.00  7.79     0.000 C 
HETATM   30  C21   D T 301     -14.306  74.386 -84.867  1.00 20.55     0.000 C 
ENDBRANCH  27  28
ENDBRANCH  24  27
ENDBRANCH  23  24
ENDBRANCH  20  21
BRANCH  20  31
HETATM   31  C24   D T 301     -11.025  68.959 -86.190  1.00 11.83     0.034 C 
BRANCH  31  32
HETATM   32  C25   D T 301     -10.412  67.917 -85.315  1.00 17.57     0.002 C 
HETATM   33  C26   D T 301      -9.898  66.720 -86.127  1.00 13.82     0.000 C 
HETATM   34  C27   D T 301     -11.439  67.439 -84.294  1.00 17.96     0.000 C 
ENDBRANCH  31  32
ENDBRANCH  20  31
ENDBRANCH   3  20
TORSDOF 15
ENDMDL
MODEL 5
REMARK VINA RESULT:      -5.1     15.940     18.688
REMARK  15 active torsions:
REMARK  status: ('A' for Active; 'I' for Inactive)
REMARK    1  A    between atoms: C3_6  and  C7_7 
REMARK    2  A    between atoms: C7_7  and  O8_8 
REMARK    3  A    between atoms: O8_8  and  C9_9 
REMARK       I    between atoms: C9_9  and  N10_11 
REMARK    4  A    between atoms: N10_11  and  C11_12 
REMARK    5  A    between atoms: C11_12  and  C12_13 
REMARK    6  A    between atoms: C11_12  and  C30_15 
REMARK       I    between atoms: C12_13  and  N13_19 
REMARK    7  A    between atoms: C30_15  and  C31_16 
REMARK    8  A    between atoms: N13_19  and  C14_20 
REMARK    9  A    between atoms: C14_20  and  C15_21 
REMARK   10  A    between atoms: C14_20  and  C24_23 
REMARK       I    between atoms: C15_21  and  N16_27 
REMARK   11  A    between atoms: C24_23  and  C25_24 
REMARK   12  A    between atoms: N16_27  and  C17_28 
REMARK   13  A    between atoms: C17_28  and  C22_29 
REMARK   14  A    between atoms: C17_28  and  C18_30 
REMARK   15  A    between atoms: C18_30  and  C19_31 
ROOT
HETATM    1  C12   D T 301      -9.750  77.831 -83.585  1.00 13.21     0.274 C 
HETATM    2  O32   D T 301     -10.560  78.687 -83.892  1.00 14.55    -0.268 OA
HETATM    3  N13   D T 301      -8.440  78.176 -83.457  1.00 13.47    -0.229 NA
ENDROOT
BRANCH   1   4
HETATM    4  C11   D T 301     -10.179  76.325 -83.358  1.00 17.72     0.189 C 
BRANCH   4   5
HETATM    5  N10   D T 301      -9.016  75.565 -82.748  1.00 20.10    -0.205 NA
HETATM    6  C9    D T 301      -8.923  74.219 -83.024  1.00 25.60     0.384 C 
HETATM    7  O31   D T 301      -9.577  73.789 -83.974  1.00 26.77    -0.236 OA
BRANCH   6   8
HETATM    8  O8    D T 301      -8.218  73.320 -82.168  1.00 42.69    -0.279 OA
BRANCH   8   9
HETATM    9  C7    D T 301      -6.835  72.928 -82.538  1.00 33.16     0.180 C 
BRANCH   9  10
HETATM   10  C3    D T 301      -6.371  71.469 -82.256  1.00 42.57     0.008 A 
HETATM   11  C4    D T 301      -6.032  71.048 -80.928  1.00 50.57    -0.002 A 
HETATM   12  C5    D T 301      -5.599  69.738 -80.639  1.00 43.28    -0.000 A 
HETATM   13  C6    D T 301      -5.488  68.790 -81.668  1.00 42.12    -0.000 A 
HETATM   14  C1    D T 301      -5.815  69.183 -82.969  1.00 30.35    -0.000 A 
HETATM   15  C2    D T 301      -6.244  70.488 -83.253  1.00 36.19    -0.002 A 
ENDBRANCH   9  10
ENDBRANCH   8   9
ENDBRANCH   6   8
ENDBRANCH   4   5
BRANCH   4  16
HETATM   16  C30   D T 301     -11.502  76.199 -82.524  1.00 18.59     0.034 C 
BRANCH  16  17
HETATM   17  C31   D T 301     -12.654  75.562 -83.275  1.00 24.93     0.002 C 
HETATM   18  C32   D T 301     -12.443  75.688 -84.792  1.00 19.19     0.000 C 
HETATM   19  C33   D T 301     -12.912  74.075 -82.900  1.00  7.30     0.000 C 
ENDBRANCH  16  17
ENDBRANCH   4  16
ENDBRANCH   1   4
BRANCH   3  20
HETATM   20  C14   D T 301      -7.938  79.518 -83.634  1.00 15.34     0.186 C 
BRANCH  20  21
HETATM   21  C15   D T 301      -7.705  79.909 -85.090  1.00 12.96     0.274 C 
HETATM   22  O34   D T 301      -6.701  79.553 -85.677  1.00 12.56    -0.268 OA
HETATM   23  N16   D T 301      -8.542  80.667 -85.734  1.00 17.04    -0.230 NA
BRANCH  23  24
HETATM   24  C17   D T 301      -8.289  81.102 -87.047  1.00 17.43     0.171 C 
BRANCH  24  25
HETATM   25  C22   D T 301      -8.485  82.541 -86.752  1.00 20.81     0.231 C 
HETATM   26  O33   D T 301      -9.406  83.135 -87.301  1.00 28.36    -0.286 OA
ENDBRANCH  24  25
BRANCH  24  27
HETATM   27  C18   D T 301      -9.368  80.651 -88.052  1.00 14.38     0.033 C 
BRANCH  27  28
HETATM   28  C19   D T 301      -8.787  80.148 -89.360  1.00 18.04     0.002 C 
HETATM   29  C20   D T 301      -7.337  79.660 -89.214  1.00  7.79     0.000 C 
HETATM   30  C21   D T 301      -8.857  81.192 -90.468  1.00 20.55     0.000 C 
ENDBRANCH  27  28
ENDBRANCH  24  27
ENDBRANCH  23  24
ENDBRANCH  20  21
BRANCH  20  31
HETATM   31  C24   D T 301      -6.579  79.746 -82.931  1.00 11.83     0.034 C 
BRANCH  31  32
HETATM   32  C25   D T 301      -6.595  80.772 -81.847  1.00 17.57     0.002 C 
HETATM   33  C26   D T 301      -7.874  81.620 -81.883  1.00 13.82     0.000 C 
HETATM   34  C27   D T 301      -5.377  81.680 -81.985  1.00 17.96     0.000 C 
ENDBRANCH  31  32
ENDBRANCH  20  31
ENDBRANCH   3  20
TORSDOF 15
ENDMDL
MODEL 6
REMARK VINA RESULT:      -5.1     15.509     18.648
REMARK  15 active torsions:
REMARK  status: ('A' for Active; 'I' for Inactive)
REMARK    1  A    between atoms: C3_6  and  C7_7 
REMARK    2  A    between atoms: C7_7  and  O8_8 
REMARK    3  A    between atoms: O8_8  and  C9_9 
REMARK       I    between atoms: C9_9  and  N10_11 
REMARK    4  A    between atoms: N10_11  and  C11_12 
REMARK    5  A    between atoms: C11_12  and  C12_13 
REMARK    6  A    between atoms: C11_12  and  C30_15 
REMARK       I    between atoms: C12_13  and  N13_19 
REMARK    7  A    between atoms: C30_15  and  C31_16 
REMARK    8  A    between atoms: N13_19  and  C14_20 
REMARK    9  A    between atoms: C14_20  and  C15_21 
REMARK   10  A    between atoms: C14_20  and  C24_23 
REMARK       I    between atoms: C15_21  and  N16_27 
REMARK   11  A    between atoms: C24_23  and  C25_24 
REMARK   12  A    between atoms: N16_27  and  C17_28 
REMARK   13  A    between atoms: C17_28  and  C22_29 
REMARK   14  A    between atoms: C17_28  and  C18_30 
REMARK   15  A    between atoms: C18_30  and  C19_31 
ROOT
HETATM    1  C12   D T 301      -8.688  76.189 -84.305  1.00 13.21     0.274 C 
HETATM    2  O32   D T 301      -7.558  76.062 -84.740  1.00 14.55    -0.268 OA
HETATM    3  N13   D T 301      -9.384  77.322 -84.593  1.00 13.47    -0.229 NA
ENDROOT
BRANCH   1   4
HETATM    4  C11   D T 301      -9.355  75.083 -83.390  1.00 17.72     0.189 C 
BRANCH   4   5
HETATM    5  N10   D T 301     -10.859  75.112 -83.595  1.00 20.10    -0.205 NA
HETATM    6  C9    D T 301     -11.645  74.600 -82.588  1.00 25.60     0.384 C 
HETATM    7  O31   D T 301     -11.125  74.450 -81.482  1.00 26.77    -0.236 OA
BRANCH   6   8
HETATM    8  O8    D T 301     -12.969  74.123 -82.833  1.00 42.69    -0.279 OA
BRANCH   8   9
HETATM    9  C7    D T 301     -13.821  74.861 -83.797  1.00 33.16     0.180 C 
BRANCH   9  10
HETATM   10  C3    D T 301     -14.135  74.205 -85.173  1.00 42.57     0.008 A 
HETATM   11  C4    D T 301     -15.408  73.595 -85.424  1.00 50.57    -0.002 A 
HETATM   12  C5    D T 301     -15.723  72.984 -86.654  1.00 43.28    -0.000 A 
HETATM   13  C6    D T 301     -14.776  72.958 -87.690  1.00 42.12    -0.000 A 
HETATM   14  C1    D T 301     -13.530  73.549 -87.463  1.00 30.35    -0.000 A 
HETATM   15  C2    D T 301     -13.219  74.154 -86.237  1.00 36.19    -0.002 A 
ENDBRANCH   9  10
ENDBRANCH   8   9
ENDBRANCH   6   8
ENDBRANCH   4   5
BRANCH   4  16
HETATM   16  C30   D T 301      -8.729  73.663 -83.618  1.00 18.59     0.034 C 
BRANCH  16  17
HETATM   17  C31   D T 301      -7.911  73.148 -82.450  1.00 24.93     0.002 C 
HETATM   18  C32   D T 301      -6.608  72.505 -82.948  1.00 19.19     0.000 C 
HETATM   19  C33   D T 301      -7.590  74.225 -81.375  1.00  7.30     0.000 C 
ENDBRANCH  16  17
ENDBRANCH   4  16
ENDBRANCH   1   4
BRANCH   3  20
HETATM   20  C14   D T 301      -8.878  78.392 -85.421  1.00 15.34     0.186 C 
BRANCH  20  21
HETATM   21  C15   D T 301      -8.258  79.545 -84.639  1.00 12.96     0.274 C 
HETATM   22  O34   D T 301      -8.557  80.697 -84.888  1.00 12.56    -0.268 OA
HETATM   23  N16   D T 301      -7.362  79.341 -83.718  1.00 17.04    -0.230 NA
BRANCH  23  24
HETATM   24  C17   D T 301      -6.725  80.405 -83.056  1.00 17.43     0.171 C 
BRANCH  24  25
HETATM   25  C22   D T 301      -5.427  79.707 -82.899  1.00 20.81     0.231 C 
HETATM   26  O33   D T 301      -5.385  78.494 -83.072  1.00 28.36    -0.286 OA
ENDBRANCH  24  25
BRANCH  24  27
HETATM   27  C18   D T 301      -7.310  80.683 -81.657  1.00 14.38     0.033 C 
BRANCH  27  28
HETATM   28  C19   D T 301      -8.050  82.005 -81.576  1.00 18.04     0.002 C 
HETATM   29  C20   D T 301      -7.437  83.083 -82.484  1.00  7.79     0.000 C 
HETATM   30  C21   D T 301      -8.135  82.538 -80.150  1.00 20.55     0.000 C 
ENDBRANCH  27  28
ENDBRANCH  24  27
ENDBRANCH  23  24
ENDBRANCH  20  21
BRANCH  20  31
HETATM   31  C24   D T 301      -9.975  79.041 -86.297  1.00 11.83     0.034 C 
BRANCH  31  32
HETATM   32  C25   D T 301      -9.849  78.776 -87.761  1.00 17.57     0.002 C 
HETATM   33  C26   D T 301      -9.293  79.992 -88.515  1.00 13.82     0.000 C 
HETATM   34  C27   D T 301     -11.213  78.401 -88.331  1.00 17.96     0.000 C 
ENDBRANCH  31  32
ENDBRANCH  20  31
ENDBRANCH   3  20
TORSDOF 15
ENDMDL
MODEL 7
REMARK VINA RESULT:      -5.0     14.428     16.648
REMARK  15 active torsions:
REMARK  status: ('A' for Active; 'I' for Inactive)
REMARK    1  A    between atoms: C3_6  and  C7_7 
REMARK    2  A    between atoms: C7_7  and  O8_8 
REMARK    3  A    between atoms: O8_8  and  C9_9 
REMARK       I    between atoms: C9_9  and  N10_11 
REMARK    4  A    between atoms: N10_11  and  C11_12 
REMARK    5  A    between atoms: C11_12  and  C12_13 
REMARK    6  A    between atoms: C11_12  and  C30_15 
REMARK       I    between atoms: C12_13  and  N13_19 
REMARK    7  A    between atoms: C30_15  and  C31_16 
REMARK    8  A    between atoms: N13_19  and  C14_20 
REMARK    9  A    between atoms: C14_20  and  C15_21 
REMARK   10  A    between atoms: C14_20  and  C24_23 
REMARK       I    between atoms: C15_21  and  N16_27 
REMARK   11  A    between atoms: C24_23  and  C25_24 
REMARK   12  A    between atoms: N16_27  and  C17_28 
REMARK   13  A    between atoms: C17_28  and  C22_29 
REMARK   14  A    between atoms: C17_28  and  C18_30 
REMARK   15  A    between atoms: C18_30  and  C19_31 
ROOT
HETATM    1  C12   D T 301     -10.292  77.003 -84.017  1.00 13.21     0.274 C 
HETATM    2  O32   D T 301     -11.256  77.153 -83.288  1.00 14.55    -0.268 OA
HETATM    3  N13   D T 301     -10.459  77.108 -85.363  1.00 13.47    -0.229 NA
ENDROOT
BRANCH   1   4
HETATM    4  C11   D T 301      -8.859  76.661 -83.439  1.00 17.72     0.189 C 
BRANCH   4   5
HETATM    5  N10   D T 301      -8.431  75.298 -83.951  1.00 20.10    -0.205 NA
HETATM    6  C9    D T 301      -8.424  74.257 -83.051  1.00 25.60     0.384 C 
HETATM    7  O31   D T 301      -9.050  74.409 -82.002  1.00 26.77    -0.236 OA
BRANCH   6   8
HETATM    8  O8    D T 301      -7.614  73.097 -83.244  1.00 42.69    -0.279 OA
BRANCH   8   9
HETATM    9  C7    D T 301      -6.564  72.791 -82.242  1.00 33.16     0.180 C 
BRANCH   9  10
HETATM   10  C3    D T 301      -6.149  71.307 -82.023  1.00 42.57     0.008 A 
HETATM   11  C4    D T 301      -5.974  70.419 -83.135  1.00 50.57    -0.002 A 
HETATM   12  C5    D T 301      -5.607  69.068 -82.973  1.00 43.28    -0.000 A 
HETATM   13  C6    D T 301      -5.398  68.545 -81.688  1.00 42.12    -0.000 A 
HETATM   14  C1    D T 301      -5.563  69.397 -80.591  1.00 30.35    -0.000 A 
HETATM   15  C2    D T 301      -5.929  70.740 -80.756  1.00 36.19    -0.002 A 
ENDBRANCH   9  10
ENDBRANCH   8   9
ENDBRANCH   6   8
ENDBRANCH   4   5
BRANCH   4  16
HETATM   16  C30   D T 301      -7.810  77.789 -83.737  1.00 18.59     0.034 C 
BRANCH  16  17
HETATM   17  C31   D T 301      -8.146  79.132 -83.120  1.00 24.93     0.002 C 
HETATM   18  C32   D T 301      -7.141  79.482 -82.012  1.00 19.19     0.000 C 
HETATM   19  C33   D T 301      -8.228  80.300 -84.145  1.00  7.30     0.000 C 
ENDBRANCH  16  17
ENDBRANCH   4  16
ENDBRANCH   1   4
BRANCH   3  20
HETATM   20  C14   D T 301     -11.717  77.422 -85.998  1.00 15.34     0.186 C 
BRANCH  20  21
HETATM   21  C15   D T 301     -12.481  76.204 -86.503  1.00 12.96     0.274 C 
HETATM   22  O34   D T 301     -12.909  76.165 -87.641  1.00 12.56    -0.268 OA
HETATM   23  N16   D T 301     -12.738  75.190 -85.729  1.00 17.04    -0.230 NA
BRANCH  23  24
HETATM   24  C17   D T 301     -13.517  74.104 -86.165  1.00 17.43     0.171 C 
BRANCH  24  25
HETATM   25  C22   D T 301     -14.062  73.784 -84.825  1.00 20.81     0.231 C 
HETATM   26  O33   D T 301     -13.500  74.238 -83.835  1.00 28.36    -0.286 OA
ENDBRANCH  24  25
BRANCH  24  27
HETATM   27  C18   D T 301     -12.670  72.911 -86.653  1.00 14.38     0.033 C 
BRANCH  27  28
HETATM   28  C19   D T 301     -13.032  72.463 -88.057  1.00 18.04     0.002 C 
HETATM   29  C20   D T 301     -12.060  73.000 -89.119  1.00  7.79     0.000 C 
HETATM   30  C21   D T 301     -14.457  72.844 -88.441  1.00 20.55     0.000 C 
ENDBRANCH  27  28
ENDBRANCH  24  27
ENDBRANCH  23  24
ENDBRANCH  20  21
BRANCH  20  31
HETATM   31  C24   D T 301     -11.551  78.337 -87.234  1.00 11.83     0.034 C 
BRANCH  31  32
HETATM   32  C25   D T 301     -10.160  78.429 -87.767  1.00 17.57     0.002 C 
HETATM   33  C26   D T 301      -9.589  79.847 -87.634  1.00 13.82     0.000 C 
HETATM   34  C27   D T 301     -10.146  78.009 -89.234  1.00 17.96     0.000 C 
ENDBRANCH  31  32
ENDBRANCH  20  31
ENDBRANCH   3  20
TORSDOF 15
ENDMDL
MODEL 8
REMARK VINA RESULT:      -5.0     16.245     19.877
REMARK  15 active torsions:
REMARK  status: ('A' for Active; 'I' for Inactive)
REMARK    1  A    between atoms: C3_6  and  C7_7 
REMARK    2  A    between atoms: C7_7  and  O8_8 
REMARK    3  A    between atoms: O8_8  and  C9_9 
REMARK       I    between atoms: C9_9  and  N10_11 
REMARK    4  A    between atoms: N10_11  and  C11_12 
REMARK    5  A    between atoms: C11_12  and  C12_13 
REMARK    6  A    between atoms: C11_12  and  C30_15 
REMARK       I    between atoms: C12_13  and  N13_19 
REMARK    7  A    between atoms: C30_15  and  C31_16 
REMARK    8  A    between atoms: N13_19  and  C14_20 
REMARK    9  A    between atoms: C14_20  and  C15_21 
REMARK   10  A    between atoms: C14_20  and  C24_23 
REMARK       I    between atoms: C15_21  and  N16_27 
REMARK   11  A    between atoms: C24_23  and  C25_24 
REMARK   12  A    between atoms: N16_27  and  C17_28 
REMARK   13  A    between atoms: C17_28  and  C22_29 
REMARK   14  A    between atoms: C17_28  and  C18_30 
REMARK   15  A    between atoms: C18_30  and  C19_31 
ROOT
HETATM    1  C12   D T 301     -11.505  76.247 -85.288  1.00 13.21     0.274 C 
HETATM    2  O32   D T 301     -12.280  76.345 -84.354  1.00 14.55    -0.268 OA
HETATM    3  N13   D T 301     -10.170  76.365 -85.055  1.00 13.47    -0.229 NA
ENDROOT
BRANCH   1   4
HETATM    4  C11   D T 301     -12.015  76.014 -86.768  1.00 17.72     0.189 C 
BRANCH   4   5
HETATM    5  N10   D T 301     -13.319  75.238 -86.727  1.00 20.10    -0.205 NA
HETATM    6  C9    D T 301     -13.558  74.347 -87.749  1.00 25.60     0.384 C 
HETATM    7  O31   D T 301     -12.599  74.003 -88.439  1.00 26.77    -0.236 OA
BRANCH   6   8
HETATM    8  O8    D T 301     -14.881  73.939 -88.099  1.00 42.69    -0.279 OA
BRANCH   8   9
HETATM    9  C7    D T 301     -15.302  74.040 -89.518  1.00 33.16     0.180 C 
BRANCH   9  10
HETATM   10  C3    D T 301     -15.690  75.436 -90.086  1.00 42.57     0.008 A 
HETATM   11  C4    D T 301     -14.687  76.424 -90.361  1.00 50.57    -0.002 A 
HETATM   12  C5    D T 301     -15.003  77.700 -90.867  1.00 43.28    -0.000 A 
HETATM   13  C6    D T 301     -16.339  78.045 -91.122  1.00 42.12    -0.000 A 
HETATM   14  C1    D T 301     -17.331  77.094 -90.861  1.00 30.35    -0.000 A 
HETATM   15  C2    D T 301     -17.012  75.826 -90.356  1.00 36.19    -0.002 A 
ENDBRANCH   9  10
ENDBRANCH   8   9
ENDBRANCH   6   8
ENDBRANCH   4   5
BRANCH   4  16
HETATM   16  C30   D T 301     -12.120  77.352 -87.582  1.00 18.59     0.034 C 
BRANCH  16  17
HETATM   17  C31   D T 301     -11.387  77.334 -88.908  1.00 24.93     0.002 C 
HETATM   18  C32   D T 301     -11.529  78.688 -89.620  1.00 19.19     0.000 C 
HETATM   19  C33   D T 301      -9.883  76.953 -88.798  1.00  7.30     0.000 C 
ENDBRANCH  16  17
ENDBRANCH   4  16
ENDBRANCH   1   4
BRANCH   3  20
HETATM   20  C14   D T 301      -9.595  76.571 -83.747  1.00 15.34     0.186 C 
BRANCH  20  21
HETATM   21  C15   D T 301      -8.943  77.938 -83.562  1.00 12.96     0.274 C 
HETATM   22  O34   D T 301      -9.489  78.947 -83.967  1.00 12.56    -0.268 OA
HETATM   23  N16   D T 301      -7.774  78.066 -83.008  1.00 17.04    -0.230 NA
BRANCH  23  24
HETATM   24  C17   D T 301      -7.132  79.313 -82.915  1.00 17.43     0.171 C 
BRANCH  24  25
HETATM   25  C22   D T 301      -5.758  78.762 -82.973  1.00 20.81     0.231 C 
HETATM   26  O33   D T 301      -5.577  77.593 -82.650  1.00 28.36    -0.286 OA
ENDBRANCH  24  25
BRANCH  24  27
HETATM   27  C18   D T 301      -7.334  79.995 -81.546  1.00 14.38     0.033 C 
BRANCH  27  28
HETATM   28  C19   D T 301      -7.331  81.510 -81.633  1.00 18.04     0.002 C 
HETATM   29  C20   D T 301      -8.056  82.172 -80.451  1.00  7.79     0.000 C 
HETATM   30  C21   D T 301      -7.930  82.020 -82.939  1.00 20.55     0.000 C 
ENDBRANCH  27  28
ENDBRANCH  24  27
ENDBRANCH  23  24
ENDBRANCH  20  21
BRANCH  20  31
HETATM   31  C24   D T 301      -8.486  75.546 -83.413  1.00 11.83     0.034 C 
BRANCH  31  32
HETATM   32  C25   D T 301      -8.793  74.638 -82.268  1.00 17.57     0.002 C 
HETATM   33  C26   D T 301      -7.968  73.345 -82.327  1.00 13.82     0.000 C 
HETATM   34  C27   D T 301     -10.280  74.295 -82.274  1.00 17.96     0.000 C 
ENDBRANCH  31  32
ENDBRANCH  20  31
ENDBRANCH   3  20
TORSDOF 15
ENDMDL
MODEL 9
REMARK VINA RESULT:      -5.0     16.520     18.798
REMARK  15 active torsions:
REMARK  status: ('A' for Active; 'I' for Inactive)
REMARK    1  A    between atoms: C3_6  and  C7_7 
REMARK    2  A    between atoms: C7_7  and  O8_8 
REMARK    3  A    between atoms: O8_8  and  C9_9 
REMARK       I    between atoms: C9_9  and  N10_11 
REMARK    4  A    between atoms: N10_11  and  C11_12 
REMARK    5  A    between atoms: C11_12  and  C12_13 
REMARK    6  A    between atoms: C11_12  and  C30_15 
REMARK       I    between atoms: C12_13  and  N13_19 
REMARK    7  A    between atoms: C30_15  and  C31_16 
REMARK    8  A    between atoms: N13_19  and  C14_20 
REMARK    9  A    between atoms: C14_20  and  C15_21 
REMARK   10  A    between atoms: C14_20  and  C24_23 
REMARK       I    between atoms: C15_21  and  N16_27 
REMARK   11  A    between atoms: C24_23  and  C25_24 
REMARK   12  A    between atoms: N16_27  and  C17_28 
REMARK   13  A    between atoms: C17_28  and  C22_29 
REMARK   14  A    between atoms: C17_28  and  C18_30 
REMARK   15  A    between atoms: C18_30  and  C19_31 
ROOT
HETATM    1  C12   D T 301      -8.593  76.741 -85.051  1.00 13.21     0.274 C 
HETATM    2  O32   D T 301      -7.939  76.059 -85.820  1.00 14.55    -0.268 OA
HETATM    3  N13   D T 301      -9.813  76.295 -84.646  1.00 13.47    -0.229 NA
ENDROOT
BRANCH   1   4
HETATM    4  C11   D T 301      -8.071  78.143 -84.535  1.00 17.72     0.189 C 
BRANCH   4   5
HETATM    5  N10   D T 301      -8.976  79.237 -85.072  1.00 20.10    -0.205 NA
HETATM    6  C9    D T 301      -8.394  80.219 -85.841  1.00 25.60     0.384 C 
HETATM    7  O31   D T 301      -7.276  79.991 -86.303  1.00 26.77    -0.236 OA
BRANCH   6   8
HETATM    8  O8    D T 301      -8.985  81.511 -85.988  1.00 42.69    -0.279 OA
BRANCH   8   9
HETATM    9  C7    D T 301      -8.441  82.635 -85.188  1.00 33.16     0.180 C 
BRANCH   9  10
HETATM   10  C3    D T 301      -7.643  82.313 -83.891  1.00 42.57     0.008 A 
HETATM   11  C4    D T 301      -6.215  82.432 -83.856  1.00 50.57    -0.002 A 
HETATM   12  C5    D T 301      -5.460  82.140 -82.703  1.00 43.28    -0.000 A 
HETATM   13  C6    D T 301      -6.104  81.717 -81.529  1.00 42.12    -0.000 A 
HETATM   14  C1    D T 301      -7.496  81.597 -81.544  1.00 30.35    -0.000 A 
HETATM   15  C2    D T 301      -8.244  81.886 -82.694  1.00 36.19    -0.002 A 
ENDBRANCH   9  10
ENDBRANCH   8   9
ENDBRANCH   6   8
ENDBRANCH   4   5
BRANCH   4  16
HETATM   16  C30   D T 301      -7.914  78.185 -82.974  1.00 18.59     0.034 C 
BRANCH  16  17
HETATM   17  C31   D T 301      -6.483  78.062 -82.488  1.00 24.93     0.002 C 
HETATM   18  C32   D T 301      -6.176  76.613 -82.078  1.00 19.19     0.000 C 
HETATM   19  C33   D T 301      -5.420  78.556 -83.511  1.00  7.30     0.000 C 
ENDBRANCH  16  17
ENDBRANCH   4  16
ENDBRANCH   1   4
BRANCH   3  20
HETATM   20  C14   D T 301     -10.384  75.032 -85.048  1.00 15.34     0.186 C 
BRANCH  20  21
HETATM   21  C15   D T 301     -11.755  75.149 -85.706  1.00 12.96     0.274 C 
HETATM   22  O34   D T 301     -12.772  75.072 -85.042  1.00 12.56    -0.268 OA
HETATM   23  N16   D T 301     -11.885  75.289 -86.992  1.00 17.04    -0.230 NA
BRANCH  23  24
HETATM   24  C17   D T 301     -13.147  75.309 -87.611  1.00 17.43     0.171 C 
BRANCH  24  25
HETATM   25  C22   D T 301     -12.940  74.059 -88.379  1.00 20.81     0.231 C 
HETATM   26  O33   D T 301     -13.537  73.047 -88.030  1.00 28.36    -0.286 OA
ENDBRANCH  24  25
BRANCH  24  27
HETATM   27  C18   D T 301     -13.314  76.478 -88.604  1.00 14.38     0.033 C 
BRANCH  27  28
HETATM   28  C19   D T 301     -12.127  77.423 -88.612  1.00 18.04     0.002 C 
HETATM   29  C20   D T 301     -12.520  78.871 -88.280  1.00  7.79     0.000 C 
HETATM   30  C21   D T 301     -11.371  77.398 -89.936  1.00 20.55     0.000 C 
ENDBRANCH  27  28
ENDBRANCH  24  27
ENDBRANCH  23  24
ENDBRANCH  20  21
BRANCH  20  31
HETATM   31  C24   D T 301     -10.587  74.062 -83.860  1.00 11.83     0.034 C 
BRANCH  31  32
HETATM   32  C25   D T 301     -10.163  74.596 -82.532  1.00 17.57     0.002 C 
HETATM   33  C26   D T 301      -8.867  73.938 -82.039  1.00 13.82     0.000 C 
HETATM   34  C27   D T 301     -11.273  74.367 -81.511  1.00 17.96     0.000 C 
ENDBRANCH  31  32
ENDBRANCH  20  31
ENDBRANCH   3  20
TORSDOF 15
ENDMDL
