MODEL 1
REMARK VINA RESULT:    -6.847      0.000      0.000
REMARK INTER + INTRA:         -11.768
REMARK INTER:                 -10.049
REMARK INTRA:                  -1.719
REMARK UNBOUND:                -1.719
REMARK  16 active torsions:
REMARK  status: ('A' for Active; 'I' for Inactive)
REMARK    1  A    between atoms: C4_4  and  N11_11 
REMARK    2  A    between atoms: C7_7  and  N26_26 
REMARK    3  A    between atoms: C9_9  and  O20_20 
REMARK    4  A    between atoms: N11_11  and  C16_16 
REMARK    5  A    between atoms: O20_20  and  C21_21 
REMARK       I    between atoms: N26_26  and  C27_27 
REMARK    6  A    between atoms: C27_27  and  C28_28 
REMARK    7  A    between atoms: C30_30  and  C31_31 
REMARK    8  A    between atoms: C31_31  and  N32_32 
REMARK    9  A    between atoms: C4_38  and  N11_45 
REMARK   10  A    between atoms: C7_41  and  N26_60 
REMARK   11  A    between atoms: C9_43  and  O20_54 
REMARK   12  A    between atoms: N11_45  and  C16_50 
REMARK   13  A    between atoms: O20_54  and  C21_55 
REMARK       I    between atoms: N26_60  and  C27_61 
REMARK   14  A    between atoms: C27_61  and  C28_62 
REMARK   15  A    between atoms: C30_64  and  C31_65 
REMARK   16  A    between atoms: C31_65  and  N32_66 
ROOT
HETATM    1  C1    D T1102      -7.710 -20.015   0.906  1.00167.82     0.200 A 
HETATM    2  N2    D T1102      -7.096 -18.909   1.432  1.00157.47    -0.205 NA
HETATM    3  N3    D T1102      -8.749 -19.830   0.026  1.00173.48    -0.224 NA
HETATM    4  C4    D T1102      -7.490 -17.630   1.109  1.00150.96     0.166 A 
HETATM    5  C5    D T1102      -9.164 -18.561  -0.319  1.00165.96     0.088 A 
HETATM    6  C6    D T1102      -8.543 -17.434   0.214  1.00156.68     0.055 A 
HETATM    7  C7    D T1102     -10.060 -16.062  -1.078  1.00160.55     0.107 A 
HETATM    8  C8    D T1102      -9.004 -16.170  -0.176  1.00153.79     0.026 A 
HETATM    9  C9    D T1102     -10.669 -17.194  -1.598  1.00170.20     0.113 A 
HETATM   10  C10   D T1102     -10.214 -18.449  -1.212  1.00172.41     0.045 A 
ENDROOT
BRANCH   4  11
HETATM   11  N11   D T1102      -6.774 -16.558   1.690  1.00145.03    -0.227 NA
BRANCH  11  12
HETATM   12  C16   D T1102      -5.591 -15.969   1.152  1.00141.31     0.084 A 
HETATM   13  C14   D T1102      -4.383 -16.627   0.891  1.00146.64     0.033 A 
HETATM   14  C12   D T1102      -3.306 -15.937   0.364  1.00142.41     0.087 A 
HETATM   15  C13   D T1102      -3.419 -14.590   0.090  1.00133.30     0.151 A 
HETATM   16 CL1    D T1102      -1.821 -16.745   0.044  1.00149.27    -0.080 Cl
HETATM   17  C15   D T1102      -4.600 -13.925   0.342  1.00130.36     0.032 A 
HETATM   18  F18   D T1102      -2.393 -13.932  -0.413  1.00132.33    -0.203 F 
HETATM   19  C17   D T1102      -5.678 -14.613   0.865  1.00135.39     0.021 A 
ENDBRANCH  11  12
ENDBRANCH   4  11
BRANCH   7  20
HETATM   20  N26   D T1102     -10.601 -14.841  -1.546  1.00157.15    -0.206 NA
HETATM   21  C27   D T1102     -11.039 -13.681  -0.924  1.00156.15     0.279 C 
HETATM   22  O29   D T1102     -11.061 -13.483   0.276  1.00144.00    -0.265 OA
BRANCH  21  23
HETATM   23  C28   D T1102     -11.520 -12.695  -1.918  1.00162.13     0.060 C 
HETATM   24  C30   D T1102     -10.868 -12.333  -3.027  1.00160.84     0.014 C 
BRANCH  24  25
HETATM   25  C31   D T1102     -11.595 -11.280  -3.857  1.00169.44     0.277 C 
BRANCH  25  26
HETATM   26  N32   D T1102     -11.715 -11.613  -5.277  1.00171.25     0.146 N 
HETATM   27  C33   D T1102     -12.635 -12.749  -5.485  1.00165.61     0.286 C 
HETATM   28  C34   D T1102     -12.235 -10.447  -6.000  1.00180.89     0.286 C 
ENDBRANCH  25  26
ENDBRANCH  24  25
ENDBRANCH  21  23
ENDBRANCH   7  20
BRANCH   9  29
HETATM   29  O20   D T1102     -11.702 -16.996  -2.478  1.00178.70    -0.329 OA
BRANCH  29  30
HETATM   30  C21   D T1102     -13.087 -17.288  -2.280  1.00194.33     0.153 C 
HETATM   31  C22   D T1102     -13.946 -16.698  -3.405  1.00198.27     0.172 C 
HETATM   32  O23   D T1102     -14.247 -15.347  -3.050  1.00206.62    -0.352 OA
HETATM   33  C24   D T1102     -14.343 -15.345  -1.628  1.00213.68     0.145 C 
HETATM   34  C25   D T1102     -13.657 -16.588  -1.079  1.00205.93     0.065 C 
ENDBRANCH  29  30
ENDBRANCH   9  29
TORSDOF 16
ENDMDL
MODEL 2
REMARK VINA RESULT:    -6.705      4.403      9.234
REMARK INTER + INTRA:         -11.559
REMARK INTER:                  -9.668
REMARK INTRA:                  -1.891
REMARK UNBOUND:                -1.719
REMARK  16 active torsions:
REMARK  status: ('A' for Active; 'I' for Inactive)
REMARK    1  A    between atoms: C4_4  and  N11_11 
REMARK    2  A    between atoms: C7_7  and  N26_26 
REMARK    3  A    between atoms: C9_9  and  O20_20 
REMARK    4  A    between atoms: N11_11  and  C16_16 
REMARK    5  A    between atoms: O20_20  and  C21_21 
REMARK       I    between atoms: N26_26  and  C27_27 
REMARK    6  A    between atoms: C27_27  and  C28_28 
REMARK    7  A    between atoms: C30_30  and  C31_31 
REMARK    8  A    between atoms: C31_31  and  N32_32 
REMARK    9  A    between atoms: C4_38  and  N11_45 
REMARK   10  A    between atoms: C7_41  and  N26_60 
REMARK   11  A    between atoms: C9_43  and  O20_54 
REMARK   12  A    between atoms: N11_45  and  C16_50 
REMARK   13  A    between atoms: O20_54  and  C21_55 
REMARK       I    between atoms: N26_60  and  C27_61 
REMARK   14  A    between atoms: C27_61  and  C28_62 
REMARK   15  A    between atoms: C30_64  and  C31_65 
REMARK   16  A    between atoms: C31_65  and  N32_66 
ROOT
HETATM    1  C1    D T1102     -11.888 -10.899  -5.419  1.00167.82     0.200 A 
HETATM    2  N2    D T1102     -12.658 -11.937  -5.875  1.00157.47    -0.205 NA
HETATM    3  N3    D T1102     -11.058 -11.122  -4.347  1.00173.48    -0.224 NA
HETATM    4  C4    D T1102     -12.626 -13.183  -5.291  1.00150.96     0.166 A 
HETATM    5  C5    D T1102     -11.002 -12.360  -3.743  1.00165.96     0.088 A 
HETATM    6  C6    D T1102     -11.784 -13.418  -4.202  1.00156.68     0.055 A 
HETATM    7  C7    D T1102     -10.813 -14.806  -2.476  1.00160.55     0.107 A 
HETATM    8  C8    D T1102     -11.682 -14.655  -3.553  1.00153.79     0.026 A 
HETATM    9  C9    D T1102     -10.044 -13.742  -2.029  1.00170.20     0.113 A 
HETATM   10  C10   D T1102     -10.143 -12.514  -2.670  1.00172.41     0.045 A 
ENDROOT
BRANCH   4  11
HETATM   11  N11   D T1102     -13.443 -14.191  -5.853  1.00145.03    -0.227 NA
BRANCH  11  12
HETATM   12  C16   D T1102     -13.166 -14.898  -7.062  1.00141.31     0.084 A 
HETATM   13  C14   D T1102     -13.435 -14.453  -8.361  1.00146.64     0.033 A 
HETATM   14  C12   D T1102     -13.113 -15.239  -9.453  1.00142.41     0.087 A 
HETATM   15  C13   D T1102     -12.523 -16.471  -9.265  1.00133.30     0.151 A 
HETATM   16 CL1    D T1102     -13.444 -14.693 -11.051  1.00149.27    -0.080 Cl
HETATM   17  C15   D T1102     -12.253 -16.926  -7.992  1.00130.36     0.032 A 
HETATM   18  F18   D T1102     -12.217 -17.221 -10.306  1.00132.33    -0.203 F 
HETATM   19  C17   D T1102     -12.570 -16.142  -6.901  1.00135.39     0.021 A 
ENDBRANCH  11  12
ENDBRANCH   4  11
BRANCH   7  20
HETATM   20  N26   D T1102     -10.625 -16.008  -1.752  1.00157.15    -0.206 NA
HETATM   21  C27   D T1102     -11.413 -16.735  -0.872  1.00156.15     0.279 C 
HETATM   22  O29   D T1102     -12.531 -16.432  -0.503  1.00144.00    -0.265 OA
BRANCH  21  23
HETATM   23  C28   D T1102     -10.702 -17.944  -0.398  1.00162.13     0.060 C 
HETATM   24  C30   D T1102      -9.425 -17.987  -0.005  1.00160.84     0.014 C 
BRANCH  24  25
HETATM   25  C31   D T1102      -8.952 -19.375   0.414  1.00169.44     0.277 C 
BRANCH  25  26
HETATM   26  N32   D T1102      -7.526 -19.450   0.736  1.00171.25     0.146 N 
HETATM   27  C33   D T1102      -6.725 -19.799  -0.454  1.00165.61     0.286 C 
HETATM   28  C34   D T1102      -7.080 -18.147   1.240  1.00180.89     0.286 C 
ENDBRANCH  25  26
ENDBRANCH  24  25
ENDBRANCH  21  23
ENDBRANCH   7  20
BRANCH   9  29
HETATM   29  O20   D T1102      -9.217 -13.979  -0.960  1.00178.70    -0.329 OA
BRANCH  29  30
HETATM   30  C21   D T1102      -9.241 -13.346   0.321  1.00194.33     0.153 C 
HETATM   31  C22   D T1102      -8.176 -13.936   1.253  1.00198.27     0.172 C 
HETATM   32  O23   D T1102      -8.746 -15.086   1.882  1.00206.62    -0.352 OA
HETATM   33  C24   D T1102     -10.132 -14.785   2.029  1.00213.68     0.145 C 
HETATM   34  C25   D T1102     -10.499 -13.647   1.087  1.00205.93     0.065 C 
ENDBRANCH  29  30
ENDBRANCH   9  29
TORSDOF 16
ENDMDL
MODEL 3
REMARK VINA RESULT:    -6.695      3.614      7.667
REMARK INTER + INTRA:         -11.545
REMARK INTER:                 -10.064
REMARK INTRA:                  -1.481
REMARK UNBOUND:                -1.719
REMARK  16 active torsions:
REMARK  status: ('A' for Active; 'I' for Inactive)
REMARK    1  A    between atoms: C4_4  and  N11_11 
REMARK    2  A    between atoms: C7_7  and  N26_26 
REMARK    3  A    between atoms: C9_9  and  O20_20 
REMARK    4  A    between atoms: N11_11  and  C16_16 
REMARK    5  A    between atoms: O20_20  and  C21_21 
REMARK       I    between atoms: N26_26  and  C27_27 
REMARK    6  A    between atoms: C27_27  and  C28_28 
REMARK    7  A    between atoms: C30_30  and  C31_31 
REMARK    8  A    between atoms: C31_31  and  N32_32 
REMARK    9  A    between atoms: C4_38  and  N11_45 
REMARK   10  A    between atoms: C7_41  and  N26_60 
REMARK   11  A    between atoms: C9_43  and  O20_54 
REMARK   12  A    between atoms: N11_45  and  C16_50 
REMARK   13  A    between atoms: O20_54  and  C21_55 
REMARK       I    between atoms: N26_60  and  C27_61 
REMARK   14  A    between atoms: C27_61  and  C28_62 
REMARK   15  A    between atoms: C30_64  and  C31_65 
REMARK   16  A    between atoms: C31_65  and  N32_66 
ROOT
HETATM    1  C1    D T1102     -14.225 -17.541  -0.405  1.00167.82     0.200 A 
HETATM    2  N2    D T1102     -13.904 -16.216  -0.273  1.00157.47    -0.205 NA
HETATM    3  N3    D T1102     -13.212 -18.469  -0.359  1.00173.48    -0.224 NA
HETATM    4  C4    D T1102     -12.606 -15.791  -0.100  1.00150.96     0.166 A 
HETATM    5  C5    D T1102     -11.902 -18.073  -0.185  1.00165.96     0.088 A 
HETATM    6  C6    D T1102     -11.571 -16.727  -0.050  1.00156.68     0.055 A 
HETATM    7  C7    D T1102      -9.253 -17.382   0.172  1.00160.55     0.107 A 
HETATM    8  C8    D T1102     -10.224 -16.385   0.129  1.00153.79     0.026 A 
HETATM    9  C9    D T1102      -9.599 -18.718   0.033  1.00170.20     0.113 A 
HETATM   10  C10   D T1102     -10.933 -19.060  -0.146  1.00172.41     0.045 A 
ENDROOT
BRANCH   4  11
HETATM   11  N11   D T1102     -12.385 -14.403   0.050  1.00145.03    -0.227 NA
BRANCH  11  12
HETATM   12  C16   D T1102     -12.205 -13.477  -1.021  1.00141.31     0.084 A 
HETATM   13  C14   D T1102     -11.005 -13.210  -1.691  1.00146.64     0.033 A 
HETATM   14  C12   D T1102     -10.966 -12.284  -2.719  1.00142.41     0.087 A 
HETATM   15  C13   D T1102     -12.115 -11.619  -3.091  1.00133.30     0.151 A 
HETATM   16 CL1    D T1102      -9.491 -11.955  -3.543  1.00149.27    -0.080 Cl
HETATM   17  C15   D T1102     -13.305 -11.869  -2.441  1.00130.36     0.032 A 
HETATM   18  F18   D T1102     -12.078 -10.738  -4.071  1.00132.33    -0.203 F 
HETATM   19  C17   D T1102     -13.347 -12.794  -1.417  1.00135.39     0.021 A 
ENDBRANCH  11  12
ENDBRANCH   4  11
BRANCH   7  20
HETATM   20  N26   D T1102      -7.868 -17.154   0.355  1.00157.15    -0.206 NA
HETATM   21  C27   D T1102      -7.112 -16.589   1.372  1.00156.15     0.279 C 
HETATM   22  O29   D T1102      -7.549 -16.115   2.403  1.00144.00    -0.265 OA
BRANCH  21  23
HETATM   23  C28   D T1102      -5.671 -16.605   1.033  1.00162.13     0.060 C 
HETATM   24  C30   D T1102      -4.988 -15.584   0.505  1.00160.84     0.014 C 
BRANCH  24  25
HETATM   25  C31   D T1102      -3.519 -15.891   0.240  1.00169.44     0.277 C 
BRANCH  25  26
HETATM   26  N32   D T1102      -2.695 -14.709  -0.015  1.00171.25     0.146 N 
HETATM   27  C33   D T1102      -3.466 -13.466   0.181  1.00165.61     0.286 C 
HETATM   28  C34   D T1102      -1.558 -14.709   0.913  1.00180.89     0.286 C 
ENDBRANCH  25  26
ENDBRANCH  24  25
ENDBRANCH  21  23
ENDBRANCH   7  20
BRANCH   9  29
HETATM   29  O20   D T1102      -8.578 -19.633   0.085  1.00178.70    -0.329 OA
BRANCH  29  30
HETATM   30  C21   D T1102      -8.199 -20.577  -0.919  1.00194.33     0.153 C 
HETATM   31  C22   D T1102      -7.519 -21.803  -0.300  1.00198.27     0.172 C 
HETATM   32  O23   D T1102      -6.131 -21.496  -0.157  1.00206.62    -0.352 OA
HETATM   33  C24   D T1102      -5.820 -20.642  -1.254  1.00213.68     0.145 C 
HETATM   34  C25   D T1102      -7.109 -20.058  -1.814  1.00205.93     0.065 C 
ENDBRANCH  29  30
ENDBRANCH   9  29
TORSDOF 16
ENDMDL
MODEL 4
REMARK VINA RESULT:    -6.459      4.146      8.530
REMARK INTER + INTRA:         -11.199
REMARK INTER:                  -9.743
REMARK INTRA:                  -1.456
REMARK UNBOUND:                -1.719
REMARK  16 active torsions:
REMARK  status: ('A' for Active; 'I' for Inactive)
REMARK    1  A    between atoms: C4_4  and  N11_11 
REMARK    2  A    between atoms: C7_7  and  N26_26 
REMARK    3  A    between atoms: C9_9  and  O20_20 
REMARK    4  A    between atoms: N11_11  and  C16_16 
REMARK    5  A    between atoms: O20_20  and  C21_21 
REMARK       I    between atoms: N26_26  and  C27_27 
REMARK    6  A    between atoms: C27_27  and  C28_28 
REMARK    7  A    between atoms: C30_30  and  C31_31 
REMARK    8  A    between atoms: C31_31  and  N32_32 
REMARK    9  A    between atoms: C4_38  and  N11_45 
REMARK   10  A    between atoms: C7_41  and  N26_60 
REMARK   11  A    between atoms: C9_43  and  O20_54 
REMARK   12  A    between atoms: N11_45  and  C16_50 
REMARK   13  A    between atoms: O20_54  and  C21_55 
REMARK       I    between atoms: N26_60  and  C27_61 
REMARK   14  A    between atoms: C27_61  and  C28_62 
REMARK   15  A    between atoms: C30_64  and  C31_65 
REMARK   16  A    between atoms: C31_65  and  N32_66 
ROOT
HETATM    1  C1    D T1102      -6.683 -12.894   1.218  1.00167.82     0.200 A 
HETATM    2  N2    D T1102      -8.047 -12.881   1.099  1.00157.47    -0.205 NA
HETATM    3  N3    D T1102      -6.035 -14.107   1.201  1.00173.48    -0.224 NA
HETATM    4  C4    D T1102      -8.781 -14.039   0.967  1.00150.96     0.166 A 
HETATM    5  C5    D T1102      -6.744 -15.282   1.068  1.00165.96     0.088 A 
HETATM    6  C6    D T1102      -8.131 -15.274   0.947  1.00156.68     0.055 A 
HETATM    7  C7    D T1102      -8.072 -17.688   0.795  1.00160.55     0.107 A 
HETATM    8  C8    D T1102      -8.797 -16.499   0.810  1.00153.79     0.026 A 
HETATM    9  C9    D T1102      -6.691 -17.679   0.920  1.00170.20     0.113 A 
HETATM   10  C10   D T1102      -6.028 -16.466   1.057  1.00172.41     0.045 A 
ENDROOT
BRANCH   4  11
HETATM   11  N11   D T1102     -10.182 -13.913   0.828  1.00145.03    -0.227 NA
BRANCH  11  12
HETATM   12  C16   D T1102     -10.850 -13.310  -0.280  1.00141.31     0.084 A 
HETATM   13  C14   D T1102     -10.282 -13.004  -1.522  1.00146.64     0.033 A 
HETATM   14  C12   D T1102     -11.044 -12.418  -2.518  1.00142.41     0.087 A 
HETATM   15  C13   D T1102     -12.373 -12.133  -2.290  1.00133.30     0.151 A 
HETATM   16 CL1    D T1102     -10.346 -12.041  -4.045  1.00149.27    -0.080 Cl
HETATM   17  C15   D T1102     -12.949 -12.426  -1.072  1.00130.36     0.032 A 
HETATM   18  F18   D T1102     -13.100 -11.575  -3.239  1.00132.33    -0.203 F 
HETATM   19  C17   D T1102     -12.191 -13.014  -0.078  1.00135.39     0.021 A 
ENDBRANCH  11  12
ENDBRANCH   4  11
BRANCH   7  20
HETATM   20  N26   D T1102      -8.638 -18.978   0.655  1.00157.15    -0.206 NA
HETATM   21  C27   D T1102      -9.049 -19.736  -0.432  1.00156.15     0.279 C 
HETATM   22  O29   D T1102      -9.013 -19.386  -1.596  1.00144.00    -0.265 OA
BRANCH  21  23
HETATM   23  C28   D T1102      -9.579 -21.047   0.007  1.00162.13     0.060 C 
HETATM   24  C30   D T1102      -9.971 -21.347   1.249  1.00160.84     0.014 C 
BRANCH  24  25
HETATM   25  C31   D T1102     -10.455 -22.784   1.415  1.00169.44     0.277 C 
BRANCH  25  26
HETATM   26  N32   D T1102     -11.864 -22.902   1.792  1.00171.25     0.146 N 
HETATM   27  C33   D T1102     -12.332 -21.694   2.500  1.00165.61     0.286 C 
HETATM   28  C34   D T1102     -12.670 -23.081   0.580  1.00180.89     0.286 C 
ENDBRANCH  25  26
ENDBRANCH  24  25
ENDBRANCH  21  23
ENDBRANCH   7  20
BRANCH   9  29
HETATM   29  O20   D T1102      -6.057 -18.895   0.898  1.00178.70    -0.329 OA
BRANCH  29  30
HETATM   30  C21   D T1102      -5.440 -19.579   1.990  1.00194.33     0.153 C 
HETATM   31  C22   D T1102      -4.130 -20.249   1.558  1.00198.27     0.172 C 
HETATM   32  O23   D T1102      -4.461 -21.533   1.025  1.00206.62    -0.352 OA
HETATM   33  C24   D T1102      -5.595 -21.968   1.771  1.00213.68     0.145 C 
HETATM   34  C25   D T1102      -6.238 -20.768   2.449  1.00205.93     0.065 C 
ENDBRANCH  29  30
ENDBRANCH   9  29
TORSDOF 16
ENDMDL
MODEL 5
REMARK VINA RESULT:    -6.449      4.677      9.614
REMARK INTER + INTRA:         -11.184
REMARK INTER:                  -9.554
REMARK INTRA:                  -1.630
REMARK UNBOUND:                -1.719
REMARK  16 active torsions:
REMARK  status: ('A' for Active; 'I' for Inactive)
REMARK    1  A    between atoms: C4_4  and  N11_11 
REMARK    2  A    between atoms: C7_7  and  N26_26 
REMARK    3  A    between atoms: C9_9  and  O20_20 
REMARK    4  A    between atoms: N11_11  and  C16_16 
REMARK    5  A    between atoms: O20_20  and  C21_21 
REMARK       I    between atoms: N26_26  and  C27_27 
REMARK    6  A    between atoms: C27_27  and  C28_28 
REMARK    7  A    between atoms: C30_30  and  C31_31 
REMARK    8  A    between atoms: C31_31  and  N32_32 
REMARK    9  A    between atoms: C4_38  and  N11_45 
REMARK   10  A    between atoms: C7_41  and  N26_60 
REMARK   11  A    between atoms: C9_43  and  O20_54 
REMARK   12  A    between atoms: N11_45  and  C16_50 
REMARK   13  A    between atoms: O20_54  and  C21_55 
REMARK       I    between atoms: N26_60  and  C27_61 
REMARK   14  A    between atoms: C27_61  and  C28_62 
REMARK   15  A    between atoms: C30_64  and  C31_65 
REMARK   16  A    between atoms: C31_65  and  N32_66 
ROOT
HETATM    1  C1    D T1102     -12.124 -11.309  -4.938  1.00167.82     0.200 A 
HETATM    2  N2    D T1102     -12.704 -12.443  -5.443  1.00157.47    -0.205 NA
HETATM    3  N3    D T1102     -11.289 -11.428  -3.853  1.00173.48    -0.224 NA
HETATM    4  C4    D T1102     -12.478 -13.686  -4.897  1.00150.96     0.166 A 
HETATM    5  C5    D T1102     -11.042 -12.660  -3.285  1.00165.96     0.088 A 
HETATM    6  C6    D T1102     -11.630 -13.816  -3.795  1.00156.68     0.055 A 
HETATM    7  C7    D T1102     -10.478 -15.083  -2.087  1.00160.55     0.107 A 
HETATM    8  C8    D T1102     -11.339 -15.040  -3.180  1.00153.79     0.026 A 
HETATM    9  C9    D T1102      -9.903 -13.923  -1.590  1.00170.20     0.113 A 
HETATM   10  C10   D T1102     -10.191 -12.707  -2.196  1.00172.41     0.045 A 
ENDROOT
BRANCH   4  11
HETATM   11  N11   D T1102     -13.107 -14.794  -5.508  1.00145.03    -0.227 NA
BRANCH  11  12
HETATM   12  C16   D T1102     -14.467 -15.181  -5.314  1.00141.31     0.084 A 
HETATM   13  C14   D T1102     -15.400 -15.460  -6.320  1.00146.64     0.033 A 
HETATM   14  C12   D T1102     -16.694 -15.828  -5.995  1.00142.41     0.087 A 
HETATM   15  C13   D T1102     -17.072 -15.922  -4.673  1.00133.30     0.151 A 
HETATM   16 CL1    D T1102     -17.841 -16.170  -7.231  1.00149.27    -0.080 Cl
HETATM   17  C15   D T1102     -16.167 -15.650  -3.669  1.00130.36     0.032 A 
HETATM   18  F18   D T1102     -18.305 -16.273  -4.363  1.00132.33    -0.203 F 
HETATM   19  C17   D T1102     -14.874 -15.285  -3.990  1.00135.39     0.021 A 
ENDBRANCH  11  12
ENDBRANCH   4  11
BRANCH   7  20
HETATM   20  N26   D T1102     -10.108 -16.261  -1.394  1.00157.15    -0.206 NA
HETATM   21  C27   D T1102     -10.773 -17.118  -0.529  1.00156.15     0.279 C 
HETATM   22  O29   D T1102     -11.921 -16.991  -0.147  1.00144.00    -0.265 OA
BRANCH  21  23
HETATM   23  C28   D T1102      -9.888 -18.220  -0.090  1.00162.13     0.060 C 
HETATM   24  C30   D T1102      -8.604 -18.365  -0.432  1.00160.84     0.014 C 
BRANCH  24  25
HETATM   25  C31   D T1102      -7.943 -19.608   0.153  1.00169.44     0.277 C 
BRANCH  25  26
HETATM   26  N32   D T1102      -6.566 -19.400   0.603  1.00171.25     0.146 N 
HETATM   27  C33   D T1102      -6.133 -18.006   0.378  1.00165.61     0.286 C 
HETATM   28  C34   D T1102      -6.482 -19.694   2.038  1.00180.89     0.286 C 
ENDBRANCH  25  26
ENDBRANCH  24  25
ENDBRANCH  21  23
ENDBRANCH   7  20
BRANCH   9  29
HETATM   29  O20   D T1102      -9.069 -14.056  -0.508  1.00178.70    -0.329 OA
BRANCH  29  30
HETATM   30  C21   D T1102      -9.225 -13.484   0.792  1.00194.33     0.153 C 
HETATM   31  C22   D T1102      -7.875 -13.054   1.376  1.00198.27     0.172 C 
HETATM   32  O23   D T1102      -7.303 -14.195   2.018  1.00206.62    -0.352 OA
HETATM   33  C24   D T1102      -8.410 -14.934   2.527  1.00213.68     0.145 C 
HETATM   34  C25   D T1102      -9.678 -14.490   1.813  1.00205.93     0.065 C 
ENDBRANCH  29  30
ENDBRANCH   9  29
TORSDOF 16
ENDMDL
MODEL 6
REMARK VINA RESULT:    -6.447      4.404      8.556
REMARK INTER + INTRA:         -11.181
REMARK INTER:                  -9.672
REMARK INTRA:                  -1.509
REMARK UNBOUND:                -1.719
REMARK  16 active torsions:
REMARK  status: ('A' for Active; 'I' for Inactive)
REMARK    1  A    between atoms: C4_4  and  N11_11 
REMARK    2  A    between atoms: C7_7  and  N26_26 
REMARK    3  A    between atoms: C9_9  and  O20_20 
REMARK    4  A    between atoms: N11_11  and  C16_16 
REMARK    5  A    between atoms: O20_20  and  C21_21 
REMARK       I    between atoms: N26_26  and  C27_27 
REMARK    6  A    between atoms: C27_27  and  C28_28 
REMARK    7  A    between atoms: C30_30  and  C31_31 
REMARK    8  A    between atoms: C31_31  and  N32_32 
REMARK    9  A    between atoms: C4_38  and  N11_45 
REMARK   10  A    between atoms: C7_41  and  N26_60 
REMARK   11  A    between atoms: C9_43  and  O20_54 
REMARK   12  A    between atoms: N11_45  and  C16_50 
REMARK   13  A    between atoms: O20_54  and  C21_55 
REMARK       I    between atoms: N26_60  and  C27_61 
REMARK   14  A    between atoms: C27_61  and  C28_62 
REMARK   15  A    between atoms: C30_64  and  C31_65 
REMARK   16  A    between atoms: C31_65  and  N32_66 
ROOT
HETATM    1  C1    D T1102      -7.143 -13.019   1.716  1.00167.82     0.200 A 
HETATM    2  N2    D T1102      -8.434 -13.207   1.298  1.00157.47    -0.205 NA
HETATM    3  N3    D T1102      -6.261 -14.068   1.609  1.00173.48    -0.224 NA
HETATM    4  C4    D T1102      -8.868 -14.407   0.782  1.00150.96     0.166 A 
HETATM    5  C5    D T1102      -6.666 -15.281   1.094  1.00165.96     0.088 A 
HETATM    6  C6    D T1102      -7.978 -15.477   0.668  1.00156.68     0.055 A 
HETATM    7  C7    D T1102      -7.380 -17.742   0.066  1.00160.55     0.107 A 
HETATM    8  C8    D T1102      -8.331 -16.728   0.149  1.00153.79     0.026 A 
HETATM    9  C9    D T1102      -6.079 -17.531   0.497  1.00170.20     0.113 A 
HETATM   10  C10   D T1102      -5.725 -16.292   1.013  1.00172.41     0.045 A 
ENDROOT
BRANCH   4  11
HETATM   11  N11   D T1102     -10.215 -14.489   0.358  1.00145.03    -0.227 NA
BRANCH  11  12
HETATM   12  C16   D T1102     -10.826 -13.641  -0.613  1.00141.31     0.084 A 
HETATM   13  C14   D T1102     -10.229 -13.157  -1.783  1.00146.64     0.033 A 
HETATM   14  C12   D T1102     -10.937 -12.339  -2.647  1.00142.41     0.087 A 
HETATM   15  C13   D T1102     -12.241 -11.997  -2.357  1.00133.30     0.151 A 
HETATM   16 CL1    D T1102     -10.203 -11.744  -4.085  1.00149.27    -0.080 Cl
HETATM   17  C15   D T1102     -12.844 -12.463  -1.209  1.00130.36     0.032 A 
HETATM   18  F18   D T1102     -12.915 -11.218  -3.180  1.00132.33    -0.203 F 
HETATM   19  C17   D T1102     -12.141 -13.282  -0.347  1.00135.39     0.021 A 
ENDBRANCH  11  12
ENDBRANCH   4  11
BRANCH   7  20
HETATM   20  N26   D T1102      -7.623 -19.039  -0.447  1.00157.15    -0.206 NA
HETATM   21  C27   D T1102      -8.442 -20.090  -0.058  1.00156.15     0.279 C 
HETATM   22  O29   D T1102      -9.170 -20.100   0.916  1.00144.00    -0.265 OA
BRANCH  21  23
HETATM   23  C28   D T1102      -8.298 -21.241  -0.977  1.00162.13     0.060 C 
HETATM   24  C30   D T1102      -7.535 -21.266  -2.074  1.00160.84     0.014 C 
BRANCH  24  25
HETATM   25  C31   D T1102      -7.596 -22.582  -2.842  1.00169.44     0.277 C 
BRANCH  25  26
HETATM   26  N32   D T1102      -6.621 -22.689  -3.928  1.00171.25     0.146 N 
HETATM   27  C33   D T1102      -7.274 -22.579  -5.248  1.00165.61     0.286 C 
HETATM   28  C34   D T1102      -5.638 -21.606  -3.797  1.00180.89     0.286 C 
ENDBRANCH  25  26
ENDBRANCH  24  25
ENDBRANCH  21  23
ENDBRANCH   7  20
BRANCH   9  29
HETATM   29  O20   D T1102      -5.208 -18.585   0.381  1.00178.70    -0.329 OA
BRANCH  29  30
HETATM   30  C21   D T1102      -4.660 -19.386   1.430  1.00194.33     0.153 C 
HETATM   31  C22   D T1102      -3.186 -19.046   1.677  1.00198.27     0.172 C 
HETATM   32  O23   D T1102      -2.408 -19.824   0.765  1.00206.62    -0.352 OA
HETATM   33  C24   D T1102      -3.128 -21.044   0.604  1.00213.68     0.145 C 
HETATM   34  C25   D T1102      -4.567 -20.838   1.056  1.00205.93     0.065 C 
ENDBRANCH  29  30
ENDBRANCH   9  29
TORSDOF 16
ENDMDL
MODEL 7
REMARK VINA RESULT:    -6.307      4.115      7.923
REMARK INTER + INTRA:         -10.976
REMARK INTER:                 -10.071
REMARK INTRA:                  -0.905
REMARK UNBOUND:                -1.719
REMARK  16 active torsions:
REMARK  status: ('A' for Active; 'I' for Inactive)
REMARK    1  A    between atoms: C4_4  and  N11_11 
REMARK    2  A    between atoms: C7_7  and  N26_26 
REMARK    3  A    between atoms: C9_9  and  O20_20 
REMARK    4  A    between atoms: N11_11  and  C16_16 
REMARK    5  A    between atoms: O20_20  and  C21_21 
REMARK       I    between atoms: N26_26  and  C27_27 
REMARK    6  A    between atoms: C27_27  and  C28_28 
REMARK    7  A    between atoms: C30_30  and  C31_31 
REMARK    8  A    between atoms: C31_31  and  N32_32 
REMARK    9  A    between atoms: C4_38  and  N11_45 
REMARK   10  A    between atoms: C7_41  and  N26_60 
REMARK   11  A    between atoms: C9_43  and  O20_54 
REMARK   12  A    between atoms: N11_45  and  C16_50 
REMARK   13  A    between atoms: O20_54  and  C21_55 
REMARK       I    between atoms: N26_60  and  C27_61 
REMARK   14  A    between atoms: C27_61  and  C28_62 
REMARK   15  A    between atoms: C30_64  and  C31_65 
REMARK   16  A    between atoms: C31_65  and  N32_66 
ROOT
HETATM    1  C1    D T1102     -15.840 -16.318  -5.208  1.00167.82     0.200 A 
HETATM    2  N2    D T1102     -14.701 -15.722  -5.682  1.00157.47    -0.205 NA
HETATM    3  N3    D T1102     -15.929 -16.582  -3.862  1.00173.48    -0.224 NA
HETATM    4  C4    D T1102     -13.652 -15.388  -4.855  1.00150.96     0.166 A 
HETATM    5  C5    D T1102     -14.895 -16.257  -3.009  1.00165.96     0.088 A 
HETATM    6  C6    D T1102     -13.735 -15.651  -3.487  1.00156.68     0.055 A 
HETATM    7  C7    D T1102     -12.886 -15.632  -1.222  1.00160.55     0.107 A 
HETATM    8  C8    D T1102     -12.721 -15.339  -2.573  1.00153.79     0.026 A 
HETATM    9  C9    D T1102     -14.046 -16.237  -0.763  1.00170.20     0.113 A 
HETATM   10  C10   D T1102     -15.053 -16.549  -1.666  1.00172.41     0.045 A 
ENDROOT
BRANCH   4  11
HETATM   11  N11   D T1102     -12.532 -14.756  -5.442  1.00145.03    -0.227 NA
BRANCH  11  12
HETATM   12  C16   D T1102     -12.270 -13.352  -5.418  1.00141.31     0.084 A 
HETATM   13  C14   D T1102     -12.815 -12.394  -6.280  1.00146.64     0.033 A 
HETATM   14  C12   D T1102     -12.479 -11.058  -6.147  1.00142.41     0.087 A 
HETATM   15  C13   D T1102     -11.601 -10.664  -5.159  1.00133.30     0.151 A 
HETATM   16 CL1    D T1102     -13.148  -9.879  -7.207  1.00149.27    -0.080 Cl
HETATM   17  C15   D T1102     -11.054 -11.595  -4.303  1.00130.36     0.032 A 
HETATM   18  F18   D T1102     -11.281  -9.391  -5.033  1.00132.33    -0.203 F 
HETATM   19  C17   D T1102     -11.390 -12.928  -4.431  1.00135.39     0.021 A 
ENDBRANCH  11  12
ENDBRANCH   4  11
BRANCH   7  20
HETATM   20  N26   D T1102     -11.933 -15.355  -0.212  1.00157.15    -0.206 NA
HETATM   21  C27   D T1102     -11.452 -14.187   0.364  1.00156.15     0.279 C 
HETATM   22  O29   D T1102     -11.784 -13.057   0.061  1.00144.00    -0.265 OA
BRANCH  21  23
HETATM   23  C28   D T1102     -10.437 -14.486   1.399  1.00162.13     0.060 C 
HETATM   24  C30   D T1102      -9.125 -14.256   1.287  1.00160.84     0.014 C 
BRANCH  24  25
HETATM   25  C31   D T1102      -8.315 -14.684   2.505  1.00169.44     0.277 C 
BRANCH  25  26
HETATM   26  N32   D T1102      -7.097 -15.430   2.184  1.00171.25     0.146 N 
HETATM   27  C33   D T1102      -7.413 -16.793   1.710  1.00165.61     0.286 C 
HETATM   28  C34   D T1102      -6.367 -14.722   1.126  1.00180.89     0.286 C 
ENDBRANCH  25  26
ENDBRANCH  24  25
ENDBRANCH  21  23
ENDBRANCH   7  20
BRANCH   9  29
HETATM   29  O20   D T1102     -14.123 -16.492   0.583  1.00178.70    -0.329 OA
BRANCH  29  30
HETATM   30  C21   D T1102     -14.078 -17.763   1.236  1.00194.33     0.153 C 
HETATM   31  C22   D T1102     -14.736 -18.851   0.380  1.00198.27     0.172 C 
HETATM   32  O23   D T1102     -16.137 -18.829   0.661  1.00206.62    -0.352 OA
HETATM   33  C24   D T1102     -16.239 -18.453   2.032  1.00213.68     0.145 C 
HETATM   34  C25   D T1102     -14.933 -17.805   2.471  1.00205.93     0.065 C 
ENDBRANCH  29  30
ENDBRANCH   9  29
TORSDOF 16
ENDMDL
MODEL 8
REMARK VINA RESULT:    -6.103      4.055      7.553
REMARK INTER + INTRA:         -10.677
REMARK INTER:                  -9.035
REMARK INTRA:                  -1.642
REMARK UNBOUND:                -1.719
REMARK  16 active torsions:
REMARK  status: ('A' for Active; 'I' for Inactive)
REMARK    1  A    between atoms: C4_4  and  N11_11 
REMARK    2  A    between atoms: C7_7  and  N26_26 
REMARK    3  A    between atoms: C9_9  and  O20_20 
REMARK    4  A    between atoms: N11_11  and  C16_16 
REMARK    5  A    between atoms: O20_20  and  C21_21 
REMARK       I    between atoms: N26_26  and  C27_27 
REMARK    6  A    between atoms: C27_27  and  C28_28 
REMARK    7  A    between atoms: C30_30  and  C31_31 
REMARK    8  A    between atoms: C31_31  and  N32_32 
REMARK    9  A    between atoms: C4_38  and  N11_45 
REMARK   10  A    between atoms: C7_41  and  N26_60 
REMARK   11  A    between atoms: C9_43  and  O20_54 
REMARK   12  A    between atoms: N11_45  and  C16_50 
REMARK   13  A    between atoms: O20_54  and  C21_55 
REMARK       I    between atoms: N26_60  and  C27_61 
REMARK   14  A    between atoms: C27_61  and  C28_62 
REMARK   15  A    between atoms: C30_64  and  C31_65 
REMARK   16  A    between atoms: C31_65  and  N32_66 
ROOT
HETATM    1  C1    D T1102      -7.867 -13.787   1.523  1.00167.82     0.200 A 
HETATM    2  N2    D T1102      -9.084 -13.262   1.175  1.00157.47    -0.205 NA
HETATM    3  N3    D T1102      -7.665 -15.136   1.360  1.00173.48    -0.224 NA
HETATM    4  C4    D T1102     -10.101 -14.043   0.675  1.00150.96     0.166 A 
HETATM    5  C5    D T1102      -8.665 -15.944   0.859  1.00165.96     0.088 A 
HETATM    6  C6    D T1102      -9.904 -15.415   0.505  1.00156.68     0.055 A 
HETATM    7  C7    D T1102     -10.599 -17.639  -0.145  1.00160.55     0.107 A 
HETATM    8  C8    D T1102     -10.879 -16.282  -0.002  1.00153.79     0.026 A 
HETATM    9  C9    D T1102      -9.361 -18.150   0.215  1.00170.20     0.113 A 
HETATM   10  C10   D T1102      -8.392 -17.292   0.720  1.00172.41     0.045 A 
ENDROOT
BRANCH   4  11
HETATM   11  N11   D T1102     -11.310 -13.399   0.326  1.00145.03    -0.227 NA
BRANCH  11  12
HETATM   12  C16   D T1102     -11.616 -12.860  -0.960  1.00141.31     0.084 A 
HETATM   13  C14   D T1102     -10.696 -12.562  -1.972  1.00146.64     0.033 A 
HETATM   14  C12   D T1102     -11.126 -12.042  -3.180  1.00142.41     0.087 A 
HETATM   15  C13   D T1102     -12.469 -11.815  -3.393  1.00133.30     0.151 A 
HETATM   16 CL1    D T1102      -9.996 -11.675  -4.425  1.00149.27    -0.080 Cl
HETATM   17  C15   D T1102     -13.388 -12.100  -2.407  1.00130.36     0.032 A 
HETATM   18  F18   D T1102     -12.879 -11.319  -4.545  1.00132.33    -0.203 F 
HETATM   19  C17   D T1102     -12.962 -12.622  -1.201  1.00135.39     0.021 A 
ENDBRANCH  11  12
ENDBRANCH   4  11
BRANCH   7  20
HETATM   20  N26   D T1102     -11.504 -18.602  -0.651  1.00157.15    -0.206 NA
HETATM   21  C27   D T1102     -12.805 -18.963  -0.332  1.00156.15     0.279 C 
HETATM   22  O29   D T1102     -13.479 -18.476   0.556  1.00144.00    -0.265 OA
BRANCH  21  23
HETATM   23  C28   D T1102     -13.280 -20.061  -1.203  1.00162.13     0.060 C 
HETATM   24  C30   D T1102     -12.498 -20.949  -1.826  1.00160.84     0.014 C 
BRANCH  24  25
HETATM   25  C31   D T1102     -13.262 -21.958  -2.676  1.00169.44     0.277 C 
BRANCH  25  26
HETATM   26  N32   D T1102     -14.556 -21.477  -3.162  1.00171.25     0.146 N 
HETATM   27  C33   D T1102     -14.501 -21.154  -4.602  1.00165.61     0.286 C 
HETATM   28  C34   D T1102     -15.565 -22.521  -2.950  1.00180.89     0.286 C 
ENDBRANCH  25  26
ENDBRANCH  24  25
ENDBRANCH  21  23
ENDBRANCH   7  20
BRANCH   9  29
HETATM   29  O20   D T1102      -9.172 -19.497   0.044  1.00178.70    -0.329 OA
BRANCH  29  30
HETATM   30  C21   D T1102      -9.001 -20.492   1.057  1.00194.33     0.153 C 
HETATM   31  C22   D T1102      -7.603 -21.116   0.992  1.00198.27     0.172 C 
HETATM   32  O23   D T1102      -7.653 -22.184   0.044  1.00206.62    -0.352 OA
HETATM   33  C24   D T1102      -8.971 -22.718   0.150  1.00213.68     0.145 C 
HETATM   34  C25   D T1102      -9.870 -21.697   0.832  1.00205.93     0.065 C 
ENDBRANCH  29  30
ENDBRANCH   9  29
TORSDOF 16
ENDMDL
MODEL 9
REMARK VINA RESULT:    -5.935      3.846      7.543
REMARK INTER + INTRA:         -10.429
REMARK INTER:                  -8.701
REMARK INTRA:                  -1.728
REMARK UNBOUND:                -1.719
REMARK  16 active torsions:
REMARK  status: ('A' for Active; 'I' for Inactive)
REMARK    1  A    between atoms: C4_4  and  N11_11 
REMARK    2  A    between atoms: C7_7  and  N26_26 
REMARK    3  A    between atoms: C9_9  and  O20_20 
REMARK    4  A    between atoms: N11_11  and  C16_16 
REMARK    5  A    between atoms: O20_20  and  C21_21 
REMARK       I    between atoms: N26_26  and  C27_27 
REMARK    6  A    between atoms: C27_27  and  C28_28 
REMARK    7  A    between atoms: C30_30  and  C31_31 
REMARK    8  A    between atoms: C31_31  and  N32_32 
REMARK    9  A    between atoms: C4_38  and  N11_45 
REMARK   10  A    between atoms: C7_41  and  N26_60 
REMARK   11  A    between atoms: C9_43  and  O20_54 
REMARK   12  A    between atoms: N11_45  and  C16_50 
REMARK   13  A    between atoms: O20_54  and  C21_55 
REMARK       I    between atoms: N26_60  and  C27_61 
REMARK   14  A    between atoms: C27_61  and  C28_62 
REMARK   15  A    between atoms: C30_64  and  C31_65 
REMARK   16  A    between atoms: C31_65  and  N32_66 
ROOT
HETATM    1  C1    D T1102     -17.410 -17.556  -2.700  1.00167.82     0.200 A 
HETATM    2  N2    D T1102     -16.761 -18.389  -1.827  1.00157.47    -0.205 NA
HETATM    3  N3    D T1102     -16.835 -16.344  -2.999  1.00173.48    -0.224 NA
HETATM    4  C4    D T1102     -15.562 -18.047  -1.243  1.00150.96     0.166 A 
HETATM    5  C5    D T1102     -15.633 -15.975  -2.432  1.00165.96     0.088 A 
HETATM    6  C6    D T1102     -14.970 -16.818  -1.543  1.00156.68     0.055 A 
HETATM    7  C7    D T1102     -13.226 -15.152  -1.357  1.00160.55     0.107 A 
HETATM    8  C8    D T1102     -13.750 -16.392  -1.002  1.00153.79     0.026 A 
HETATM    9  C9    D T1102     -13.900 -14.323  -2.241  1.00170.20     0.113 A 
HETATM   10  C10   D T1102     -15.110 -14.742  -2.779  1.00172.41     0.045 A 
ENDROOT
BRANCH   4  11
HETATM   11  N11   D T1102     -14.964 -18.988  -0.374  1.00145.03    -0.227 NA
BRANCH  11  12
HETATM   12  C16   D T1102     -13.755 -19.701  -0.636  1.00141.31     0.084 A 
HETATM   13  C14   D T1102     -12.678 -19.855   0.244  1.00146.64     0.033 A 
HETATM   14  C12   D T1102     -11.560 -20.576  -0.135  1.00142.41     0.087 A 
HETATM   15  C13   D T1102     -11.502 -21.150  -1.387  1.00133.30     0.151 A 
HETATM   16 CL1    D T1102     -10.234 -20.765   0.947  1.00149.27    -0.080 Cl
HETATM   17  C15   D T1102     -12.553 -21.007  -2.267  1.00130.36     0.032 A 
HETATM   18  F18   D T1102     -10.436 -21.837  -1.748  1.00132.33    -0.203 F 
HETATM   19  C17   D T1102     -13.672 -20.290  -1.890  1.00135.39     0.021 A 
ENDBRANCH  11  12
ENDBRANCH   4  11
BRANCH   7  20
HETATM   20  N26   D T1102     -12.003 -14.624  -0.879  1.00157.15    -0.206 NA
HETATM   21  C27   D T1102     -10.671 -14.828  -1.213  1.00156.15     0.279 C 
HETATM   22  O29   D T1102     -10.261 -15.597  -2.060  1.00144.00    -0.265 OA
BRANCH  21  23
HETATM   23  C28   D T1102      -9.781 -13.996  -0.372  1.00162.13     0.060 C 
HETATM   24  C30   D T1102      -9.312 -14.337   0.832  1.00160.84     0.014 C 
BRANCH  24  25
HETATM   25  C31   D T1102      -8.432 -13.273   1.479  1.00169.44     0.277 C 
BRANCH  25  26
HETATM   26  N32   D T1102      -7.077 -13.727   1.795  1.00171.25     0.146 N 
HETATM   27  C33   D T1102      -7.011 -15.200   1.879  1.00165.61     0.286 C 
HETATM   28  C34   D T1102      -6.162 -13.274   0.741  1.00180.89     0.286 C 
ENDBRANCH  25  26
ENDBRANCH  24  25
ENDBRANCH  21  23
ENDBRANCH   7  20
BRANCH   9  29
HETATM   29  O20   D T1102     -13.313 -13.118  -2.534  1.00178.70    -0.329 OA
BRANCH  29  30
HETATM   30  C21   D T1102     -13.042 -12.568  -3.825  1.00194.33     0.153 C 
HETATM   31  C22   D T1102     -12.167 -13.511  -4.658  1.00198.27     0.172 C 
HETATM   32  O23   D T1102     -10.805 -13.236  -4.327  1.00206.62    -0.352 OA
HETATM   33  C24   D T1102     -10.762 -11.840  -4.043  1.00213.68     0.145 C 
HETATM   34  C25   D T1102     -12.172 -11.345  -3.758  1.00205.93     0.065 C 
ENDBRANCH  29  30
ENDBRANCH   9  29
TORSDOF 16
ENDMDL
