MODEL 1
REMARK VINA RESULT:    -5.870      0.000      0.000
REMARK INTER + INTRA:         -10.462
REMARK INTER:                  -8.615
REMARK INTRA:                  -1.847
REMARK UNBOUND:                -1.847
REMARK  16 active torsions:
REMARK  status: ('A' for Active; 'I' for Inactive)
REMARK    1  A    between atoms: C4_4  and  N11_11 
REMARK    2  A    between atoms: C7_7  and  N26_26 
REMARK    3  A    between atoms: C9_9  and  O20_20 
REMARK    4  A    between atoms: N11_11  and  C16_16 
REMARK    5  A    between atoms: O20_20  and  C21_21 
REMARK       I    between atoms: N26_26  and  C27_27 
REMARK    6  A    between atoms: C27_27  and  C28_28 
REMARK    7  A    between atoms: C30_30  and  C31_31 
REMARK    8  A    between atoms: C31_31  and  N32_32 
REMARK    9  A    between atoms: C4_38  and  N11_45 
REMARK   10  A    between atoms: C7_41  and  N26_60 
REMARK   11  A    between atoms: C9_43  and  O20_54 
REMARK   12  A    between atoms: N11_45  and  C16_50 
REMARK   13  A    between atoms: O20_54  and  C21_55 
REMARK       I    between atoms: N26_60  and  C27_61 
REMARK   14  A    between atoms: C27_61  and  C28_62 
REMARK   15  A    between atoms: C30_64  and  C31_65 
REMARK   16  A    between atoms: C31_65  and  N32_66 
ROOT
HETATM    1  C1    D T1102      10.705  -9.344  -4.559  1.00167.82     0.200 A 
HETATM    2  N2    D T1102       9.556 -10.016  -4.230  1.00157.47    -0.205 NA
HETATM    3  N3    D T1102      11.361  -8.646  -3.573  1.00173.48    -0.224 NA
HETATM    4  C4    D T1102       9.045 -10.008  -2.953  1.00150.96     0.166 A 
HETATM    5  C5    D T1102      10.873  -8.622  -2.284  1.00165.96     0.088 A 
HETATM    6  C6    D T1102       9.705  -9.302  -1.944  1.00156.68     0.055 A 
HETATM    7  C7    D T1102       9.983  -8.521   0.328  1.00160.55     0.107 A 
HETATM    8  C8    D T1102       9.261  -9.246  -0.618  1.00153.79     0.026 A 
HETATM    9  C9    D T1102      11.142  -7.848  -0.027  1.00170.20     0.113 A 
HETATM   10  C10   D T1102      11.585  -7.902  -1.341  1.00172.41     0.045 A 
ENDROOT
BRANCH   4  11
HETATM   11  N11   D T1102       7.867 -10.751  -2.714  1.00145.03    -0.227 NA
BRANCH  11  12
HETATM   12  C16   D T1102       6.540 -10.305  -2.989  1.00141.31     0.084 A 
HETATM   13  C14   D T1102       5.653  -9.731  -2.070  1.00146.64     0.033 A 
HETATM   14  C12   D T1102       4.388  -9.336  -2.469  1.00142.41     0.087 A 
HETATM   15  C13   D T1102       3.992  -9.507  -3.778  1.00133.30     0.151 A 
HETATM   16 CL1    D T1102       3.296  -8.632  -1.340  1.00149.27    -0.080 Cl
HETATM   17  C15   D T1102       4.852 -10.073  -4.696  1.00130.36     0.032 A 
HETATM   18  F18   D T1102       2.787  -9.132  -4.159  1.00132.33    -0.203 F 
HETATM   19  C17   D T1102       6.117 -10.464  -4.302  1.00135.39     0.021 A 
ENDBRANCH  11  12
ENDBRANCH   4  11
BRANCH   7  20
HETATM   20  N26   D T1102       9.632  -8.402   1.695  1.00157.15    -0.206 NA
HETATM   21  C27   D T1102       9.606  -9.288   2.763  1.00156.15     0.279 C 
HETATM   22  O29   D T1102       9.896 -10.468   2.715  1.00144.00    -0.265 OA
BRANCH  21  23
HETATM   23  C28   D T1102       9.143  -8.614   3.998  1.00162.13     0.060 C 
HETATM   24  C30   D T1102       9.556  -7.418   4.429  1.00160.84     0.014 C 
BRANCH  24  25
HETATM   25  C31   D T1102       8.923  -6.981   5.745  1.00169.44     0.277 C 
BRANCH  25  26
HETATM   26  N32   D T1102       9.746  -6.059   6.529  1.00171.25     0.146 N 
HETATM   27  C33   D T1102      11.100  -5.927   5.954  1.00165.61     0.286 C 
HETATM   28  C34   D T1102       9.108  -4.738   6.538  1.00180.89     0.286 C 
ENDBRANCH  25  26
ENDBRANCH  24  25
ENDBRANCH  21  23
ENDBRANCH   7  20
BRANCH   9  29
HETATM   29  O20   D T1102      11.788  -7.159   0.968  1.00178.70    -0.329 OA
BRANCH  29  30
HETATM   30  C21   D T1102      13.128  -7.342   1.430  1.00194.33     0.153 C 
HETATM   31  C22   D T1102      13.445  -8.826   1.642  1.00198.27     0.172 C 
HETATM   32  O23   D T1102      13.014  -9.172   2.960  1.00206.62    -0.352 OA
HETATM   33  C24   D T1102      13.213  -7.998   3.741  1.00213.68     0.145 C 
HETATM   34  C25   D T1102      13.340  -6.797   2.815  1.00205.93     0.065 C 
ENDBRANCH  29  30
ENDBRANCH   9  29
TORSDOF 16
ENDMDL
MODEL 2
REMARK VINA RESULT:    -5.402      3.021      4.228
REMARK INTER + INTRA:          -9.776
REMARK INTER:                  -8.348
REMARK INTRA:                  -1.428
REMARK UNBOUND:                -1.847
REMARK  16 active torsions:
REMARK  status: ('A' for Active; 'I' for Inactive)
REMARK    1  A    between atoms: C4_4  and  N11_11 
REMARK    2  A    between atoms: C7_7  and  N26_26 
REMARK    3  A    between atoms: C9_9  and  O20_20 
REMARK    4  A    between atoms: N11_11  and  C16_16 
REMARK    5  A    between atoms: O20_20  and  C21_21 
REMARK       I    between atoms: N26_26  and  C27_27 
REMARK    6  A    between atoms: C27_27  and  C28_28 
REMARK    7  A    between atoms: C30_30  and  C31_31 
REMARK    8  A    between atoms: C31_31  and  N32_32 
REMARK    9  A    between atoms: C4_38  and  N11_45 
REMARK   10  A    between atoms: C7_41  and  N26_60 
REMARK   11  A    between atoms: C9_43  and  O20_54 
REMARK   12  A    between atoms: N11_45  and  C16_50 
REMARK   13  A    between atoms: O20_54  and  C21_55 
REMARK       I    between atoms: N26_60  and  C27_61 
REMARK   14  A    between atoms: C27_61  and  C28_62 
REMARK   15  A    between atoms: C30_64  and  C31_65 
REMARK   16  A    between atoms: C31_65  and  N32_66 
ROOT
HETATM    1  C1    D T1102      12.231  -7.292  -1.859  1.00167.82     0.200 A 
HETATM    2  N2    D T1102      11.696  -8.434  -2.396  1.00157.47    -0.205 NA
HETATM    3  N3    D T1102      11.920  -6.970  -0.560  1.00173.48    -0.224 NA
HETATM    4  C4    D T1102      10.862  -9.258  -1.675  1.00150.96     0.166 A 
HETATM    5  C5    D T1102      11.089  -7.778   0.186  1.00165.96     0.088 A 
HETATM    6  C6    D T1102      10.541  -8.940  -0.354  1.00156.68     0.055 A 
HETATM    7  C7    D T1102       9.443  -9.336   1.764  1.00160.55     0.107 A 
HETATM    8  C8    D T1102       9.708  -9.724   0.453  1.00153.79     0.026 A 
HETATM    9  C9    D T1102       9.993  -8.175   2.286  1.00170.20     0.113 A 
HETATM   10  C10   D T1102      10.820  -7.396   1.489  1.00172.41     0.045 A 
ENDROOT
BRANCH   4  11
HETATM   11  N11   D T1102      10.382 -10.425  -2.314  1.00145.03    -0.227 NA
BRANCH  11  12
HETATM   12  C16   D T1102       9.222 -10.494  -3.142  1.00141.31     0.084 A 
HETATM   13  C14   D T1102       7.907 -10.221  -2.747  1.00146.64     0.033 A 
HETATM   14  C12   D T1102       6.866 -10.323  -3.654  1.00142.41     0.087 A 
HETATM   15  C13   D T1102       7.121 -10.696  -4.956  1.00133.30     0.151 A 
HETATM   16 CL1    D T1102       5.249  -9.989  -3.169  1.00149.27    -0.080 Cl
HETATM   17  C15   D T1102       8.410 -10.970  -5.363  1.00130.36     0.032 A 
HETATM   18  F18   D T1102       6.130 -10.793  -5.821  1.00132.33    -0.203 F 
HETATM   19  C17   D T1102       9.451 -10.865  -4.461  1.00135.39     0.021 A 
ENDBRANCH  11  12
ENDBRANCH   4  11
BRANCH   7  20
HETATM   20  N26   D T1102       8.624 -10.053   2.669  1.00157.15    -0.206 NA
HETATM   21  C27   D T1102       8.624 -11.359   3.141  1.00156.15     0.279 C 
HETATM   22  O29   D T1102       9.405 -12.232   2.816  1.00144.00    -0.265 OA
BRANCH  21  23
HETATM   23  C28   D T1102       7.512 -11.577   4.094  1.00162.13     0.060 C 
HETATM   24  C30   D T1102       6.218 -11.661   3.768  1.00160.84     0.014 C 
BRANCH  24  25
HETATM   25  C31   D T1102       5.291 -11.868   4.959  1.00169.44     0.277 C 
BRANCH  25  26
HETATM   26  N32   D T1102       3.908 -11.450   4.724  1.00171.25     0.146 N 
HETATM   27  C33   D T1102       2.997 -12.012   5.741  1.00165.61     0.286 C 
HETATM   28  C34   D T1102       3.834  -9.985   4.783  1.00180.89     0.286 C 
ENDBRANCH  25  26
ENDBRANCH  24  25
ENDBRANCH  21  23
ENDBRANCH   7  20
BRANCH   9  29
HETATM   29  O20   D T1102       9.678  -7.868   3.586  1.00178.70    -0.329 OA
BRANCH  29  30
HETATM   30  C21   D T1102      10.501  -8.019   4.744  1.00194.33     0.153 C 
HETATM   31  C22   D T1102       9.665  -8.378   5.977  1.00198.27     0.172 C 
HETATM   32  O23   D T1102       9.198  -7.154   6.550  1.00206.62    -0.352 OA
HETATM   33  C24   D T1102      10.228  -6.204   6.297  1.00213.68     0.145 C 
HETATM   34  C25   D T1102      11.123  -6.722   5.181  1.00205.93     0.065 C 
ENDBRANCH  29  30
ENDBRANCH   9  29
TORSDOF 16
ENDMDL
MODEL 3
REMARK VINA RESULT:    -5.084      1.646      2.114
REMARK INTER + INTRA:          -9.308
REMARK INTER:                  -7.936
REMARK INTRA:                  -1.372
REMARK UNBOUND:                -1.847
REMARK  16 active torsions:
REMARK  status: ('A' for Active; 'I' for Inactive)
REMARK    1  A    between atoms: C4_4  and  N11_11 
REMARK    2  A    between atoms: C7_7  and  N26_26 
REMARK    3  A    between atoms: C9_9  and  O20_20 
REMARK    4  A    between atoms: N11_11  and  C16_16 
REMARK    5  A    between atoms: O20_20  and  C21_21 
REMARK       I    between atoms: N26_26  and  C27_27 
REMARK    6  A    between atoms: C27_27  and  C28_28 
REMARK    7  A    between atoms: C30_30  and  C31_31 
REMARK    8  A    between atoms: C31_31  and  N32_32 
REMARK    9  A    between atoms: C4_38  and  N11_45 
REMARK   10  A    between atoms: C7_41  and  N26_60 
REMARK   11  A    between atoms: C9_43  and  O20_54 
REMARK   12  A    between atoms: N11_45  and  C16_50 
REMARK   13  A    between atoms: O20_54  and  C21_55 
REMARK       I    between atoms: N26_60  and  C27_61 
REMARK   14  A    between atoms: C27_61  and  C28_62 
REMARK   15  A    between atoms: C30_64  and  C31_65 
REMARK   16  A    between atoms: C31_65  and  N32_66 
ROOT
HETATM    1  C1    D T1102       9.415 -10.640  -5.179  1.00167.82     0.200 A 
HETATM    2  N2    D T1102       8.186 -10.806  -4.595  1.00157.47    -0.205 NA
HETATM    3  N3    D T1102      10.422 -10.072  -4.436  1.00173.48    -0.224 NA
HETATM    4  C4    D T1102       7.935 -10.421  -3.297  1.00150.96     0.166 A 
HETATM    5  C5    D T1102      10.200  -9.678  -3.133  1.00165.96     0.088 A 
HETATM    6  C6    D T1102       8.953  -9.844  -2.534  1.00156.68     0.055 A 
HETATM    7  C7    D T1102       9.858  -8.867  -0.515  1.00160.55     0.107 A 
HETATM    8  C8    D T1102       8.788  -9.430  -1.207  1.00153.79     0.026 A 
HETATM    9  C9    D T1102      11.092  -8.706  -1.126  1.00170.20     0.113 A 
HETATM   10  C10   D T1102      11.259  -9.115  -2.442  1.00172.41     0.045 A 
ENDROOT
BRANCH   4  11
HETATM   11  N11   D T1102       6.640 -10.658  -2.783  1.00145.03    -0.227 NA
BRANCH  11  12
HETATM   12  C16   D T1102       5.533  -9.764  -2.890  1.00141.31     0.084 A 
HETATM   13  C14   D T1102       4.790  -9.504  -4.048  1.00146.64     0.033 A 
HETATM   14  C12   D T1102       3.733  -8.611  -4.018  1.00142.41     0.087 A 
HETATM   15  C13   D T1102       3.405  -7.971  -2.841  1.00133.30     0.151 A 
HETATM   16 CL1    D T1102       2.819  -8.289  -5.441  1.00149.27    -0.080 Cl
HETATM   17  C15   D T1102       4.127  -8.214  -1.692  1.00130.36     0.032 A 
HETATM   18  F18   D T1102       2.398  -7.120  -2.811  1.00132.33    -0.203 F 
HETATM   19  C17   D T1102       5.180  -9.108  -1.719  1.00135.39     0.021 A 
ENDBRANCH  11  12
ENDBRANCH   4  11
BRANCH   7  20
HETATM   20  N26   D T1102       9.807  -8.421   0.828  1.00157.15    -0.206 NA
HETATM   21  C27   D T1102       9.594  -9.054   2.045  1.00156.15     0.279 C 
HETATM   22  O29   D T1102       9.367 -10.239   2.199  1.00144.00    -0.265 OA
BRANCH  21  23
HETATM   23  C28   D T1102       9.646  -8.084   3.162  1.00162.13     0.060 C 
HETATM   24  C30   D T1102       9.655  -8.398   4.461  1.00160.84     0.014 C 
BRANCH  24  25
HETATM   25  C31   D T1102       9.693  -7.191   5.391  1.00169.44     0.277 C 
BRANCH  25  26
HETATM   26  N32   D T1102      10.771  -7.229   6.380  1.00171.25     0.146 N 
HETATM   27  C33   D T1102      12.092  -7.070   5.739  1.00165.61     0.286 C 
HETATM   28  C34   D T1102      10.579  -6.136   7.339  1.00180.89     0.286 C 
ENDBRANCH  25  26
ENDBRANCH  24  25
ENDBRANCH  21  23
ENDBRANCH   7  20
BRANCH   9  29
HETATM   29  O20   D T1102      12.089  -8.142  -0.371  1.00178.70    -0.329 OA
BRANCH  29  30
HETATM   30  C21   D T1102      12.490  -6.770  -0.338  1.00194.33     0.153 C 
HETATM   31  C22   D T1102      13.727  -6.531  -1.211  1.00198.27     0.172 C 
HETATM   32  O23   D T1102      14.877  -6.818  -0.412  1.00206.62    -0.352 OA
HETATM   33  C24   D T1102      14.516  -6.444   0.914  1.00213.68     0.145 C 
HETATM   34  C25   D T1102      13.001  -6.352   1.013  1.00205.93     0.065 C 
ENDBRANCH  29  30
ENDBRANCH   9  29
TORSDOF 16
ENDMDL
MODEL 4
REMARK VINA RESULT:    -4.971      3.864      7.994
REMARK INTER + INTRA:          -9.143
REMARK INTER:                  -7.680
REMARK INTRA:                  -1.463
REMARK UNBOUND:                -1.847
REMARK  16 active torsions:
REMARK  status: ('A' for Active; 'I' for Inactive)
REMARK    1  A    between atoms: C4_4  and  N11_11 
REMARK    2  A    between atoms: C7_7  and  N26_26 
REMARK    3  A    between atoms: C9_9  and  O20_20 
REMARK    4  A    between atoms: N11_11  and  C16_16 
REMARK    5  A    between atoms: O20_20  and  C21_21 
REMARK       I    between atoms: N26_26  and  C27_27 
REMARK    6  A    between atoms: C27_27  and  C28_28 
REMARK    7  A    between atoms: C30_30  and  C31_31 
REMARK    8  A    between atoms: C31_31  and  N32_32 
REMARK    9  A    between atoms: C4_38  and  N11_45 
REMARK   10  A    between atoms: C7_41  and  N26_60 
REMARK   11  A    between atoms: C9_43  and  O20_54 
REMARK   12  A    between atoms: N11_45  and  C16_50 
REMARK   13  A    between atoms: O20_54  and  C21_55 
REMARK       I    between atoms: N26_60  and  C27_61 
REMARK   14  A    between atoms: C27_61  and  C28_62 
REMARK   15  A    between atoms: C30_64  and  C31_65 
REMARK   16  A    between atoms: C31_65  and  N32_66 
ROOT
HETATM    1  C1    D T1102       9.957  -7.661   5.563  1.00167.82     0.200 A 
HETATM    2  N2    D T1102       9.248  -8.806   5.821  1.00157.47    -0.205 NA
HETATM    3  N3    D T1102      10.300  -7.382   4.262  1.00173.48    -0.224 NA
HETATM    4  C4    D T1102       8.876  -9.675   4.821  1.00150.96     0.166 A 
HETATM    5  C5    D T1102       9.940  -8.235   3.240  1.00165.96     0.088 A 
HETATM    6  C6    D T1102       9.220  -9.400   3.496  1.00156.68     0.055 A 
HETATM    7  C7    D T1102       9.255  -9.872   1.124  1.00160.55     0.107 A 
HETATM    8  C8    D T1102       8.876 -10.224   2.418  1.00153.79     0.026 A 
HETATM    9  C9    D T1102       9.974  -8.710   0.886  1.00170.20     0.113 A 
HETATM   10  C10   D T1102      10.316  -7.891   1.953  1.00172.41     0.045 A 
ENDROOT
BRANCH   4  11
HETATM   11  N11   D T1102       8.126 -10.816   5.191  1.00145.03    -0.227 NA
BRANCH  11  12
HETATM   12  C16   D T1102       6.751 -10.811   5.571  1.00141.31     0.084 A 
HETATM   13  C14   D T1102       6.255 -10.753   6.879  1.00146.64     0.033 A 
HETATM   14  C12   D T1102       4.890 -10.752   7.112  1.00142.41     0.087 A 
HETATM   15  C13   D T1102       4.010 -10.809   6.053  1.00133.30     0.151 A 
HETATM   16 CL1    D T1102       4.279 -10.683   8.720  1.00149.27    -0.080 Cl
HETATM   17  C15   D T1102       4.481 -10.868   4.758  1.00130.36     0.032 A 
HETATM   18  F18   D T1102       2.710 -10.808   6.275  1.00132.33    -0.203 F 
HETATM   19  C17   D T1102       5.842 -10.865   4.522  1.00135.39     0.021 A 
ENDBRANCH  11  12
ENDBRANCH   4  11
BRANCH   7  20
HETATM   20  N26   D T1102       8.958 -10.624  -0.038  1.00157.15    -0.206 NA
HETATM   21  C27   D T1102       7.861 -11.370  -0.447  1.00156.15     0.279 C 
HETATM   22  O29   D T1102       6.846 -11.552   0.196  1.00144.00    -0.265 OA
BRANCH  21  23
HETATM   23  C28   D T1102       8.092 -11.960  -1.786  1.00162.13     0.060 C 
HETATM   24  C30   D T1102       7.572 -11.509  -2.931  1.00160.84     0.014 C 
BRANCH  24  25
HETATM   25  C31   D T1102       7.966 -12.327  -4.156  1.00169.44     0.277 C 
BRANCH  25  26
HETATM   26  N32   D T1102       8.118 -11.539  -5.380  1.00171.25     0.146 N 
HETATM   27  C33   D T1102       6.893 -10.770  -5.678  1.00165.61     0.286 C 
HETATM   28  C34   D T1102       9.234 -10.601  -5.210  1.00180.89     0.286 C 
ENDBRANCH  25  26
ENDBRANCH  24  25
ENDBRANCH  21  23
ENDBRANCH   7  20
BRANCH   9  29
HETATM   29  O20   D T1102      10.306  -8.442  -0.418  1.00178.70    -0.329 OA
BRANCH  29  30
HETATM   30  C21   D T1102      11.606  -8.183  -0.953  1.00194.33     0.153 C 
HETATM   31  C22   D T1102      11.537  -7.869  -2.451  1.00198.27     0.172 C 
HETATM   32  O23   D T1102      11.570  -9.114  -3.152  1.00206.62    -0.352 OA
HETATM   33  C24   D T1102      12.385  -9.971  -2.358  1.00213.68     0.145 C 
HETATM   34  C25   D T1102      12.484  -9.403  -0.950  1.00205.93     0.065 C 
ENDBRANCH  29  30
ENDBRANCH   9  29
TORSDOF 16
ENDMDL
MODEL 5
REMARK VINA RESULT:    -4.908      2.619      5.282
REMARK INTER + INTRA:          -9.051
REMARK INTER:                  -7.332
REMARK INTRA:                  -1.719
REMARK UNBOUND:                -1.847
REMARK  16 active torsions:
REMARK  status: ('A' for Active; 'I' for Inactive)
REMARK    1  A    between atoms: C4_4  and  N11_11 
REMARK    2  A    between atoms: C7_7  and  N26_26 
REMARK    3  A    between atoms: C9_9  and  O20_20 
REMARK    4  A    between atoms: N11_11  and  C16_16 
REMARK    5  A    between atoms: O20_20  and  C21_21 
REMARK       I    between atoms: N26_26  and  C27_27 
REMARK    6  A    between atoms: C27_27  and  C28_28 
REMARK    7  A    between atoms: C30_30  and  C31_31 
REMARK    8  A    between atoms: C31_31  and  N32_32 
REMARK    9  A    between atoms: C4_38  and  N11_45 
REMARK   10  A    between atoms: C7_41  and  N26_60 
REMARK   11  A    between atoms: C9_43  and  O20_54 
REMARK   12  A    between atoms: N11_45  and  C16_50 
REMARK   13  A    between atoms: O20_54  and  C21_55 
REMARK       I    between atoms: N26_60  and  C27_61 
REMARK   14  A    between atoms: C27_61  and  C28_62 
REMARK   15  A    between atoms: C30_64  and  C31_65 
REMARK   16  A    between atoms: C31_65  and  N32_66 
ROOT
HETATM    1  C1    D T1102       7.126 -11.812   2.845  1.00167.82     0.200 A 
HETATM    2  N2    D T1102       7.369 -12.186   1.549  1.00157.47    -0.205 NA
HETATM    3  N3    D T1102       7.838 -10.759   3.368  1.00173.48    -0.224 NA
HETATM    4  C4    D T1102       8.301 -11.544   0.766  1.00150.96     0.166 A 
HETATM    5  C5    D T1102       8.778 -10.097   2.606  1.00165.96     0.088 A 
HETATM    6  C6    D T1102       9.030 -10.473   1.289  1.00156.68     0.055 A 
HETATM    7  C7    D T1102      10.670  -8.700   1.159  1.00160.55     0.107 A 
HETATM    8  C8    D T1102       9.991  -9.760   0.562  1.00153.79     0.026 A 
HETATM    9  C9    D T1102      10.409  -8.340   2.472  1.00170.20     0.113 A 
HETATM   10  C10   D T1102       9.457  -9.045   3.195  1.00172.41     0.045 A 
ENDROOT
BRANCH   4  11
HETATM   11  N11   D T1102       8.460 -11.994  -0.565  1.00145.03    -0.227 NA
BRANCH  11  12
HETATM   12  C16   D T1102       7.771 -11.469  -1.700  1.00141.31     0.084 A 
HETATM   13  C14   D T1102       6.682 -10.590  -1.673  1.00146.64     0.033 A 
HETATM   14  C12   D T1102       6.104 -10.152  -2.852  1.00142.41     0.087 A 
HETATM   15  C13   D T1102       6.601 -10.582  -4.064  1.00133.30     0.151 A 
HETATM   16 CL1    D T1102       4.764  -9.073  -2.820  1.00149.27    -0.080 Cl
HETATM   17  C15   D T1102       7.672 -11.449  -4.110  1.00130.36     0.032 A 
HETATM   18  F18   D T1102       6.051 -10.165  -5.188  1.00132.33    -0.203 F 
HETATM   19  C17   D T1102       8.254 -11.884  -2.934  1.00135.39     0.021 A 
ENDBRANCH  11  12
ENDBRANCH   4  11
BRANCH   7  20
HETATM   20  N26   D T1102      11.653  -7.908   0.519  1.00157.15    -0.206 NA
HETATM   21  C27   D T1102      11.677  -7.164  -0.653  1.00156.15     0.279 C 
HETATM   22  O29   D T1102      10.762  -7.057  -1.445  1.00144.00    -0.265 OA
BRANCH  21  23
HETATM   23  C28   D T1102      12.998  -6.521  -0.844  1.00162.13     0.060 C 
HETATM   24  C30   D T1102      14.034  -7.059  -1.496  1.00160.84     0.014 C 
BRANCH  24  25
HETATM   25  C31   D T1102      15.277  -6.177  -1.518  1.00169.44     0.277 C 
BRANCH  25  26
HETATM   26  N32   D T1102      16.528  -6.898  -1.282  1.00171.25     0.146 N 
HETATM   27  C33   D T1102      16.444  -7.734  -0.068  1.00165.61     0.286 C 
HETATM   28  C34   D T1102      16.806  -7.766  -2.432  1.00180.89     0.286 C 
ENDBRANCH  25  26
ENDBRANCH  24  25
ENDBRANCH  21  23
ENDBRANCH   7  20
BRANCH   9  29
HETATM   29  O20   D T1102      11.126  -7.286   2.980  1.00178.70    -0.329 OA
BRANCH  29  30
HETATM   30  C21   D T1102      12.131  -7.320   3.995  1.00194.33     0.153 C 
HETATM   31  C22   D T1102      13.121  -6.161   3.836  1.00198.27     0.172 C 
HETATM   32  O23   D T1102      14.130  -6.580   2.915  1.00206.62    -0.352 OA
HETATM   33  C24   D T1102      14.275  -7.980   3.129  1.00213.68     0.145 C 
HETATM   34  C25   D T1102      13.047  -8.505   3.858  1.00205.93     0.065 C 
ENDBRANCH  29  30
ENDBRANCH   9  29
TORSDOF 16
ENDMDL
MODEL 6
REMARK VINA RESULT:    -4.713      3.215      4.922
REMARK INTER + INTRA:          -8.765
REMARK INTER:                  -7.022
REMARK INTRA:                  -1.743
REMARK UNBOUND:                -1.847
REMARK  16 active torsions:
REMARK  status: ('A' for Active; 'I' for Inactive)
REMARK    1  A    between atoms: C4_4  and  N11_11 
REMARK    2  A    between atoms: C7_7  and  N26_26 
REMARK    3  A    between atoms: C9_9  and  O20_20 
REMARK    4  A    between atoms: N11_11  and  C16_16 
REMARK    5  A    between atoms: O20_20  and  C21_21 
REMARK       I    between atoms: N26_26  and  C27_27 
REMARK    6  A    between atoms: C27_27  and  C28_28 
REMARK    7  A    between atoms: C30_30  and  C31_31 
REMARK    8  A    between atoms: C31_31  and  N32_32 
REMARK    9  A    between atoms: C4_38  and  N11_45 
REMARK   10  A    between atoms: C7_41  and  N26_60 
REMARK   11  A    between atoms: C9_43  and  O20_54 
REMARK   12  A    between atoms: N11_45  and  C16_50 
REMARK   13  A    between atoms: O20_54  and  C21_55 
REMARK       I    between atoms: N26_60  and  C27_61 
REMARK   14  A    between atoms: C27_61  and  C28_62 
REMARK   15  A    between atoms: C30_64  and  C31_65 
REMARK   16  A    between atoms: C31_65  and  N32_66 
ROOT
HETATM    1  C1    D T1102      15.548  -7.474  -1.120  1.00167.82     0.200 A 
HETATM    2  N2    D T1102      14.267  -7.192  -1.516  1.00157.47    -0.205 NA
HETATM    3  N3    D T1102      15.811  -7.579   0.225  1.00173.48    -0.224 NA
HETATM    4  C4    D T1102      13.246  -7.011  -0.611  1.00150.96     0.166 A 
HETATM    5  C5    D T1102      14.807  -7.404   1.154  1.00165.96     0.088 A 
HETATM    6  C6    D T1102      13.503  -7.116   0.758  1.00156.68     0.055 A 
HETATM    7  C7    D T1102      12.866  -7.081   3.091  1.00160.55     0.107 A 
HETATM    8  C8    D T1102      12.525  -6.955   1.746  1.00153.79     0.026 A 
HETATM    9  C9    D T1102      14.169  -7.365   3.469  1.00170.20     0.113 A 
HETATM   10  C10   D T1102      15.141  -7.525   2.491  1.00172.41     0.045 A 
ENDROOT
BRANCH   4  11
HETATM   11  N11   D T1102      11.955  -6.747  -1.124  1.00145.03    -0.227 NA
BRANCH  11  12
HETATM   12  C16   D T1102      11.020  -7.736  -1.554  1.00141.31     0.084 A 
HETATM   13  C14   D T1102      11.150  -8.563  -2.676  1.00146.64     0.033 A 
HETATM   14  C12   D T1102      10.168  -9.488  -2.983  1.00142.41     0.087 A 
HETATM   15  C13   D T1102       9.051  -9.600  -2.182  1.00133.30     0.151 A 
HETATM   16 CL1    D T1102      10.325 -10.505  -4.363  1.00149.27    -0.080 Cl
HETATM   17  C15   D T1102       8.906  -8.792  -1.073  1.00130.36     0.032 A 
HETATM   18  F18   D T1102       8.115 -10.481  -2.474  1.00132.33    -0.203 F 
HETATM   19  C17   D T1102       9.888  -7.871  -0.763  1.00135.39     0.021 A 
ENDBRANCH  11  12
ENDBRANCH   4  11
BRANCH   7  20
HETATM   20  N26   D T1102      11.960  -6.945   4.171  1.00157.15    -0.206 NA
HETATM   21  C27   D T1102      10.696  -7.455   4.437  1.00156.15     0.279 C 
HETATM   22  O29   D T1102      10.053  -8.179   3.703  1.00144.00    -0.265 OA
BRANCH  21  23
HETATM   23  C28   D T1102      10.198  -6.975   5.746  1.00162.13     0.060 C 
HETATM   24  C30   D T1102      10.108  -5.694   6.118  1.00160.84     0.014 C 
BRANCH  24  25
HETATM   25  C31   D T1102       9.577  -5.495   7.533  1.00169.44     0.277 C 
BRANCH  25  26
HETATM   26  N32   D T1102       9.455  -4.093   7.936  1.00171.25     0.146 N 
HETATM   27  C33   D T1102       8.597  -3.952   9.130  1.00165.61     0.286 C 
HETATM   28  C34   D T1102      10.788  -3.567   8.250  1.00180.89     0.286 C 
ENDBRANCH  25  26
ENDBRANCH  24  25
ENDBRANCH  21  23
ENDBRANCH   7  20
BRANCH   9  29
HETATM   29  O20   D T1102      14.416  -7.470   4.815  1.00178.70    -0.329 OA
BRANCH  29  30
HETATM   30  C21   D T1102      15.136  -6.558   5.645  1.00194.33     0.153 C 
HETATM   31  C22   D T1102      14.520  -6.476   7.046  1.00198.27     0.172 C 
HETATM   32  O23   D T1102      13.473  -5.503   6.998  1.00206.62    -0.352 OA
HETATM   33  C24   D T1102      13.907  -4.532   6.051  1.00213.68     0.145 C 
HETATM   34  C25   D T1102      15.004  -5.132   5.185  1.00205.93     0.065 C 
ENDBRANCH  29  30
ENDBRANCH   9  29
TORSDOF 16
ENDMDL
MODEL 7
REMARK VINA RESULT:    -4.658      4.550      6.984
REMARK INTER + INTRA:          -8.684
REMARK INTER:                  -7.320
REMARK INTRA:                  -1.364
REMARK UNBOUND:                -1.847
REMARK  16 active torsions:
REMARK  status: ('A' for Active; 'I' for Inactive)
REMARK    1  A    between atoms: C4_4  and  N11_11 
REMARK    2  A    between atoms: C7_7  and  N26_26 
REMARK    3  A    between atoms: C9_9  and  O20_20 
REMARK    4  A    between atoms: N11_11  and  C16_16 
REMARK    5  A    between atoms: O20_20  and  C21_21 
REMARK       I    between atoms: N26_26  and  C27_27 
REMARK    6  A    between atoms: C27_27  and  C28_28 
REMARK    7  A    between atoms: C30_30  and  C31_31 
REMARK    8  A    between atoms: C31_31  and  N32_32 
REMARK    9  A    between atoms: C4_38  and  N11_45 
REMARK   10  A    between atoms: C7_41  and  N26_60 
REMARK   11  A    between atoms: C9_43  and  O20_54 
REMARK   12  A    between atoms: N11_45  and  C16_50 
REMARK   13  A    between atoms: O20_54  and  C21_55 
REMARK       I    between atoms: N26_60  and  C27_61 
REMARK   14  A    between atoms: C27_61  and  C28_62 
REMARK   15  A    between atoms: C30_64  and  C31_65 
REMARK   16  A    between atoms: C31_65  and  N32_66 
ROOT
HETATM    1  C1    D T1102       9.998 -10.503  -1.085  1.00167.82     0.200 A 
HETATM    2  N2    D T1102      10.580  -9.267  -1.204  1.00157.47    -0.205 NA
HETATM    3  N3    D T1102       9.446 -10.853   0.124  1.00173.48    -0.224 NA
HETATM    4  C4    D T1102      10.628  -8.378  -0.156  1.00150.96     0.166 A 
HETATM    5  C5    D T1102       9.478  -9.981   1.192  1.00165.96     0.088 A 
HETATM    6  C6    D T1102      10.069  -8.724   1.077  1.00156.68     0.055 A 
HETATM    7  C7    D T1102       9.482  -8.302   3.385  1.00160.55     0.107 A 
HETATM    8  C8    D T1102      10.066  -7.879   2.193  1.00153.79     0.026 A 
HETATM    9  C9    D T1102       8.901  -9.557   3.484  1.00170.20     0.113 A 
HETATM   10  C10   D T1102       8.902 -10.397   2.379  1.00172.41     0.045 A 
ENDROOT
BRANCH   4  11
HETATM   11  N11   D T1102      11.230  -7.120  -0.391  1.00145.03    -0.227 NA
BRANCH  11  12
HETATM   12  C16   D T1102      12.631  -6.853  -0.332  1.00141.31     0.084 A 
HETATM   13  C14   D T1102      13.420  -6.831   0.824  1.00146.64     0.033 A 
HETATM   14  C12   D T1102      14.775  -6.559   0.743  1.00142.41     0.087 A 
HETATM   15  C13   D T1102      15.356  -6.308  -0.481  1.00133.30     0.151 A 
HETATM   16 CL1    D T1102      15.747  -6.531   2.164  1.00149.27    -0.080 Cl
HETATM   17  C15   D T1102      14.593  -6.323  -1.630  1.00130.36     0.032 A 
HETATM   18  F18   D T1102      16.646  -6.049  -0.559  1.00132.33    -0.203 F 
HETATM   19  C17   D T1102      13.241  -6.598  -1.553  1.00135.39     0.021 A 
ENDBRANCH  11  12
ENDBRANCH   4  11
BRANCH   7  20
HETATM   20  N26   D T1102       9.416  -7.531   4.570  1.00157.15    -0.206 NA
HETATM   21  C27   D T1102      10.363  -6.879   5.349  1.00156.15     0.279 C 
HETATM   22  O29   D T1102      11.562  -6.863   5.145  1.00144.00    -0.265 OA
BRANCH  21  23
HETATM   23  C28   D T1102       9.727  -6.211   6.507  1.00162.13     0.060 C 
HETATM   24  C30   D T1102       9.726  -4.895   6.737  1.00160.84     0.014 C 
BRANCH  24  25
HETATM   25  C31   D T1102       9.010  -4.490   8.021  1.00169.44     0.277 C 
BRANCH  25  26
HETATM   26  N32   D T1102       9.655  -3.396   8.748  1.00171.25     0.146 N 
HETATM   27  C33   D T1102       8.896  -3.040   9.964  1.00165.61     0.286 C 
HETATM   28  C34   D T1102      11.006  -3.813   9.141  1.00180.89     0.286 C 
ENDBRANCH  25  26
ENDBRANCH  24  25
ENDBRANCH  21  23
ENDBRANCH   7  20
BRANCH   9  29
HETATM   29  O20   D T1102       8.351  -9.891   4.696  1.00178.70    -0.329 OA
BRANCH  29  30
HETATM   30  C21   D T1102       7.627 -11.077   5.029  1.00194.33     0.153 C 
HETATM   31  C22   D T1102       6.119 -10.882   4.830  1.00198.27     0.172 C 
HETATM   32  O23   D T1102       5.599 -10.306   6.030  1.00206.62    -0.352 OA
HETATM   33  C24   D T1102       6.395 -10.845   7.081  1.00213.68     0.145 C 
HETATM   34  C25   D T1102       7.688 -11.396   6.497  1.00205.93     0.065 C 
ENDBRANCH  29  30
ENDBRANCH   9  29
TORSDOF 16
ENDMDL
MODEL 8
REMARK VINA RESULT:    -4.567      6.771     12.486
REMARK INTER + INTRA:          -8.550
REMARK INTER:                  -6.873
REMARK INTRA:                  -1.677
REMARK UNBOUND:                -1.847
REMARK  16 active torsions:
REMARK  status: ('A' for Active; 'I' for Inactive)
REMARK    1  A    between atoms: C4_4  and  N11_11 
REMARK    2  A    between atoms: C7_7  and  N26_26 
REMARK    3  A    between atoms: C9_9  and  O20_20 
REMARK    4  A    between atoms: N11_11  and  C16_16 
REMARK    5  A    between atoms: O20_20  and  C21_21 
REMARK       I    between atoms: N26_26  and  C27_27 
REMARK    6  A    between atoms: C27_27  and  C28_28 
REMARK    7  A    between atoms: C30_30  and  C31_31 
REMARK    8  A    between atoms: C31_31  and  N32_32 
REMARK    9  A    between atoms: C4_38  and  N11_45 
REMARK   10  A    between atoms: C7_41  and  N26_60 
REMARK   11  A    between atoms: C9_43  and  O20_54 
REMARK   12  A    between atoms: N11_45  and  C16_50 
REMARK   13  A    between atoms: O20_54  and  C21_55 
REMARK       I    between atoms: N26_60  and  C27_61 
REMARK   14  A    between atoms: C27_61  and  C28_62 
REMARK   15  A    between atoms: C30_64  and  C31_65 
REMARK   16  A    between atoms: C31_65  and  N32_66 
ROOT
HETATM    1  C1    D T1102       9.138  -2.895  10.767  1.00167.82     0.200 A 
HETATM    2  N2    D T1102       9.861  -1.911  10.144  1.00157.47    -0.205 NA
HETATM    3  N3    D T1102       9.197  -4.171  10.260  1.00173.48    -0.224 NA
HETATM    4  C4    D T1102      10.634  -2.163   9.034  1.00150.96     0.166 A 
HETATM    5  C5    D T1102       9.966  -4.454   9.150  1.00165.96     0.088 A 
HETATM    6  C6    D T1102      10.702  -3.457   8.513  1.00156.68     0.055 A 
HETATM    7  C7    D T1102      11.482  -5.121   6.941  1.00160.55     0.107 A 
HETATM    8  C8    D T1102      11.468  -3.804   7.394  1.00153.79     0.026 A 
HETATM    9  C9    D T1102      10.742  -6.101   7.585  1.00170.20     0.113 A 
HETATM   10  C10   D T1102       9.981  -5.760   8.695  1.00172.41     0.045 A 
ENDROOT
BRANCH   4  11
HETATM   11  N11   D T1102      11.359  -1.082   8.482  1.00145.03    -0.227 NA
BRANCH  11  12
HETATM   12  C16   D T1102      12.390  -0.354   9.147  1.00141.31     0.084 A 
HETATM   13  C14   D T1102      12.212   0.760   9.977  1.00146.64     0.033 A 
HETATM   14  C12   D T1102      13.301   1.376  10.568  1.00142.41     0.087 A 
HETATM   15  C13   D T1102      14.573   0.895  10.340  1.00133.30     0.151 A 
HETATM   16 CL1    D T1102      13.084   2.746  11.587  1.00149.27    -0.080 Cl
HETATM   17  C15   D T1102      14.767  -0.200   9.523  1.00130.36     0.032 A 
HETATM   18  F18   D T1102      15.611   1.482  10.902  1.00132.33    -0.203 F 
HETATM   19  C17   D T1102      13.681  -0.820   8.936  1.00135.39     0.021 A 
ENDBRANCH  11  12
ENDBRANCH   4  11
BRANCH   7  20
HETATM   20  N26   D T1102      12.224  -5.585   5.828  1.00157.15    -0.206 NA
HETATM   21  C27   D T1102      13.540  -5.428   5.414  1.00156.15     0.279 C 
HETATM   22  O29   D T1102      14.391  -4.774   5.986  1.00144.00    -0.265 OA
BRANCH  21  23
HETATM   23  C28   D T1102      13.784  -6.146   4.143  1.00162.13     0.060 C 
HETATM   24  C30   D T1102      12.865  -6.392   3.204  1.00160.84     0.014 C 
BRANCH  24  25
HETATM   25  C31   D T1102      13.396  -7.171   2.006  1.00169.44     0.277 C 
BRANCH  25  26
HETATM   26  N32   D T1102      12.368  -7.893   1.255  1.00171.25     0.146 N 
HETATM   27  C33   D T1102      11.241  -7.006   0.903  1.00165.61     0.286 C 
HETATM   28  C34   D T1102      12.957  -8.419   0.019  1.00180.89     0.286 C 
ENDBRANCH  25  26
ENDBRANCH  24  25
ENDBRANCH  21  23
ENDBRANCH   7  20
BRANCH   9  29
HETATM   29  O20   D T1102      10.814  -7.371   7.071  1.00178.70    -0.329 OA
BRANCH  29  30
HETATM   30  C21   D T1102       9.753  -8.149   6.513  1.00194.33     0.153 C 
HETATM   31  C22   D T1102      10.297  -9.351   5.732  1.00198.27     0.172 C 
HETATM   32  O23   D T1102      10.581  -8.907   4.404  1.00206.62    -0.352 OA
HETATM   33  C24   D T1102       9.606  -7.907   4.125  1.00213.68     0.145 C 
HETATM   34  C25   D T1102       9.006  -7.415   5.434  1.00205.93     0.065 C 
ENDBRANCH  29  30
ENDBRANCH   9  29
TORSDOF 16
ENDMDL
MODEL 9
REMARK VINA RESULT:    -4.546      4.853      6.913
REMARK INTER + INTRA:          -8.519
REMARK INTER:                  -6.674
REMARK INTRA:                  -1.845
REMARK UNBOUND:                -1.847
REMARK  16 active torsions:
REMARK  status: ('A' for Active; 'I' for Inactive)
REMARK    1  A    between atoms: C4_4  and  N11_11 
REMARK    2  A    between atoms: C7_7  and  N26_26 
REMARK    3  A    between atoms: C9_9  and  O20_20 
REMARK    4  A    between atoms: N11_11  and  C16_16 
REMARK    5  A    between atoms: O20_20  and  C21_21 
REMARK       I    between atoms: N26_26  and  C27_27 
REMARK    6  A    between atoms: C27_27  and  C28_28 
REMARK    7  A    between atoms: C30_30  and  C31_31 
REMARK    8  A    between atoms: C31_31  and  N32_32 
REMARK    9  A    between atoms: C4_38  and  N11_45 
REMARK   10  A    between atoms: C7_41  and  N26_60 
REMARK   11  A    between atoms: C9_43  and  O20_54 
REMARK   12  A    between atoms: N11_45  and  C16_50 
REMARK   13  A    between atoms: O20_54  and  C21_55 
REMARK       I    between atoms: N26_60  and  C27_61 
REMARK   14  A    between atoms: C27_61  and  C28_62 
REMARK   15  A    between atoms: C30_64  and  C31_65 
REMARK   16  A    between atoms: C31_65  and  N32_66 
ROOT
HETATM    1  C1    D T1102       9.216 -10.945   1.130  1.00167.82     0.200 A 
HETATM    2  N2    D T1102       9.641  -9.772   0.563  1.00157.47    -0.205 NA
HETATM    3  N3    D T1102       8.970 -10.968   2.483  1.00173.48    -0.224 NA
HETATM    4  C4    D T1102       9.830  -8.628   1.304  1.00150.96     0.166 A 
HETATM    5  C5    D T1102       9.148  -9.836   3.250  1.00165.96     0.088 A 
HETATM    6  C6    D T1102       9.582  -8.641   2.679  1.00156.68     0.055 A 
HETATM    7  C7    D T1102       9.465  -7.622   4.869  1.00160.55     0.107 A 
HETATM    8  C8    D T1102       9.739  -7.523   3.507  1.00153.79     0.026 A 
HETATM    9  C9    D T1102       9.038  -8.819   5.422  1.00170.20     0.113 A 
HETATM   10  C10   D T1102       8.880  -9.929   4.604  1.00172.41     0.045 A 
ENDROOT
BRANCH   4  11
HETATM   11  N11   D T1102      10.249  -7.465   0.618  1.00145.03    -0.227 NA
BRANCH  11  12
HETATM   12  C16   D T1102      11.586  -7.190   0.201  1.00141.31     0.084 A 
HETATM   13  C14   D T1102      12.690  -6.997   1.040  1.00146.64     0.033 A 
HETATM   14  C12   D T1102      13.940  -6.739   0.505  1.00142.41     0.087 A 
HETATM   15  C13   D T1102      14.105  -6.670  -0.862  1.00133.30     0.151 A 
HETATM   16 CL1    D T1102      15.299  -6.499   1.535  1.00149.27    -0.080 Cl
HETATM   17  C15   D T1102      13.027  -6.856  -1.703  1.00130.36     0.032 A 
HETATM   18  F18   D T1102      15.295  -6.423  -1.372  1.00132.33    -0.203 F 
HETATM   19  C17   D T1102      11.779  -7.118  -1.172  1.00135.39     0.021 A 
ENDBRANCH  11  12
ENDBRANCH   4  11
BRANCH   7  20
HETATM   20  N26   D T1102       9.583  -6.557   5.796  1.00157.15    -0.206 NA
HETATM   21  C27   D T1102       8.774  -5.481   6.134  1.00156.15     0.279 C 
HETATM   22  O29   D T1102       7.702  -5.212   5.628  1.00144.00    -0.265 OA
BRANCH  21  23
HETATM   23  C28   D T1102       9.403  -4.660   7.193  1.00162.13     0.060 C 
HETATM   24  C30   D T1102      10.710  -4.402   7.300  1.00160.84     0.014 C 
BRANCH  24  25
HETATM   25  C31   D T1102      11.076  -3.543   8.505  1.00169.44     0.277 C 
BRANCH  25  26
HETATM   26  N32   D T1102      12.425  -3.778   9.022  1.00171.25     0.146 N 
HETATM   27  C33   D T1102      13.109  -4.847   8.267  1.00165.61     0.286 C 
HETATM   28  C34   D T1102      13.206  -2.542   8.903  1.00180.89     0.286 C 
ENDBRANCH  25  26
ENDBRANCH  24  25
ENDBRANCH  21  23
ENDBRANCH   7  20
BRANCH   9  29
HETATM   29  O20   D T1102       8.792  -8.825   6.772  1.00178.70    -0.329 OA
BRANCH  29  30
HETATM   30  C21   D T1102       9.568  -9.448   7.798  1.00194.33     0.153 C 
HETATM   31  C22   D T1102       9.664  -8.557   9.041  1.00198.27     0.172 C 
HETATM   32  O23   D T1102      10.763  -7.664   8.844  1.00206.62    -0.352 OA
HETATM   33  C24   D T1102      11.713  -8.400   8.080  1.00213.68     0.145 C 
HETATM   34  C25   D T1102      11.018  -9.583   7.423  1.00205.93     0.065 C 
ENDBRANCH  29  30
ENDBRANCH   9  29
TORSDOF 16
ENDMDL
