MODEL 1
REMARK VINA RESULT:    -6.479      0.000      0.000
REMARK INTER + INTRA:         -11.249
REMARK INTER:                  -9.510
REMARK INTRA:                  -1.739
REMARK UNBOUND:                -1.739
REMARK  16 active torsions:
REMARK  status: ('A' for Active; 'I' for Inactive)
REMARK    1  A    between atoms: C4_4  and  N11_11 
REMARK    2  A    between atoms: C7_7  and  N26_26 
REMARK    3  A    between atoms: C9_9  and  O20_20 
REMARK    4  A    between atoms: N11_11  and  C16_16 
REMARK    5  A    between atoms: O20_20  and  C21_21 
REMARK       I    between atoms: N26_26  and  C27_27 
REMARK    6  A    between atoms: C27_27  and  C28_28 
REMARK    7  A    between atoms: C30_30  and  C31_31 
REMARK    8  A    between atoms: C31_31  and  N32_32 
REMARK    9  A    between atoms: C4_38  and  N11_45 
REMARK   10  A    between atoms: C7_41  and  N26_60 
REMARK   11  A    between atoms: C9_43  and  O20_54 
REMARK   12  A    between atoms: N11_45  and  C16_50 
REMARK   13  A    between atoms: O20_54  and  C21_55 
REMARK       I    between atoms: N26_60  and  C27_61 
REMARK   14  A    between atoms: C27_61  and  C28_62 
REMARK   15  A    between atoms: C30_64  and  C31_65 
REMARK   16  A    between atoms: C31_65  and  N32_66 
ROOT
HETATM    1  C1    D T1102       0.080  26.250   1.392  1.00167.82     0.200 A 
HETATM    2  N2    D T1102       0.505  25.051   1.898  1.00157.47    -0.205 NA
HETATM    3  N3    D T1102      -0.557  26.259   0.174  1.00173.48    -0.224 NA
HETATM    4  C4    D T1102       0.314  23.865   1.227  1.00150.96     0.166 A 
HETATM    5  C5    D T1102      -0.763  25.086  -0.521  1.00165.96     0.088 A 
HETATM    6  C6    D T1102      -0.333  23.864  -0.011  1.00156.68     0.055 A 
HETATM    7  C7    D T1102      -1.234  22.791  -1.982  1.00160.55     0.107 A 
HETATM    8  C8    D T1102      -0.576  22.704  -0.758  1.00153.79     0.026 A 
HETATM    9  C9    D T1102      -1.653  24.017  -2.478  1.00170.20     0.113 A 
HETATM   10  C10   D T1102      -1.413  25.167  -1.739  1.00172.41     0.045 A 
ENDROOT
BRANCH   4  11
HETATM   11  N11   D T1102       0.769  22.679   1.849  1.00145.03    -0.227 NA
BRANCH  11  12
HETATM   12  C16   D T1102       2.054  22.089   1.655  1.00141.31     0.084 A 
HETATM   13  C14   D T1102       2.315  20.860   1.037  1.00146.64     0.033 A 
HETATM   14  C12   D T1102       3.615  20.400   0.911  1.00142.41     0.087 A 
HETATM   15  C13   D T1102       4.663  21.155   1.393  1.00133.30     0.151 A 
HETATM   16 CL1    D T1102       3.938  18.889   0.153  1.00149.27    -0.080 Cl
HETATM   17  C15   D T1102       4.424  22.367   2.007  1.00130.36     0.032 A 
HETATM   18  F18   D T1102       5.901  20.718   1.273  1.00132.33    -0.203 F 
HETATM   19  C17   D T1102       3.128  22.829   2.131  1.00135.39     0.021 A 
ENDBRANCH  11  12
ENDBRANCH   4  11
BRANCH   7  20
HETATM   20  N26   D T1102      -1.537  21.688  -2.817  1.00157.15    -0.206 NA
HETATM   21  C27   D T1102      -2.381  20.593  -2.697  1.00156.15     0.279 C 
HETATM   22  O29   D T1102      -3.082  20.338  -1.736  1.00144.00    -0.265 OA
BRANCH  21  23
HETATM   23  C28   D T1102      -2.304  19.730  -3.897  1.00162.13     0.060 C 
HETATM   24  C30   D T1102      -3.350  19.296  -4.608  1.00160.84     0.014 C 
BRANCH  24  25
HETATM   25  C31   D T1102      -2.972  18.403  -5.784  1.00169.44     0.277 C 
BRANCH  25  26
HETATM   26  N32   D T1102      -4.023  18.268  -6.796  1.00171.25     0.146 N 
HETATM   27  C33   D T1102      -4.691  19.559  -7.049  1.00165.61     0.286 C 
HETATM   28  C34   D T1102      -3.423  17.793  -8.047  1.00180.89     0.286 C 
ENDBRANCH  25  26
ENDBRANCH  24  25
ENDBRANCH  21  23
ENDBRANCH   7  20
BRANCH   9  29
HETATM   29  O20   D T1102      -2.291  24.009  -3.694  1.00178.70    -0.329 OA
BRANCH  29  30
HETATM   30  C21   D T1102      -3.630  24.419  -3.979  1.00194.33     0.153 C 
HETATM   31  C22   D T1102      -4.574  24.079  -2.820  1.00198.27     0.172 C 
HETATM   32  O23   D T1102      -5.016  22.734  -3.007  1.00206.62    -0.352 OA
HETATM   33  C24   D T1102      -5.079  22.552  -4.419  1.00213.68     0.145 C 
HETATM   34  C25   D T1102      -4.248  23.629  -5.099  1.00205.93     0.065 C 
ENDBRANCH  29  30
ENDBRANCH   9  29
TORSDOF 16
ENDMDL
MODEL 2
REMARK VINA RESULT:    -6.375      1.796      2.377
REMARK INTER + INTRA:         -11.096
REMARK INTER:                  -9.501
REMARK INTRA:                  -1.594
REMARK UNBOUND:                -1.739
REMARK  16 active torsions:
REMARK  status: ('A' for Active; 'I' for Inactive)
REMARK    1  A    between atoms: C4_4  and  N11_11 
REMARK    2  A    between atoms: C7_7  and  N26_26 
REMARK    3  A    between atoms: C9_9  and  O20_20 
REMARK    4  A    between atoms: N11_11  and  C16_16 
REMARK    5  A    between atoms: O20_20  and  C21_21 
REMARK       I    between atoms: N26_26  and  C27_27 
REMARK    6  A    between atoms: C27_27  and  C28_28 
REMARK    7  A    between atoms: C30_30  and  C31_31 
REMARK    8  A    between atoms: C31_31  and  N32_32 
REMARK    9  A    between atoms: C4_38  and  N11_45 
REMARK   10  A    between atoms: C7_41  and  N26_60 
REMARK   11  A    between atoms: C9_43  and  O20_54 
REMARK   12  A    between atoms: N11_45  and  C16_50 
REMARK   13  A    between atoms: O20_54  and  C21_55 
REMARK       I    between atoms: N26_60  and  C27_61 
REMARK   14  A    between atoms: C27_61  and  C28_62 
REMARK   15  A    between atoms: C30_64  and  C31_65 
REMARK   16  A    between atoms: C31_65  and  N32_66 
ROOT
HETATM    1  C1    D T1102       0.189  26.090   2.001  1.00167.82     0.200 A 
HETATM    2  N2    D T1102       0.637  24.835   2.318  1.00157.47    -0.205 NA
HETATM    3  N3    D T1102      -0.499  26.263   0.824  1.00173.48    -0.224 NA
HETATM    4  C4    D T1102       0.421  23.753   1.496  1.00150.96     0.166 A 
HETATM    5  C5    D T1102      -0.731  25.197  -0.019  1.00165.96     0.088 A 
HETATM    6  C6    D T1102      -0.278  23.918   0.298  1.00156.68     0.055 A 
HETATM    7  C7    D T1102      -1.258  23.123  -1.765  1.00160.55     0.107 A 
HETATM    8  C8    D T1102      -0.549  22.872  -0.593  1.00153.79     0.026 A 
HETATM    9  C9    D T1102      -1.700  24.403  -2.068  1.00170.20     0.113 A 
HETATM   10  C10   D T1102      -1.432  25.441  -1.186  1.00172.41     0.045 A 
ENDROOT
BRANCH   4  11
HETATM   11  N11   D T1102       0.905  22.496   1.927  1.00145.03    -0.227 NA
BRANCH  11  12
HETATM   12  C16   D T1102       2.205  21.975   1.651  1.00141.31     0.084 A 
HETATM   13  C14   D T1102       3.423  22.555   2.021  1.00146.64     0.033 A 
HETATM   14  C12   D T1102       4.621  21.943   1.692  1.00142.41     0.087 A 
HETATM   15  C13   D T1102       4.618  20.752   0.997  1.00133.30     0.151 A 
HETATM   16 CL1    D T1102       6.121  22.656   2.145  1.00149.27    -0.080 Cl
HETATM   17  C15   D T1102       3.426  20.167   0.623  1.00130.36     0.032 A 
HETATM   18  F18   D T1102       5.758  20.168   0.684  1.00132.33    -0.203 F 
HETATM   19  C17   D T1102       2.231  20.775   0.953  1.00135.39     0.021 A 
ENDBRANCH  11  12
ENDBRANCH   4  11
BRANCH   7  20
HETATM   20  N26   D T1102      -1.592  22.145  -2.732  1.00157.15    -0.206 NA
HETATM   21  C27   D T1102      -0.893  21.529  -3.761  1.00156.15     0.279 C 
HETATM   22  O29   D T1102       0.262  21.753  -4.068  1.00144.00    -0.265 OA
BRANCH  21  23
HETATM   23  C28   D T1102      -1.750  20.559  -4.479  1.00162.13     0.060 C 
HETATM   24  C30   D T1102      -1.555  20.129  -5.729  1.00160.84     0.014 C 
BRANCH  24  25
HETATM   25  C31   D T1102      -2.611  19.145  -6.218  1.00169.44     0.277 C 
BRANCH  25  26
HETATM   26  N32   D T1102      -2.360  17.755  -5.831  1.00171.25     0.146 N 
HETATM   27  C33   D T1102      -3.344  17.291  -4.834  1.00165.61     0.286 C 
HETATM   28  C34   D T1102      -2.455  16.902  -7.021  1.00180.89     0.286 C 
ENDBRANCH  25  26
ENDBRANCH  24  25
ENDBRANCH  21  23
ENDBRANCH   7  20
BRANCH   9  29
HETATM   29  O20   D T1102      -2.388  24.559  -3.245  1.00178.70    -0.329 OA
BRANCH  29  30
HETATM   30  C21   D T1102      -2.098  25.464  -4.312  1.00194.33     0.153 C 
HETATM   31  C22   D T1102      -2.345  24.810  -5.677  1.00198.27     0.172 C 
HETATM   32  O23   D T1102      -1.154  24.107  -6.037  1.00206.62    -0.352 OA
HETATM   33  C24   D T1102      -0.085  24.871  -5.485  1.00213.68     0.145 C 
HETATM   34  C25   D T1102      -0.635  25.793  -4.407  1.00205.93     0.065 C 
ENDBRANCH  29  30
ENDBRANCH   9  29
TORSDOF 16
ENDMDL
MODEL 3
REMARK VINA RESULT:    -5.903      8.252     11.572
REMARK INTER + INTRA:         -10.402
REMARK INTER:                  -8.777
REMARK INTRA:                  -1.625
REMARK UNBOUND:                -1.739
REMARK  16 active torsions:
REMARK  status: ('A' for Active; 'I' for Inactive)
REMARK    1  A    between atoms: C4_4  and  N11_11 
REMARK    2  A    between atoms: C7_7  and  N26_26 
REMARK    3  A    between atoms: C9_9  and  O20_20 
REMARK    4  A    between atoms: N11_11  and  C16_16 
REMARK    5  A    between atoms: O20_20  and  C21_21 
REMARK       I    between atoms: N26_26  and  C27_27 
REMARK    6  A    between atoms: C27_27  and  C28_28 
REMARK    7  A    between atoms: C30_30  and  C31_31 
REMARK    8  A    between atoms: C31_31  and  N32_32 
REMARK    9  A    between atoms: C4_38  and  N11_45 
REMARK   10  A    between atoms: C7_41  and  N26_60 
REMARK   11  A    between atoms: C9_43  and  O20_54 
REMARK   12  A    between atoms: N11_45  and  C16_50 
REMARK   13  A    between atoms: O20_54  and  C21_55 
REMARK       I    between atoms: N26_60  and  C27_61 
REMARK   14  A    between atoms: C27_61  and  C28_62 
REMARK   15  A    between atoms: C30_64  and  C31_65 
REMARK   16  A    between atoms: C31_65  and  N32_66 
ROOT
HETATM    1  C1    D T1102      -9.304  18.850  -2.831  1.00167.82     0.200 A 
HETATM    2  N2    D T1102      -8.235  19.303  -3.558  1.00157.47    -0.205 NA
HETATM    3  N3    D T1102     -10.239  18.065  -3.460  1.00173.48    -0.224 NA
HETATM    4  C4    D T1102      -8.075  18.998  -4.890  1.00150.96     0.166 A 
HETATM    5  C5    D T1102     -10.105  17.742  -4.795  1.00165.96     0.088 A 
HETATM    6  C6    D T1102      -9.020  18.200  -5.539  1.00156.68     0.055 A 
HETATM    7  C7    D T1102      -9.917  17.031  -7.456  1.00160.55     0.107 A 
HETATM    8  C8    D T1102      -8.933  17.835  -6.888  1.00153.79     0.026 A 
HETATM    9  C9    D T1102     -10.993  16.585  -6.702  1.00170.20     0.113 A 
HETATM   10  C10   D T1102     -11.082  16.946  -5.365  1.00172.41     0.045 A 
ENDROOT
BRANCH   4  11
HETATM   11  N11   D T1102      -6.924  19.496  -5.543  1.00145.03    -0.227 NA
BRANCH  11  12
HETATM   12  C16   D T1102      -5.637  18.879  -5.530  1.00141.31     0.084 A 
HETATM   13  C14   D T1102      -5.008  18.301  -4.421  1.00146.64     0.033 A 
HETATM   14  C12   D T1102      -3.753  17.730  -4.545  1.00142.41     0.087 A 
HETATM   15  C13   D T1102      -3.114  17.726  -5.767  1.00133.30     0.151 A 
HETATM   16 CL1    D T1102      -2.977  17.021  -3.182  1.00149.27    -0.080 Cl
HETATM   17  C15   D T1102      -3.719  18.293  -6.870  1.00130.36     0.032 A 
HETATM   18  F18   D T1102      -1.919  17.183  -5.885  1.00132.33    -0.203 F 
HETATM   19  C17   D T1102      -4.973  18.860  -6.749  1.00135.39     0.021 A 
ENDBRANCH  11  12
ENDBRANCH   4  11
BRANCH   7  20
HETATM   20  N26   D T1102      -9.928  16.597  -8.803  1.00157.15    -0.206 NA
HETATM   21  C27   D T1102     -10.164  17.228 -10.017  1.00156.15     0.279 C 
HETATM   22  O29   D T1102     -10.457  18.400 -10.163  1.00144.00    -0.265 OA
BRANCH  21  23
HETATM   23  C28   D T1102     -10.043  16.275 -11.143  1.00162.13     0.060 C 
HETATM   24  C30   D T1102      -8.992  16.172 -11.962  1.00160.84     0.014 C 
BRANCH  24  25
HETATM   25  C31   D T1102      -9.153  15.115 -13.048  1.00169.44     0.277 C 
BRANCH  25  26
HETATM   26  N32   D T1102      -8.245  15.281 -14.185  1.00171.25     0.146 N 
HETATM   27  C33   D T1102      -8.718  14.529 -15.363  1.00165.61     0.286 C 
HETATM   28  C34   D T1102      -8.169  16.704 -14.533  1.00180.89     0.286 C 
ENDBRANCH  25  26
ENDBRANCH  24  25
ENDBRANCH  21  23
ENDBRANCH   7  20
BRANCH   9  29
HETATM   29  O20   D T1102     -11.918  15.799  -7.344  1.00178.70    -0.329 OA
BRANCH  29  30
HETATM   30  C21   D T1102     -13.303  16.076  -7.554  1.00194.33     0.153 C 
HETATM   31  C22   D T1102     -14.025  14.869  -8.163  1.00198.27     0.172 C 
HETATM   32  O23   D T1102     -13.863  14.943  -9.581  1.00206.62    -0.352 OA
HETATM   33  C24   D T1102     -13.838  16.336  -9.883  1.00213.68     0.145 C 
HETATM   34  C25   D T1102     -13.529  17.117  -8.615  1.00205.93     0.065 C 
ENDBRANCH  29  30
ENDBRANCH   9  29
TORSDOF 16
ENDMDL
MODEL 4
REMARK VINA RESULT:    -5.382      7.664     10.251
REMARK INTER + INTRA:          -9.638
REMARK INTER:                  -7.824
REMARK INTRA:                  -1.814
REMARK UNBOUND:                -1.739
REMARK  16 active torsions:
REMARK  status: ('A' for Active; 'I' for Inactive)
REMARK    1  A    between atoms: C4_4  and  N11_11 
REMARK    2  A    between atoms: C7_7  and  N26_26 
REMARK    3  A    between atoms: C9_9  and  O20_20 
REMARK    4  A    between atoms: N11_11  and  C16_16 
REMARK    5  A    between atoms: O20_20  and  C21_21 
REMARK       I    between atoms: N26_26  and  C27_27 
REMARK    6  A    between atoms: C27_27  and  C28_28 
REMARK    7  A    between atoms: C30_30  and  C31_31 
REMARK    8  A    between atoms: C31_31  and  N32_32 
REMARK    9  A    between atoms: C4_38  and  N11_45 
REMARK   10  A    between atoms: C7_41  and  N26_60 
REMARK   11  A    between atoms: C9_43  and  O20_54 
REMARK   12  A    between atoms: N11_45  and  C16_50 
REMARK   13  A    between atoms: O20_54  and  C21_55 
REMARK       I    between atoms: N26_60  and  C27_61 
REMARK   14  A    between atoms: C27_61  and  C28_62 
REMARK   15  A    between atoms: C30_64  and  C31_65 
REMARK   16  A    between atoms: C31_65  and  N32_66 
ROOT
HETATM    1  C1    D T1102      -6.526  22.688  -2.278  1.00167.82     0.200 A 
HETATM    2  N2    D T1102      -6.390  21.870  -3.368  1.00157.47    -0.205 NA
HETATM    3  N3    D T1102      -7.374  22.298  -1.269  1.00173.48    -0.224 NA
HETATM    4  C4    D T1102      -7.072  20.681  -3.481  1.00150.96     0.166 A 
HETATM    5  C5    D T1102      -8.071  21.111  -1.353  1.00165.96     0.088 A 
HETATM    6  C6    D T1102      -7.936  20.276  -2.460  1.00156.68     0.055 A 
HETATM    7  C7    D T1102      -9.499  18.749  -1.424  1.00160.55     0.107 A 
HETATM    8  C8    D T1102      -8.663  19.080  -2.488  1.00153.79     0.026 A 
HETATM    9  C9    D T1102      -9.625  19.593  -0.331  1.00170.20     0.113 A 
HETATM   10  C10   D T1102      -8.905  20.779  -0.301  1.00172.41     0.045 A 
ENDROOT
BRANCH   4  11
HETATM   11  N11   D T1102      -6.842  19.899  -4.636  1.00145.03    -0.227 NA
BRANCH  11  12
HETATM   12  C16   D T1102      -5.678  19.108  -4.878  1.00141.31     0.084 A 
HETATM   13  C14   D T1102      -5.002  18.324  -3.936  1.00146.64     0.033 A 
HETATM   14  C12   D T1102      -3.880  17.599  -4.303  1.00142.41     0.087 A 
HETATM   15  C13   D T1102      -3.424  17.646  -5.603  1.00133.30     0.151 A 
HETATM   16 CL1    D T1102      -3.046  16.635  -3.146  1.00149.27    -0.080 Cl
HETATM   17  C15   D T1102      -4.078  18.415  -6.543  1.00130.36     0.032 A 
HETATM   18  F18   D T1102      -2.356  16.956  -5.953  1.00132.33    -0.203 F 
HETATM   19  C17   D T1102      -5.198  19.136  -6.180  1.00135.39     0.021 A 
ENDBRANCH  11  12
ENDBRANCH   4  11
BRANCH   7  20
HETATM   20  N26   D T1102     -10.275  17.568  -1.343  1.00157.15    -0.206 NA
HETATM   21  C27   D T1102      -9.989  16.216  -1.481  1.00156.15     0.279 C 
HETATM   22  O29   D T1102      -8.900  15.744  -1.746  1.00144.00    -0.265 OA
BRANCH  21  23
HETATM   23  C28   D T1102     -11.206  15.394  -1.292  1.00162.13     0.060 C 
HETATM   24  C30   D T1102     -12.446  15.869  -1.141  1.00160.84     0.014 C 
BRANCH  24  25
HETATM   25  C31   D T1102     -13.503  14.789  -0.943  1.00169.44     0.277 C 
BRANCH  25  26
HETATM   26  N32   D T1102     -14.126  14.796   0.382  1.00171.25     0.146 N 
HETATM   27  C33   D T1102     -14.666  16.129   0.714  1.00165.61     0.286 C 
HETATM   28  C34   D T1102     -15.225  13.824   0.399  1.00180.89     0.286 C 
ENDBRANCH  25  26
ENDBRANCH  24  25
ENDBRANCH  21  23
ENDBRANCH   7  20
BRANCH   9  29
HETATM   29  O20   D T1102     -10.473  19.189   0.671  1.00178.70    -0.329 OA
BRANCH  29  30
HETATM   30  C21   D T1102     -10.126  18.763   1.989  1.00194.33     0.153 C 
HETATM   31  C22   D T1102      -8.668  18.293   2.055  1.00198.27     0.172 C 
HETATM   32  O23   D T1102      -8.643  16.916   1.674  1.00206.62    -0.352 OA
HETATM   33  C24   D T1102      -9.878  16.376   2.138  1.00213.68     0.145 C 
HETATM   34  C25   D T1102     -10.853  17.514   2.402  1.00205.93     0.065 C 
ENDBRANCH  29  30
ENDBRANCH   9  29
TORSDOF 16
ENDMDL
MODEL 5
REMARK VINA RESULT:    -5.296     12.955     19.271
REMARK INTER + INTRA:          -9.512
REMARK INTER:                  -8.396
REMARK INTRA:                  -1.116
REMARK UNBOUND:                -1.739
REMARK  16 active torsions:
REMARK  status: ('A' for Active; 'I' for Inactive)
REMARK    1  A    between atoms: C4_4  and  N11_11 
REMARK    2  A    between atoms: C7_7  and  N26_26 
REMARK    3  A    between atoms: C9_9  and  O20_20 
REMARK    4  A    between atoms: N11_11  and  C16_16 
REMARK    5  A    between atoms: O20_20  and  C21_21 
REMARK       I    between atoms: N26_26  and  C27_27 
REMARK    6  A    between atoms: C27_27  and  C28_28 
REMARK    7  A    between atoms: C30_30  and  C31_31 
REMARK    8  A    between atoms: C31_31  and  N32_32 
REMARK    9  A    between atoms: C4_38  and  N11_45 
REMARK   10  A    between atoms: C7_41  and  N26_60 
REMARK   11  A    between atoms: C9_43  and  O20_54 
REMARK   12  A    between atoms: N11_45  and  C16_50 
REMARK   13  A    between atoms: O20_54  and  C21_55 
REMARK       I    between atoms: N26_60  and  C27_61 
REMARK   14  A    between atoms: C27_61  and  C28_62 
REMARK   15  A    between atoms: C30_64  and  C31_65 
REMARK   16  A    between atoms: C31_65  and  N32_66 
ROOT
HETATM    1  C1    D T1102     -14.499  12.536 -15.440  1.00167.82     0.200 A 
HETATM    2  N2    D T1102     -15.057  11.747 -14.470  1.00157.47    -0.205 NA
HETATM    3  N3    D T1102     -13.740  13.614 -15.053  1.00173.48    -0.224 NA
HETATM    4  C4    D T1102     -14.880  12.001 -13.129  1.00150.96     0.166 A 
HETATM    5  C5    D T1102     -13.545  13.894 -13.717  1.00165.96     0.088 A 
HETATM    6  C6    D T1102     -14.109  13.094 -12.725  1.00156.68     0.055 A 
HETATM    7  C7    D T1102     -13.086  14.528 -11.068  1.00160.55     0.107 A 
HETATM    8  C8    D T1102     -13.872  13.423 -11.385  1.00153.79     0.026 A 
HETATM    9  C9    D T1102     -12.533  15.316 -12.067  1.00170.20     0.113 A 
HETATM   10  C10   D T1102     -12.768  14.992 -13.397  1.00172.41     0.045 A 
ENDROOT
BRANCH   4  11
HETATM   11  N11   D T1102     -15.478  11.111 -12.208  1.00145.03    -0.227 NA
BRANCH  11  12
HETATM   12  C16   D T1102     -14.977   9.819 -11.866  1.00141.31     0.084 A 
HETATM   13  C14   D T1102     -15.744   8.702 -11.513  1.00146.64     0.033 A 
HETATM   14  C12   D T1102     -15.130   7.499 -11.205  1.00142.41     0.087 A 
HETATM   15  C13   D T1102     -13.756   7.396 -11.247  1.00133.30     0.151 A 
HETATM   16 CL1    D T1102     -16.071   6.126 -10.768  1.00149.27    -0.080 Cl
HETATM   17  C15   D T1102     -12.986   8.487 -11.591  1.00130.36     0.032 A 
HETATM   18  F18   D T1102     -13.172   6.251 -10.953  1.00132.33    -0.203 F 
HETATM   19  C17   D T1102     -13.596   9.687 -11.902  1.00135.39     0.021 A 
ENDBRANCH  11  12
ENDBRANCH   4  11
BRANCH   7  20
HETATM   20  N26   D T1102     -12.775  14.949  -9.753  1.00157.15    -0.206 NA
HETATM   21  C27   D T1102     -12.784  14.323  -8.514  1.00156.15     0.279 C 
HETATM   22  O29   D T1102     -13.114  13.172  -8.302  1.00144.00    -0.265 OA
BRANCH  21  23
HETATM   23  C28   D T1102     -12.359  15.256  -7.446  1.00162.13     0.060 C 
HETATM   24  C30   D T1102     -11.157  15.833  -7.353  1.00160.84     0.014 C 
BRANCH  24  25
HETATM   25  C31   D T1102     -10.993  16.732  -6.134  1.00169.44     0.277 C 
BRANCH  25  26
HETATM   26  N32   D T1102     -10.193  17.934  -6.380  1.00171.25     0.146 N 
HETATM   27  C33   D T1102      -9.504  18.378  -5.153  1.00165.61     0.286 C 
HETATM   28  C34   D T1102      -9.188  17.639  -7.406  1.00180.89     0.286 C 
ENDBRANCH  25  26
ENDBRANCH  24  25
ENDBRANCH  21  23
ENDBRANCH   7  20
BRANCH   9  29
HETATM   29  O20   D T1102     -11.775  16.387 -11.665  1.00178.70    -0.329 OA
BRANCH  29  30
HETATM   30  C21   D T1102     -10.380  16.401 -11.354  1.00194.33     0.153 C 
HETATM   31  C22   D T1102      -9.752  17.760 -11.684  1.00198.27     0.172 C 
HETATM   32  O23   D T1102      -9.377  17.736 -13.062  1.00206.62    -0.352 OA
HETATM   33  C24   D T1102      -9.008  16.385 -13.327  1.00213.68     0.145 C 
HETATM   34  C25   D T1102      -9.582  15.488 -12.242  1.00205.93     0.065 C 
ENDBRANCH  29  30
ENDBRANCH   9  29
TORSDOF 16
ENDMDL
MODEL 6
REMARK VINA RESULT:    -5.287      5.204      8.190
REMARK INTER + INTRA:          -9.499
REMARK INTER:                  -8.022
REMARK INTRA:                  -1.477
REMARK UNBOUND:                -1.739
REMARK  16 active torsions:
REMARK  status: ('A' for Active; 'I' for Inactive)
REMARK    1  A    between atoms: C4_4  and  N11_11 
REMARK    2  A    between atoms: C7_7  and  N26_26 
REMARK    3  A    between atoms: C9_9  and  O20_20 
REMARK    4  A    between atoms: N11_11  and  C16_16 
REMARK    5  A    between atoms: O20_20  and  C21_21 
REMARK       I    between atoms: N26_26  and  C27_27 
REMARK    6  A    between atoms: C27_27  and  C28_28 
REMARK    7  A    between atoms: C30_30  and  C31_31 
REMARK    8  A    between atoms: C31_31  and  N32_32 
REMARK    9  A    between atoms: C4_38  and  N11_45 
REMARK   10  A    between atoms: C7_41  and  N26_60 
REMARK   11  A    between atoms: C9_43  and  O20_54 
REMARK   12  A    between atoms: N11_45  and  C16_50 
REMARK   13  A    between atoms: O20_54  and  C21_55 
REMARK       I    between atoms: N26_60  and  C27_61 
REMARK   14  A    between atoms: C27_61  and  C28_62 
REMARK   15  A    between atoms: C30_64  and  C31_65 
REMARK   16  A    between atoms: C31_65  and  N32_66 
ROOT
HETATM    1  C1    D T1102      -2.797  20.233  -7.157  1.00167.82     0.200 A 
HETATM    2  N2    D T1102      -2.292  20.139  -5.888  1.00157.47    -0.205 NA
HETATM    3  N3    D T1102      -4.117  19.912  -7.363  1.00173.48    -0.224 NA
HETATM    4  C4    D T1102      -3.062  19.735  -4.822  1.00150.96     0.166 A 
HETATM    5  C5    D T1102      -4.914  19.504  -6.314  1.00165.96     0.088 A 
HETATM    6  C6    D T1102      -4.406  19.408  -5.020  1.00156.68     0.055 A 
HETATM    7  C7    D T1102      -6.593  18.692  -4.277  1.00160.55     0.107 A 
HETATM    8  C8    D T1102      -5.263  18.995  -3.994  1.00153.79     0.026 A 
HETATM    9  C9    D T1102      -7.083  18.790  -5.571  1.00170.20     0.113 A 
HETATM   10  C10   D T1102      -6.235  19.200  -6.590  1.00172.41     0.045 A 
ENDROOT
BRANCH   4  11
HETATM   11  N11   D T1102      -2.450  19.695  -3.548  1.00145.03    -0.227 NA
BRANCH  11  12
HETATM   12  C16   D T1102      -2.296  20.812  -2.672  1.00141.31     0.084 A 
HETATM   13  C14   D T1102      -3.264  21.312  -1.793  1.00146.64     0.033 A 
HETATM   14  C12   D T1102      -2.985  22.407  -0.991  1.00142.41     0.087 A 
HETATM   15  C13   D T1102      -1.747  23.010  -1.055  1.00133.30     0.151 A 
HETATM   16 CL1    D T1102      -4.174  23.024   0.089  1.00149.27    -0.080 Cl
HETATM   17  C15   D T1102      -0.782  22.531  -1.918  1.00130.36     0.032 A 
HETATM   18  F18   D T1102      -1.480  24.052  -0.293  1.00132.33    -0.203 F 
HETATM   19  C17   D T1102      -1.058  21.437  -2.716  1.00135.39     0.021 A 
ENDBRANCH  11  12
ENDBRANCH   4  11
BRANCH   7  20
HETATM   20  N26   D T1102      -7.548  18.271  -3.321  1.00157.15    -0.206 NA
HETATM   21  C27   D T1102      -8.322  18.933  -2.377  1.00156.15     0.279 C 
HETATM   22  O29   D T1102      -8.307  20.130  -2.160  1.00144.00    -0.265 OA
BRANCH  21  23
HETATM   23  C28   D T1102      -9.170  17.982  -1.624  1.00162.13     0.060 C 
HETATM   24  C30   D T1102      -9.243  16.666  -1.846  1.00160.84     0.014 C 
BRANCH  24  25
HETATM   25  C31   D T1102     -10.217  15.936  -0.930  1.00169.44     0.277 C 
BRANCH  25  26
HETATM   26  N32   D T1102      -9.621  14.826  -0.183  1.00171.25     0.146 N 
HETATM   27  C33   D T1102      -8.548  14.174  -0.958  1.00165.61     0.286 C 
HETATM   28  C34   D T1102      -9.054  15.341   1.068  1.00180.89     0.286 C 
ENDBRANCH  25  26
ENDBRANCH  24  25
ENDBRANCH  21  23
ENDBRANCH   7  20
BRANCH   9  29
HETATM   29  O20   D T1102      -8.405  18.470  -5.760  1.00178.70    -0.329 OA
BRANCH  29  30
HETATM   30  C21   D T1102      -9.156  18.544  -6.972  1.00194.33     0.153 C 
HETATM   31  C22   D T1102     -10.661  18.613  -6.690  1.00198.27     0.172 C 
HETATM   32  O23   D T1102     -11.134  17.271  -6.556  1.00206.62    -0.352 OA
HETATM   33  C24   D T1102     -10.329  16.499  -7.443  1.00213.68     0.145 C 
HETATM   34  C25   D T1102      -9.069  17.281  -7.783  1.00205.93     0.065 C 
ENDBRANCH  29  30
ENDBRANCH   9  29
TORSDOF 16
ENDMDL
MODEL 7
REMARK VINA RESULT:    -5.285     10.480     14.233
REMARK INTER + INTRA:          -9.495
REMARK INTER:                  -7.873
REMARK INTRA:                  -1.622
REMARK UNBOUND:                -1.739
REMARK  16 active torsions:
REMARK  status: ('A' for Active; 'I' for Inactive)
REMARK    1  A    between atoms: C4_4  and  N11_11 
REMARK    2  A    between atoms: C7_7  and  N26_26 
REMARK    3  A    between atoms: C9_9  and  O20_20 
REMARK    4  A    between atoms: N11_11  and  C16_16 
REMARK    5  A    between atoms: O20_20  and  C21_21 
REMARK       I    between atoms: N26_26  and  C27_27 
REMARK    6  A    between atoms: C27_27  and  C28_28 
REMARK    7  A    between atoms: C30_30  and  C31_31 
REMARK    8  A    between atoms: C31_31  and  N32_32 
REMARK    9  A    between atoms: C4_38  and  N11_45 
REMARK   10  A    between atoms: C7_41  and  N26_60 
REMARK   11  A    between atoms: C9_43  and  O20_54 
REMARK   12  A    between atoms: N11_45  and  C16_50 
REMARK   13  A    between atoms: O20_54  and  C21_55 
REMARK       I    between atoms: N26_60  and  C27_61 
REMARK   14  A    between atoms: C27_61  and  C28_62 
REMARK   15  A    between atoms: C30_64  and  C31_65 
REMARK   16  A    between atoms: C31_65  and  N32_66 
ROOT
HETATM    1  C1    D T1102      -7.536  19.003  -5.536  1.00167.82     0.200 A 
HETATM    2  N2    D T1102      -8.736  18.921  -6.191  1.00157.47    -0.205 NA
HETATM    3  N3    D T1102      -7.427  18.424  -4.295  1.00173.48    -0.224 NA
HETATM    4  C4    D T1102      -9.826  18.283  -5.645  1.00150.96     0.166 A 
HETATM    5  C5    D T1102      -8.502  17.778  -3.721  1.00165.96     0.088 A 
HETATM    6  C6    D T1102      -9.724  17.691  -4.383  1.00156.68     0.055 A 
HETATM    7  C7    D T1102     -10.591  16.449  -2.497  1.00160.55     0.107 A 
HETATM    8  C8    D T1102     -10.778  17.016  -3.756  1.00153.79     0.026 A 
HETATM    9  C9    D T1102      -9.368  16.546  -1.850  1.00170.20     0.113 A 
HETATM   10  C10   D T1102      -8.321  17.215  -2.471  1.00172.41     0.045 A 
ENDROOT
BRANCH   4  11
HETATM   11  N11   D T1102     -11.012  18.234  -6.414  1.00145.03    -0.227 NA
BRANCH  11  12
HETATM   12  C16   D T1102     -11.241  17.362  -7.520  1.00141.31     0.084 A 
HETATM   13  C14   D T1102     -11.989  16.179  -7.499  1.00146.64     0.033 A 
HETATM   14  C12   D T1102     -12.137  15.422  -8.649  1.00142.41     0.087 A 
HETATM   15  C13   D T1102     -11.546  15.832  -9.826  1.00133.30     0.151 A 
HETATM   16 CL1    D T1102     -13.055  13.966  -8.625  1.00149.27    -0.080 Cl
HETATM   17  C15   D T1102     -10.804  16.995  -9.863  1.00130.36     0.032 A 
HETATM   18  F18   D T1102     -11.686  15.112 -10.921  1.00132.33    -0.203 F 
HETATM   19  C17   D T1102     -10.658  17.753  -8.718  1.00135.39     0.021 A 
ENDBRANCH  11  12
ENDBRANCH   4  11
BRANCH   7  20
HETATM   20  N26   D T1102     -11.580  15.742  -1.774  1.00157.15    -0.206 NA
HETATM   21  C27   D T1102     -12.864  16.049  -1.346  1.00156.15     0.279 C 
HETATM   22  O29   D T1102     -13.435  17.110  -1.516  1.00144.00    -0.265 OA
BRANCH  21  23
HETATM   23  C28   D T1102     -13.465  14.913  -0.611  1.00162.13     0.060 C 
HETATM   24  C30   D T1102     -14.747  14.539  -0.674  1.00160.84     0.014 C 
BRANCH  24  25
HETATM   25  C31   D T1102     -15.089  13.345   0.207  1.00169.44     0.277 C 
BRANCH  25  26
HETATM   26  N32   D T1102     -16.110  12.458  -0.355  1.00171.25     0.146 N 
HETATM   27  C33   D T1102     -16.287  12.693  -1.801  1.00165.61     0.286 C 
HETATM   28  C34   D T1102     -15.700  11.065  -0.149  1.00180.89     0.286 C 
ENDBRANCH  25  26
ENDBRANCH  24  25
ENDBRANCH  21  23
ENDBRANCH   7  20
BRANCH   9  29
HETATM   29  O20   D T1102      -9.273  15.961  -0.612  1.00178.70    -0.329 OA
BRANCH  29  30
HETATM   30  C21   D T1102      -9.095  16.609   0.648  1.00194.33     0.153 C 
HETATM   31  C22   D T1102      -9.809  15.846   1.770  1.00198.27     0.172 C 
HETATM   32  O23   D T1102     -11.164  16.299   1.802  1.00206.62    -0.352 OA
HETATM   33  C24   D T1102     -11.111  17.670   1.417  1.00213.68     0.145 C 
HETATM   34  C25   D T1102      -9.789  17.941   0.715  1.00205.93     0.065 C 
ENDBRANCH  29  30
ENDBRANCH   9  29
TORSDOF 16
ENDMDL
MODEL 8
REMARK VINA RESULT:    -5.280     15.795     19.491
REMARK INTER + INTRA:          -9.488
REMARK INTER:                  -7.657
REMARK INTRA:                  -1.831
REMARK UNBOUND:                -1.739
REMARK  16 active torsions:
REMARK  status: ('A' for Active; 'I' for Inactive)
REMARK    1  A    between atoms: C4_4  and  N11_11 
REMARK    2  A    between atoms: C7_7  and  N26_26 
REMARK    3  A    between atoms: C9_9  and  O20_20 
REMARK    4  A    between atoms: N11_11  and  C16_16 
REMARK    5  A    between atoms: O20_20  and  C21_21 
REMARK       I    between atoms: N26_26  and  C27_27 
REMARK    6  A    between atoms: C27_27  and  C28_28 
REMARK    7  A    between atoms: C30_30  and  C31_31 
REMARK    8  A    between atoms: C31_31  and  N32_32 
REMARK    9  A    between atoms: C4_38  and  N11_45 
REMARK   10  A    between atoms: C7_41  and  N26_60 
REMARK   11  A    between atoms: C9_43  and  O20_54 
REMARK   12  A    between atoms: N11_45  and  C16_50 
REMARK   13  A    between atoms: O20_54  and  C21_55 
REMARK       I    between atoms: N26_60  and  C27_61 
REMARK   14  A    between atoms: C27_61  and  C28_62 
REMARK   15  A    between atoms: C30_64  and  C31_65 
REMARK   16  A    between atoms: C31_65  and  N32_66 
ROOT
HETATM    1  C1    D T1102      -8.279  18.136 -16.268  1.00167.82     0.200 A 
HETATM    2  N2    D T1102      -8.305  17.606 -15.006  1.00157.47    -0.205 NA
HETATM    3  N3    D T1102      -8.268  17.276 -17.340  1.00173.48    -0.224 NA
HETATM    4  C4    D T1102      -8.319  16.248 -14.783  1.00150.96     0.166 A 
HETATM    5  C5    D T1102      -8.281  15.911 -17.148  1.00165.96     0.088 A 
HETATM    6  C6    D T1102      -8.308  15.366 -15.866  1.00156.68     0.055 A 
HETATM    7  C7    D T1102      -8.321  13.164 -16.866  1.00160.55     0.107 A 
HETATM    8  C8    D T1102      -8.328  13.972 -15.732  1.00153.79     0.026 A 
HETATM    9  C9    D T1102      -8.291  13.722 -18.136  1.00170.20     0.113 A 
HETATM   10  C10   D T1102      -8.271  15.103 -18.271  1.00172.41     0.045 A 
ENDROOT
BRANCH   4  11
HETATM   11  N11   D T1102      -8.369  15.804 -13.442  1.00145.03    -0.227 NA
BRANCH  11  12
HETATM   12  C16   D T1102      -9.529  15.826 -12.610  1.00141.31     0.084 A 
HETATM   13  C14   D T1102      -9.571  16.192 -11.260  1.00146.64     0.033 A 
HETATM   14  C12   D T1102     -10.768  16.173 -10.564  1.00142.41     0.087 A 
HETATM   15  C13   D T1102     -11.930  15.792 -11.201  1.00133.30     0.151 A 
HETATM   16 CL1    D T1102     -10.821  16.622  -8.903  1.00149.27    -0.080 Cl
HETATM   17  C15   D T1102     -11.906  15.426 -12.532  1.00130.36     0.032 A 
HETATM   18  F18   D T1102     -13.070  15.773 -10.540  1.00132.33    -0.203 F 
HETATM   19  C17   D T1102     -10.714  15.449 -13.228  1.00135.39     0.021 A 
ENDBRANCH  11  12
ENDBRANCH   4  11
BRANCH   7  20
HETATM   20  N26   D T1102      -8.344  11.749 -16.850  1.00157.15    -0.206 NA
HETATM   21  C27   D T1102      -7.482  10.777 -16.362  1.00156.15     0.279 C 
HETATM   22  O29   D T1102      -6.418  10.983 -15.811  1.00144.00    -0.265 OA
BRANCH  21  23
HETATM   23  C28   D T1102      -8.012   9.419 -16.622  1.00162.13     0.060 C 
HETATM   24  C30   D T1102      -8.977   9.118 -17.496  1.00160.84     0.014 C 
BRANCH  24  25
HETATM   25  C31   D T1102      -9.334   7.637 -17.539  1.00169.44     0.277 C 
BRANCH  25  26
HETATM   26  N32   D T1102     -10.661   7.356 -18.093  1.00171.25     0.146 N 
HETATM   27  C33   D T1102     -11.127   6.009 -17.711  1.00165.61     0.286 C 
HETATM   28  C34   D T1102     -11.612   8.348 -17.580  1.00180.89     0.286 C 
ENDBRANCH  25  26
ENDBRANCH  24  25
ENDBRANCH  21  23
ENDBRANCH   7  20
BRANCH   9  29
HETATM   29  O20   D T1102      -8.283  12.851 -19.197  1.00178.70    -0.329 OA
BRANCH  29  30
HETATM   30  C21   D T1102      -7.247  12.658 -20.161  1.00194.33     0.153 C 
HETATM   31  C22   D T1102      -7.313  11.255 -20.775  1.00198.27     0.172 C 
HETATM   32  O23   D T1102      -6.586  10.376 -19.915  1.00206.62    -0.352 OA
HETATM   33  C24   D T1102      -5.534  11.168 -19.371  1.00213.68     0.145 C 
HETATM   34  C25   D T1102      -5.878  12.640 -19.540  1.00205.93     0.065 C 
ENDBRANCH  29  30
ENDBRANCH   9  29
TORSDOF 16
ENDMDL
MODEL 9
REMARK VINA RESULT:    -5.208     14.466     16.804
REMARK INTER + INTRA:          -9.383
REMARK INTER:                  -8.120
REMARK INTRA:                  -1.263
REMARK UNBOUND:                -1.739
REMARK  16 active torsions:
REMARK  status: ('A' for Active; 'I' for Inactive)
REMARK    1  A    between atoms: C4_4  and  N11_11 
REMARK    2  A    between atoms: C7_7  and  N26_26 
REMARK    3  A    between atoms: C9_9  and  O20_20 
REMARK    4  A    between atoms: N11_11  and  C16_16 
REMARK    5  A    between atoms: O20_20  and  C21_21 
REMARK       I    between atoms: N26_26  and  C27_27 
REMARK    6  A    between atoms: C27_27  and  C28_28 
REMARK    7  A    between atoms: C30_30  and  C31_31 
REMARK    8  A    between atoms: C31_31  and  N32_32 
REMARK    9  A    between atoms: C4_38  and  N11_45 
REMARK   10  A    between atoms: C7_41  and  N26_60 
REMARK   11  A    between atoms: C9_43  and  O20_54 
REMARK   12  A    between atoms: N11_45  and  C16_50 
REMARK   13  A    between atoms: O20_54  and  C21_55 
REMARK       I    between atoms: N26_60  and  C27_61 
REMARK   14  A    between atoms: C27_61  and  C28_62 
REMARK   15  A    between atoms: C30_64  and  C31_65 
REMARK   16  A    between atoms: C31_65  and  N32_66 
ROOT
HETATM    1  C1    D T1102     -10.281  19.618 -11.397  1.00167.82     0.200 A 
HETATM    2  N2    D T1102     -10.561  18.408 -10.820  1.00157.47    -0.205 NA
HETATM    3  N3    D T1102      -9.593  19.633 -12.587  1.00173.48    -0.224 NA
HETATM    4  C4    D T1102     -10.175  17.218 -11.391  1.00150.96     0.166 A 
HETATM    5  C5    D T1102      -9.193  18.455 -13.184  1.00165.96     0.088 A 
HETATM    6  C6    D T1102      -9.475  17.222 -12.600  1.00156.68     0.055 A 
HETATM    7  C7    D T1102      -8.362  16.153 -14.462  1.00160.55     0.107 A 
HETATM    8  C8    D T1102      -9.051  16.060 -13.255  1.00153.79     0.026 A 
HETATM    9  C9    D T1102      -8.086  17.389 -15.029  1.00170.20     0.113 A 
HETATM   10  C10   D T1102      -8.507  18.542 -14.381  1.00172.41     0.045 A 
ENDROOT
BRANCH   4  11
HETATM   11  N11   D T1102     -10.534  16.024 -10.725  1.00145.03    -0.227 NA
BRANCH  11  12
HETATM   12  C16   D T1102     -11.199  15.951  -9.464  1.00141.31     0.084 A 
HETATM   13  C14   D T1102     -10.629  16.216  -8.213  1.00146.64     0.033 A 
HETATM   14  C12   D T1102     -11.389  16.111  -7.060  1.00142.41     0.087 A 
HETATM   15  C13   D T1102     -12.716  15.745  -7.139  1.00133.30     0.151 A 
HETATM   16 CL1    D T1102     -10.690  16.435  -5.521  1.00149.27    -0.080 Cl
HETATM   17  C15   D T1102     -13.292  15.479  -8.364  1.00130.36     0.032 A 
HETATM   18  F18   D T1102     -13.439  15.645  -6.042  1.00132.33    -0.203 F 
HETATM   19  C17   D T1102     -12.537  15.586  -9.515  1.00135.39     0.021 A 
ENDBRANCH  11  12
ENDBRANCH   4  11
BRANCH   7  20
HETATM   20  N26   D T1102      -7.892  15.048 -15.212  1.00157.15    -0.206 NA
HETATM   21  C27   D T1102      -8.511  14.075 -15.985  1.00156.15     0.279 C 
HETATM   22  O29   D T1102      -9.709  13.968 -16.167  1.00144.00    -0.265 OA
BRANCH  21  23
HETATM   23  C28   D T1102      -7.517  13.138 -16.555  1.00162.13     0.060 C 
HETATM   24  C30   D T1102      -7.200  11.942 -16.051  1.00160.84     0.014 C 
BRANCH  24  25
HETATM   25  C31   D T1102      -6.125  11.202 -16.837  1.00169.44     0.277 C 
BRANCH  25  26
HETATM   26  N32   D T1102      -6.401   9.777 -17.035  1.00171.25     0.146 N 
HETATM   27  C33   D T1102      -7.799   9.450 -16.696  1.00165.61     0.286 C 
HETATM   28  C34   D T1102      -6.163   9.435 -18.441  1.00180.89     0.286 C 
ENDBRANCH  25  26
ENDBRANCH  24  25
ENDBRANCH  21  23
ENDBRANCH   7  20
BRANCH   9  29
HETATM   29  O20   D T1102      -7.401  17.387 -16.218  1.00178.70    -0.329 OA
BRANCH  29  30
HETATM   30  C21   D T1102      -7.768  18.035 -17.437  1.00194.33     0.153 C 
HETATM   31  C22   D T1102      -8.553  17.091 -18.355  1.00198.27     0.172 C 
HETATM   32  O23   D T1102      -7.602  16.343 -19.115  1.00206.62    -0.352 OA
HETATM   33  C24   D T1102      -6.502  17.227 -19.315  1.00213.68     0.145 C 
HETATM   34  C25   D T1102      -6.579  18.357 -18.299  1.00205.93     0.065 C 
ENDBRANCH  29  30
ENDBRANCH   9  29
TORSDOF 16
ENDMDL
