MODEL 1
REMARK VINA RESULT:    -8.085      0.000      0.000
REMARK INTER + INTRA:         -10.057
REMARK INTER:                  -9.503
REMARK INTRA:                  -0.554
REMARK UNBOUND:                -0.554
REMARK  3 active torsions:
REMARK  status: ('A' for Active; 'I' for Inactive)
REMARK    1  A    between atoms: C2_2  and  O11_20 
REMARK    2  A    between atoms: C10_10  and  N14_11 
REMARK    3  A    between atoms: N14_11  and  C15_12 
ROOT
HETATM    1  C1    D T9001       5.145  15.358  -1.274  1.00 83.47     0.092 A 
HETATM    2  C2    D T9001       6.301  15.637  -0.474  1.00 83.68     0.109 A 
HETATM    3  C3    D T9001       6.538  14.886   0.726  1.00 82.47     0.044 A 
HETATM    4  C4    D T9001       5.673  13.873   1.159  1.00 82.50     0.088 A 
HETATM    5  C5    D T9001       4.500  13.576   0.369  1.00 84.12     0.055 A 
HETATM    6  C6    D T9001       4.256  14.332  -0.844  1.00 83.53     0.021 A 
HETATM    7  N7    D T9001       5.981  13.214   2.309  1.00 81.78    -0.224 NA
HETATM    8  C8    D T9001       5.132  12.233   2.708  1.00 83.59     0.200 A 
HETATM    9  N9    D T9001       4.001  11.853   2.067  1.00 84.30    -0.205 NA
HETATM   10  C10   D T9001       3.673  12.519   0.891  1.00 85.59     0.166 A 
HETATM   11  N13   D T9001       4.878  16.073  -2.465  1.00 82.67    -0.099 NA
ENDROOT
BRANCH  10  12
HETATM   12  N14   D T9001       2.476  12.143   0.184  1.00 86.44    -0.227 NA
BRANCH  12  13
HETATM   13  C15   D T9001       1.165  12.653   0.401  1.00 87.38     0.084 A 
HETATM   14  C16   D T9001       0.180  12.655  -0.640  1.00 88.13     0.033 A 
HETATM   15  C17   D T9001      -1.119  13.170  -0.420  1.00 88.88     0.087 A 
HETATM   16  C18   D T9001      -1.453  13.696   0.856  1.00 88.55     0.151 A 
HETATM   17 CL     D T9001      -2.265  13.152  -1.716  1.00 89.26    -0.080 Cl
HETATM   18  C19   D T9001      -0.497  13.705   1.912  1.00 87.62     0.032 A 
HETATM   19  F21   D T9001      -2.681  14.192   1.082  1.00 88.92    -0.203 F 
HETATM   20  C20   D T9001       0.809  13.187   1.686  1.00 87.82     0.021 A 
ENDBRANCH  12  13
ENDBRANCH  10  12
BRANCH   2  21
HETATM   21  O11   D T9001       7.128  16.649  -0.954  1.00 85.44    -0.327 OA
HETATM   22  C12   D T9001       8.425  16.287  -1.440  1.00 84.41     0.181 C 
ENDBRANCH   2  21
TORSDOF 3
ENDMDL
MODEL 2
REMARK VINA RESULT:    -7.836      2.674      3.447
REMARK INTER + INTRA:          -9.765
REMARK INTER:                  -9.397
REMARK INTRA:                  -0.368
REMARK UNBOUND:                -0.554
REMARK  3 active torsions:
REMARK  status: ('A' for Active; 'I' for Inactive)
REMARK    1  A    between atoms: C2_2  and  O11_20 
REMARK    2  A    between atoms: C10_10  and  N14_11 
REMARK    3  A    between atoms: N14_11  and  C15_12 
ROOT
HETATM    1  C1    D T9001       6.797  12.930   2.064  1.00 83.47     0.092 A 
HETATM    2  C2    D T9001       7.291  11.993   3.030  1.00 83.68     0.109 A 
HETATM    3  C3    D T9001       6.401  11.026   3.607  1.00 82.47     0.044 A 
HETATM    4  C4    D T9001       5.045  10.956   3.264  1.00 82.50     0.088 A 
HETATM    5  C5    D T9001       4.525  11.893   2.293  1.00 84.12     0.055 A 
HETATM    6  C6    D T9001       5.419  12.871   1.707  1.00 83.53     0.021 A 
HETATM    7  N7    D T9001       4.279  10.005   3.863  1.00 81.78    -0.224 NA
HETATM    8  C8    D T9001       2.969   9.951   3.512  1.00 83.59     0.200 A 
HETATM    9  N9    D T9001       2.352  10.764   2.622  1.00 84.30    -0.205 NA
HETATM   10  C10   D T9001       3.123  11.743   2.002  1.00 85.59     0.166 A 
HETATM   11  N13   D T9001       7.642  13.896   1.469  1.00 82.67    -0.099 NA
ENDROOT
BRANCH  10  12
HETATM   12  N14   D T9001       2.499  12.627   1.051  1.00 86.44    -0.227 NA
BRANCH  12  13
HETATM   13  C15   D T9001       1.128  13.005   1.015  1.00 87.38     0.084 A 
HETATM   14  C16   D T9001       0.321  12.790  -0.149  1.00 88.13     0.033 A 
HETATM   15  C17   D T9001      -1.039  13.175  -0.181  1.00 88.88     0.087 A 
HETATM   16  C18   D T9001      -1.617  13.788   0.963  1.00 88.55     0.151 A 
HETATM   17 CL     D T9001      -1.963  12.894  -1.617  1.00 89.26    -0.080 Cl
HETATM   18  C19   D T9001      -0.843  14.014   2.136  1.00 87.62     0.032 A 
HETATM   19  F21   D T9001      -2.907  14.163   0.949  1.00 88.92    -0.203 F 
HETATM   20  C20   D T9001       0.526  13.626   2.163  1.00 87.82     0.021 A 
ENDBRANCH  12  13
ENDBRANCH  10  12
BRANCH   2  21
HETATM   21  O11   D T9001       8.646  12.105   3.330  1.00 85.44    -0.327 OA
HETATM   22  C12   D T9001       9.308  10.969   3.895  1.00 84.41     0.181 C 
ENDBRANCH   2  21
TORSDOF 3
ENDMDL
MODEL 3
REMARK VINA RESULT:    -7.780      1.997      3.339
REMARK INTER + INTRA:          -9.699
REMARK INTER:                  -9.178
REMARK INTRA:                  -0.522
REMARK UNBOUND:                -0.554
REMARK  3 active torsions:
REMARK  status: ('A' for Active; 'I' for Inactive)
REMARK    1  A    between atoms: C2_2  and  O11_20 
REMARK    2  A    between atoms: C10_10  and  N14_11 
REMARK    3  A    between atoms: N14_11  and  C15_12 
ROOT
HETATM    1  C1    D T9001       6.368  11.936   2.508  1.00 83.47     0.092 A 
HETATM    2  C2    D T9001       7.439  12.861   2.283  1.00 83.68     0.109 A 
HETATM    3  C3    D T9001       7.290  13.904   1.308  1.00 82.47     0.044 A 
HETATM    4  C4    D T9001       6.122  14.060   0.550  1.00 82.50     0.088 A 
HETATM    5  C5    D T9001       5.030  13.136   0.759  1.00 84.12     0.055 A 
HETATM    6  C6    D T9001       5.176  12.082   1.743  1.00 83.53     0.021 A 
HETATM    7  N7    D T9001       6.072  15.079  -0.349  1.00 81.78    -0.224 NA
HETATM    8  C8    D T9001       4.930  15.215  -1.069  1.00 83.59     0.200 A 
HETATM    9  N9    D T9001       3.835  14.424  -0.977  1.00 84.30    -0.205 NA
HETATM   10  C10   D T9001       3.872  13.376  -0.062  1.00 85.59     0.166 A 
HETATM   11  N13   D T9001       6.475  10.897   3.462  1.00 82.67    -0.099 NA
ENDROOT
BRANCH  10  12
HETATM   12  N14   D T9001       2.725  12.514   0.062  1.00 86.44    -0.227 NA
BRANCH  12  13
HETATM   13  C15   D T9001       1.392  12.910   0.359  1.00 87.38     0.084 A 
HETATM   14  C16   D T9001       0.356  12.859  -0.630  1.00 88.13     0.033 A 
HETATM   15  C17   D T9001      -0.966  13.262  -0.329  1.00 88.88     0.087 A 
HETATM   16  C18   D T9001      -1.273  13.728   0.977  1.00 88.55     0.151 A 
HETATM   17 CL     D T9001      -2.174  13.182  -1.566  1.00 89.26    -0.080 Cl
HETATM   18  C19   D T9001      -0.267  13.789   1.982  1.00 87.62     0.032 A 
HETATM   19  F21   D T9001      -2.522  14.117   1.279  1.00 88.92    -0.203 F 
HETATM   20  C20   D T9001       1.063  13.383   1.675  1.00 87.82     0.021 A 
ENDBRANCH  12  13
ENDBRANCH  10  12
BRANCH   2  21
HETATM   21  O11   D T9001       8.573  12.662   3.066  1.00 85.44    -0.327 OA
HETATM   22  C12   D T9001       9.715  12.050   2.457  1.00 84.41     0.181 C 
ENDBRANCH   2  21
TORSDOF 3
ENDMDL
MODEL 4
REMARK VINA RESULT:    -7.607      3.789      5.232
REMARK INTER + INTRA:          -9.495
REMARK INTER:                  -8.904
REMARK INTRA:                  -0.592
REMARK UNBOUND:                -0.554
REMARK  3 active torsions:
REMARK  status: ('A' for Active; 'I' for Inactive)
REMARK    1  A    between atoms: C2_2  and  O11_20 
REMARK    2  A    between atoms: C10_10  and  N14_11 
REMARK    3  A    between atoms: N14_11  and  C15_12 
ROOT
HETATM    1  C1    D T9001       6.387  12.321   1.099  1.00 83.47     0.092 A 
HETATM    2  C2    D T9001       6.151  11.973   2.469  1.00 83.68     0.109 A 
HETATM    3  C3    D T9001       4.806  11.897   2.966  1.00 82.47     0.044 A 
HETATM    4  C4    D T9001       3.693  12.154   2.155  1.00 82.50     0.088 A 
HETATM    5  C5    D T9001       3.909  12.510   0.771  1.00 84.12     0.055 A 
HETATM    6  C6    D T9001       5.264  12.587   0.265  1.00 83.53     0.021 A 
HETATM    7  N7    D T9001       2.457  12.056   2.714  1.00 81.78    -0.224 NA
HETATM    8  C8    D T9001       1.392  12.305   1.910  1.00 83.59     0.200 A 
HETATM    9  N9    D T9001       1.448  12.647   0.601  1.00 84.30    -0.205 NA
HETATM   10  C10   D T9001       2.706  12.753   0.017  1.00 85.59     0.166 A 
HETATM   11  N13   D T9001       7.697  12.403   0.571  1.00 82.67    -0.099 NA
ENDROOT
BRANCH  10  12
HETATM   12  N14   D T9001       2.804  13.116  -1.373  1.00 86.44    -0.227 NA
BRANCH  12  13
HETATM   13  C15   D T9001       3.108  14.405  -1.895  1.00 87.38     0.084 A 
HETATM   14  C16   D T9001       4.226  14.616  -2.766  1.00 88.13     0.033 A 
HETATM   15  C17   D T9001       4.527  15.901  -3.275  1.00 88.88     0.087 A 
HETATM   16  C18   D T9001       3.707  17.003  -2.914  1.00 88.55     0.151 A 
HETATM   17 CL     D T9001       5.893  16.096  -4.320  1.00 89.26    -0.080 Cl
HETATM   18  C19   D T9001       2.588  16.826  -2.053  1.00 87.62     0.032 A 
HETATM   19  F21   D T9001       3.980  18.231  -3.386  1.00 88.92    -0.203 F 
HETATM   20  C20   D T9001       2.289  15.531  -1.542  1.00 87.82     0.021 A 
ENDBRANCH  12  13
ENDBRANCH  10  12
BRANCH   2  21
HETATM   21  O11   D T9001       7.293  11.724   3.226  1.00 85.44    -0.327 OA
HETATM   22  C12   D T9001       7.270  10.621   4.139  1.00 84.41     0.181 C 
ENDBRANCH   2  21
TORSDOF 3
ENDMDL
MODEL 5
REMARK VINA RESULT:    -7.558      3.640      5.358
REMARK INTER + INTRA:          -9.438
REMARK INTER:                  -8.840
REMARK INTRA:                  -0.598
REMARK UNBOUND:                -0.554
REMARK  3 active torsions:
REMARK  status: ('A' for Active; 'I' for Inactive)
REMARK    1  A    between atoms: C2_2  and  O11_20 
REMARK    2  A    between atoms: C10_10  and  N14_11 
REMARK    3  A    between atoms: N14_11  and  C15_12 
ROOT
HETATM    1  C1    D T9001       6.227  12.270   1.190  1.00 83.47     0.092 A 
HETATM    2  C2    D T9001       5.875  11.996   2.552  1.00 83.68     0.109 A 
HETATM    3  C3    D T9001       4.495  11.995   2.948  1.00 82.47     0.044 A 
HETATM    4  C4    D T9001       3.457  12.256   2.045  1.00 82.50     0.088 A 
HETATM    5  C5    D T9001       3.789  12.538   0.666  1.00 84.12     0.055 A 
HETATM    6  C6    D T9001       5.181  12.539   0.262  1.00 83.53     0.021 A 
HETATM    7  N7    D T9001       2.180  12.232   2.512  1.00 81.78    -0.224 NA
HETATM    8  C8    D T9001       1.188  12.483   1.619  1.00 83.59     0.200 A 
HETATM    9  N9    D T9001       1.356  12.761   0.304  1.00 84.30    -0.205 NA
HETATM   10  C10   D T9001       2.657  12.791  -0.187  1.00 85.59     0.166 A 
HETATM   11  N13   D T9001       7.575  12.277   0.760  1.00 82.67    -0.099 NA
ENDROOT
BRANCH  10  12
HETATM   12  N14   D T9001       2.873  13.085  -1.580  1.00 86.44    -0.227 NA
BRANCH  12  13
HETATM   13  C15   D T9001       3.360  14.306  -2.125  1.00 87.38     0.084 A 
HETATM   14  C16   D T9001       2.807  15.571  -1.741  1.00 88.13     0.033 A 
HETATM   15  C17   D T9001       3.290  16.781  -2.292  1.00 88.88     0.087 A 
HETATM   16  C18   D T9001       4.343  16.741  -3.245  1.00 88.55     0.151 A 
HETATM   17 CL     D T9001       2.579  18.278  -1.794  1.00 89.26    -0.080 Cl
HETATM   18  C19   D T9001       4.915  15.501  -3.644  1.00 87.62     0.032 A 
HETATM   19  F21   D T9001       4.812  17.880  -3.780  1.00 88.92    -0.203 F 
HETATM   20  C20   D T9001       4.425  14.286  -3.088  1.00 87.82     0.021 A 
ENDBRANCH  12  13
ENDBRANCH  10  12
BRANCH   2  21
HETATM   21  O11   D T9001       6.946  11.739   3.405  1.00 85.44    -0.327 OA
HETATM   22  C12   D T9001       7.117  10.402   3.889  1.00 84.41     0.181 C 
ENDBRANCH   2  21
TORSDOF 3
ENDMDL
MODEL 6
REMARK VINA RESULT:    -7.507      4.189      5.968
REMARK INTER + INTRA:          -9.378
REMARK INTER:                  -8.952
REMARK INTRA:                  -0.426
REMARK UNBOUND:                -0.554
REMARK  3 active torsions:
REMARK  status: ('A' for Active; 'I' for Inactive)
REMARK    1  A    between atoms: C2_2  and  O11_20 
REMARK    2  A    between atoms: C10_10  and  N14_11 
REMARK    3  A    between atoms: N14_11  and  C15_12 
ROOT
HETATM    1  C1    D T9001       4.602  16.605  -2.179  1.00 83.47     0.092 A 
HETATM    2  C2    D T9001       3.289  17.170  -2.282  1.00 83.68     0.109 A 
HETATM    3  C3    D T9001       2.145  16.396  -1.890  1.00 82.47     0.044 A 
HETATM    4  C4    D T9001       2.257  15.087  -1.402  1.00 82.50     0.088 A 
HETATM    5  C5    D T9001       3.572  14.497  -1.292  1.00 84.12     0.055 A 
HETATM    6  C6    D T9001       4.730  15.274  -1.687  1.00 83.53     0.021 A 
HETATM    7  N7    D T9001       1.117  14.433  -1.054  1.00 81.78    -0.224 NA
HETATM    8  C8    D T9001       1.248  13.168  -0.579  1.00 83.59     0.200 A 
HETATM    9  N9    D T9001       2.413  12.495  -0.425  1.00 84.30    -0.205 NA
HETATM   10  C10   D T9001       3.588  13.152  -0.779  1.00 85.59     0.166 A 
HETATM   11  N13   D T9001       5.755  17.335  -2.552  1.00 82.67    -0.099 NA
ENDROOT
BRANCH  10  12
HETATM   12  N14   D T9001       4.845  12.466  -0.630  1.00 86.44    -0.227 NA
BRANCH  12  13
HETATM   13  C15   D T9001       5.549  12.237   0.584  1.00 87.38     0.084 A 
HETATM   14  C16   D T9001       6.942  11.896   0.591  1.00 88.13     0.033 A 
HETATM   15  C17   D T9001       7.634  11.663   1.802  1.00 88.88     0.087 A 
HETATM   16  C18   D T9001       6.936  11.766   3.035  1.00 88.55     0.151 A 
HETATM   17 CL     D T9001       9.314  11.250   1.748  1.00 89.26    -0.080 Cl
HETATM   18  C19   D T9001       5.554  12.105   3.062  1.00 87.62     0.032 A 
HETATM   19  F21   D T9001       7.577  11.545   4.194  1.00 88.92    -0.203 F 
HETATM   20  C20   D T9001       4.861  12.338   1.841  1.00 87.82     0.021 A 
ENDBRANCH  12  13
ENDBRANCH  10  12
BRANCH   2  21
HETATM   21  O11   D T9001       3.238  18.474  -2.768  1.00 85.44    -0.327 OA
HETATM   22  C12   D T9001       2.388  19.410  -2.098  1.00 84.41     0.181 C 
ENDBRANCH   2  21
TORSDOF 3
ENDMDL
MODEL 7
REMARK VINA RESULT:    -7.387      4.668      7.218
REMARK INTER + INTRA:          -9.237
REMARK INTER:                  -8.801
REMARK INTRA:                  -0.437
REMARK UNBOUND:                -0.554
REMARK  3 active torsions:
REMARK  status: ('A' for Active; 'I' for Inactive)
REMARK    1  A    between atoms: C2_2  and  O11_20 
REMARK    2  A    between atoms: C10_10  and  N14_11 
REMARK    3  A    between atoms: N14_11  and  C15_12 
ROOT
HETATM    1  C1    D T9001       0.829  13.411   1.437  1.00 83.47     0.092 A 
HETATM    2  C2    D T9001       0.243  13.386   0.130  1.00 83.68     0.109 A 
HETATM    3  C3    D T9001       1.086  13.339  -1.031  1.00 82.47     0.044 A 
HETATM    4  C4    D T9001       2.484  13.318  -0.941  1.00 82.50     0.088 A 
HETATM    5  C5    D T9001       3.097  13.346   0.368  1.00 84.12     0.055 A 
HETATM    6  C6    D T9001       2.250  13.392   1.543  1.00 83.53     0.021 A 
HETATM    7  N7    D T9001       3.200  13.273  -2.097  1.00 81.78    -0.224 NA
HETATM    8  C8    D T9001       4.553  13.249  -1.987  1.00 83.59     0.200 A 
HETATM    9  N9    D T9001       5.256  13.270  -0.830  1.00 84.30    -0.205 NA
HETATM   10  C10   D T9001       4.536  13.319   0.360  1.00 85.59     0.166 A 
HETATM   11  N13   D T9001       0.033  13.453   2.606  1.00 82.67    -0.099 NA
ENDROOT
BRANCH  10  12
HETATM   12  N14   D T9001       5.251  13.345   1.610  1.00 86.44    -0.227 NA
BRANCH  12  13
HETATM   13  C15   D T9001       6.083  12.317   2.134  1.00 87.38     0.084 A 
HETATM   14  C16   D T9001       7.349  12.001   1.542  1.00 88.13     0.033 A 
HETATM   15  C17   D T9001       8.168  10.973   2.064  1.00 88.88     0.087 A 
HETATM   16  C18   D T9001       7.727  10.238   3.196  1.00 88.55     0.151 A 
HETATM   17 CL     D T9001       9.685  10.633   1.302  1.00 89.26    -0.080 Cl
HETATM   18  C19   D T9001       6.475  10.528   3.809  1.00 87.62     0.032 A 
HETATM   19  F21   D T9001       8.490   9.256   3.703  1.00 88.92    -0.203 F 
HETATM   20  C20   D T9001       5.654  11.563   3.280  1.00 87.82     0.021 A 
ENDBRANCH  12  13
ENDBRANCH  10  12
BRANCH   2  21
HETATM   21  O11   D T9001      -1.149  13.403   0.101  1.00 85.44    -0.327 OA
HETATM   22  C12   D T9001      -1.795  13.547  -1.169  1.00 84.41     0.181 C 
ENDBRANCH   2  21
TORSDOF 3
ENDMDL
MODEL 8
REMARK VINA RESULT:    -7.342      4.363      5.586
REMARK INTER + INTRA:          -9.185
REMARK INTER:                  -8.595
REMARK INTRA:                  -0.589
REMARK UNBOUND:                -0.554
REMARK  3 active torsions:
REMARK  status: ('A' for Active; 'I' for Inactive)
REMARK    1  A    between atoms: C2_2  and  O11_20 
REMARK    2  A    between atoms: C10_10  and  N14_11 
REMARK    3  A    between atoms: N14_11  and  C15_12 
ROOT
HETATM    1  C1    D T9001       3.243  16.024  -1.595  1.00 83.47     0.092 A 
HETATM    2  C2    D T9001       3.804  17.319  -1.846  1.00 83.68     0.109 A 
HETATM    3  C3    D T9001       5.213  17.533  -1.675  1.00 82.47     0.044 A 
HETATM    4  C4    D T9001       6.082  16.514  -1.265  1.00 82.50     0.088 A 
HETATM    5  C5    D T9001       5.537  15.200  -1.004  1.00 84.12     0.055 A 
HETATM    6  C6    D T9001       4.115  14.979  -1.175  1.00 83.53     0.021 A 
HETATM    7  N7    D T9001       7.402  16.811  -1.133  1.00 81.78    -0.224 NA
HETATM    8  C8    D T9001       8.227  15.808  -0.739  1.00 83.59     0.200 A 
HETATM    9  N9    D T9001       7.854  14.536  -0.460  1.00 84.30    -0.205 NA
HETATM   10  C10   D T9001       6.506  14.218  -0.590  1.00 85.59     0.166 A 
HETATM   11  N13   D T9001       1.861  15.771  -1.754  1.00 82.67    -0.099 NA
ENDROOT
BRANCH  10  12
HETATM   12  N14   D T9001       6.072  12.875  -0.300  1.00 86.44    -0.227 NA
BRANCH  12  13
HETATM   13  C15   D T9001       5.701  12.359   0.972  1.00 87.38     0.084 A 
HETATM   14  C16   D T9001       6.680  11.867   1.896  1.00 88.13     0.033 A 
HETATM   15  C17   D T9001       6.304  11.347   3.157  1.00 88.88     0.087 A 
HETATM   16  C18   D T9001       4.929  11.311   3.514  1.00 88.55     0.151 A 
HETATM   17 CL     D T9001       7.530  10.763   4.229  1.00 89.26    -0.080 Cl
HETATM   18  C19   D T9001       3.933  11.795   2.619  1.00 87.62     0.032 A 
HETATM   19  F21   D T9001       4.554  10.819   4.705  1.00 88.92    -0.203 F 
HETATM   20  C20   D T9001       4.316  12.316   1.351  1.00 87.82     0.021 A 
ENDBRANCH  12  13
ENDBRANCH  10  12
BRANCH   2  21
HETATM   21  O11   D T9001       2.896  18.292  -2.256  1.00 85.44    -0.327 OA
HETATM   22  C12   D T9001       2.563  19.335  -1.333  1.00 84.41     0.181 C 
ENDBRANCH   2  21
TORSDOF 3
ENDMDL
MODEL 9
REMARK VINA RESULT:    -7.323      4.396      7.155
REMARK INTER + INTRA:          -9.161
REMARK INTER:                  -8.675
REMARK INTRA:                  -0.487
REMARK UNBOUND:                -0.554
REMARK  3 active torsions:
REMARK  status: ('A' for Active; 'I' for Inactive)
REMARK    1  A    between atoms: C2_2  and  O11_20 
REMARK    2  A    between atoms: C10_10  and  N14_11 
REMARK    3  A    between atoms: N14_11  and  C15_12 
ROOT
HETATM    1  C1    D T9001       1.873  12.493   1.328  1.00 83.47     0.092 A 
HETATM    2  C2    D T9001       1.006  13.529   0.851  1.00 83.68     0.109 A 
HETATM    3  C3    D T9001       1.437  14.388  -0.215  1.00 82.47     0.044 A 
HETATM    4  C4    D T9001       2.694  14.257  -0.821  1.00 82.50     0.088 A 
HETATM    5  C5    D T9001       3.586  13.220  -0.353  1.00 84.12     0.055 A 
HETATM    6  C6    D T9001       3.154  12.350   0.722  1.00 83.53     0.021 A 
HETATM    7  N7    D T9001       3.015  15.116  -1.825  1.00 81.78    -0.224 NA
HETATM    8  C8    D T9001       4.234  14.969  -2.402  1.00 83.59     0.200 A 
HETATM    9  N9    D T9001       5.165  14.045  -2.064  1.00 84.30    -0.205 NA
HETATM   10  C10   D T9001       4.852  13.160  -1.037  1.00 85.59     0.166 A 
HETATM   11  N13   D T9001       1.484  11.624   2.374  1.00 82.67    -0.099 NA
ENDROOT
BRANCH  10  12
HETATM   12  N14   D T9001       5.819  12.165  -0.650  1.00 86.44    -0.227 NA
BRANCH  12  13
HETATM   13  C15   D T9001       6.692  12.221   0.471  1.00 87.38     0.084 A 
HETATM   14  C16   D T9001       6.397  11.521   1.687  1.00 88.13     0.033 A 
HETATM   15  C17   D T9001       7.266  11.587   2.801  1.00 88.88     0.087 A 
HETATM   16  C18   D T9001       8.452  12.362   2.715  1.00 88.55     0.151 A 
HETATM   17 CL     D T9001       6.854  10.724   4.244  1.00 89.26    -0.080 Cl
HETATM   18  C19   D T9001       8.775  13.067   1.520  1.00 87.62     0.032 A 
HETATM   19  F21   D T9001       9.288  12.437   3.764  1.00 88.92    -0.203 F 
HETATM   20  C20   D T9001       7.898  12.999   0.402  1.00 87.82     0.021 A 
ENDBRANCH  12  13
ENDBRANCH  10  12
BRANCH   2  21
HETATM   21  O11   D T9001      -0.231  13.610   1.486  1.00 85.44    -0.327 OA
HETATM   22  C12   D T9001      -1.410  13.450   0.689  1.00 84.41     0.181 C 
ENDBRANCH   2  21
TORSDOF 3
ENDMDL
