MODEL 1
REMARK VINA RESULT:    -7.716      0.000      0.000
REMARK INTER + INTRA:          -9.661
REMARK INTER:                  -9.069
REMARK INTRA:                  -0.592
REMARK UNBOUND:                -0.592
REMARK  3 active torsions:
REMARK  status: ('A' for Active; 'I' for Inactive)
REMARK    1  A    between atoms: C2_2  and  O11_20 
REMARK    2  A    between atoms: C10_10  and  N14_11 
REMARK    3  A    between atoms: N14_11  and  C15_12 
ROOT
HETATM    1  C1    D T9001      -6.434  -1.682   9.393  1.00 83.47     0.092 A 
HETATM    2  C2    D T9001      -5.481  -2.158   8.431  1.00 83.68     0.109 A 
HETATM    3  C3    D T9001      -5.730  -3.382   7.726  1.00 82.47     0.044 A 
HETATM    4  C4    D T9001      -6.884  -4.149   7.938  1.00 82.50     0.088 A 
HETATM    5  C5    D T9001      -7.855  -3.690   8.904  1.00 84.12     0.055 A 
HETATM    6  C6    D T9001      -7.610  -2.453   9.620  1.00 83.53     0.021 A 
HETATM    7  N7    D T9001      -7.033  -5.295   7.220  1.00 81.78    -0.224 NA
HETATM    8  C8    D T9001      -8.160  -6.020   7.438  1.00 83.59     0.200 A 
HETATM    9  N9    D T9001      -9.148  -5.708   8.309  1.00 84.30    -0.205 NA
HETATM   10  C10   D T9001      -9.008  -4.540   9.051  1.00 85.59     0.166 A 
HETATM   11  N13   D T9001      -6.227  -0.479  10.108  1.00 82.67    -0.099 NA
ENDROOT
BRANCH  10  12
HETATM   12  N14   D T9001     -10.038  -4.178   9.990  1.00 86.44    -0.227 NA
BRANCH  12  13
HETATM   13  C15   D T9001     -11.258  -3.506   9.695  1.00 87.38     0.084 A 
HETATM   14  C16   D T9001     -11.339  -2.075   9.676  1.00 88.13     0.033 A 
HETATM   15  C17   D T9001     -12.555  -1.413   9.388  1.00 88.88     0.087 A 
HETATM   16  C18   D T9001     -13.719  -2.180   9.116  1.00 88.55     0.151 A 
HETATM   17 CL     D T9001     -12.594   0.318   9.385  1.00 89.26    -0.080 Cl
HETATM   18  C19   D T9001     -13.670  -3.603   9.124  1.00 87.62     0.032 A 
HETATM   19  F21   D T9001     -14.883  -1.568   8.844  1.00 88.92    -0.203 F 
HETATM   20  C20   D T9001     -12.444  -4.265   9.414  1.00 87.82     0.021 A 
ENDBRANCH  12  13
ENDBRANCH  10  12
BRANCH   2  21
HETATM   21  O11   D T9001      -4.357  -1.355   8.259  1.00 85.44    -0.327 OA
HETATM   22  C12   D T9001      -3.077  -1.907   8.587  1.00 84.41     0.181 C 
ENDBRANCH   2  21
TORSDOF 3
ENDMDL
MODEL 2
REMARK VINA RESULT:    -7.446      2.495      4.102
REMARK INTER + INTRA:          -9.344
REMARK INTER:                  -8.751
REMARK INTRA:                  -0.593
REMARK UNBOUND:                -0.592
REMARK  3 active torsions:
REMARK  status: ('A' for Active; 'I' for Inactive)
REMARK    1  A    between atoms: C2_2  and  O11_20 
REMARK    2  A    between atoms: C10_10  and  N14_11 
REMARK    3  A    between atoms: N14_11  and  C15_12 
ROOT
HETATM    1  C1    D T9001      -9.087  -5.895   7.929  1.00 83.47     0.092 A 
HETATM    2  C2    D T9001      -7.788  -6.389   8.283  1.00 83.68     0.109 A 
HETATM    3  C3    D T9001      -6.745  -5.467   8.633  1.00 82.47     0.044 A 
HETATM    4  C4    D T9001      -6.943  -4.080   8.643  1.00 82.50     0.088 A 
HETATM    5  C5    D T9001      -8.243  -3.561   8.286  1.00 84.12     0.055 A 
HETATM    6  C6    D T9001      -9.301  -4.487   7.933  1.00 83.53     0.021 A 
HETATM    7  N7    D T9001      -5.895  -3.285   8.990  1.00 81.78    -0.224 NA
HETATM    8  C8    D T9001      -6.109  -1.945   8.998  1.00 83.59     0.200 A 
HETATM    9  N9    D T9001      -7.272  -1.326   8.687  1.00 84.30    -0.205 NA
HETATM   10  C10   D T9001      -8.352  -2.126   8.329  1.00 85.59     0.166 A 
HETATM   11  N13   D T9001     -10.143  -6.771   7.580  1.00 82.67    -0.099 NA
ENDROOT
BRANCH  10  12
HETATM   12  N14   D T9001      -9.605  -1.501   7.989  1.00 86.44    -0.227 NA
BRANCH  12  13
HETATM   13  C15   D T9001     -10.721  -1.312   8.852  1.00 87.38     0.084 A 
HETATM   14  C16   D T9001     -12.056  -1.619   8.427  1.00 88.13     0.033 A 
HETATM   15  C17   D T9001     -13.161  -1.423   9.287  1.00 88.88     0.087 A 
HETATM   16  C18   D T9001     -12.947  -0.911  10.593  1.00 88.55     0.151 A 
HETATM   17 CL     D T9001     -14.751  -1.807   8.718  1.00 89.26    -0.080 Cl
HETATM   18  C19   D T9001     -11.632  -0.599  11.045  1.00 87.62     0.032 A 
HETATM   19  F21   D T9001     -13.986  -0.716  11.422  1.00 88.92    -0.203 F 
HETATM   20  C20   D T9001     -10.523  -0.798  10.177  1.00 87.82     0.021 A 
ENDBRANCH  12  13
ENDBRANCH  10  12
BRANCH   2  21
HETATM   21  O11   D T9001      -7.650  -7.774   8.260  1.00 85.44    -0.327 OA
HETATM   22  C12   D T9001      -6.428  -8.322   7.753  1.00 84.41     0.181 C 
ENDBRANCH   2  21
TORSDOF 3
ENDMDL
MODEL 3
REMARK VINA RESULT:    -7.361      4.194      6.448
REMARK INTER + INTRA:          -9.244
REMARK INTER:                  -8.783
REMARK INTRA:                  -0.461
REMARK UNBOUND:                -0.592
REMARK  3 active torsions:
REMARK  status: ('A' for Active; 'I' for Inactive)
REMARK    1  A    between atoms: C2_2  and  O11_20 
REMARK    2  A    between atoms: C10_10  and  N14_11 
REMARK    3  A    between atoms: N14_11  and  C15_12 
ROOT
HETATM    1  C1    D T9001     -11.419  -1.320   9.762  1.00 83.47     0.092 A 
HETATM    2  C2    D T9001     -12.643  -0.686   9.364  1.00 83.68     0.109 A 
HETATM    3  C3    D T9001     -13.782  -1.487   9.018  1.00 82.47     0.044 A 
HETATM    4  C4    D T9001     -13.752  -2.888   9.053  1.00 82.50     0.088 A 
HETATM    5  C5    D T9001     -12.528  -3.547   9.449  1.00 84.12     0.055 A 
HETATM    6  C6    D T9001     -11.374  -2.742   9.799  1.00 83.53     0.021 A 
HETATM    7  N7    D T9001     -14.882  -3.563   8.711  1.00 81.78    -0.224 NA
HETATM    8  C8    D T9001     -14.833  -4.919   8.756  1.00 83.59     0.200 A 
HETATM    9  N9    D T9001     -13.757  -5.661   9.107  1.00 84.30    -0.205 NA
HETATM   10  C10   D T9001     -12.593  -4.985   9.458  1.00 85.59     0.166 A 
HETATM   11  N13   D T9001     -10.274  -0.565  10.112  1.00 82.67    -0.099 NA
ENDROOT
BRANCH  10  12
HETATM   12  N14   D T9001     -11.428  -5.743   9.835  1.00 86.44    -0.227 NA
BRANCH  12  13
HETATM   13  C15   D T9001     -10.154  -5.713   9.201  1.00 87.38     0.084 A 
HETATM   14  C16   D T9001      -8.949  -5.513   9.951  1.00 88.13     0.033 A 
HETATM   15  C17   D T9001      -7.686  -5.478   9.316  1.00 88.88     0.087 A 
HETATM   16  C18   D T9001      -7.610  -5.641   7.907  1.00 88.55     0.151 A 
HETATM   17 CL     D T9001      -6.266  -5.228  10.273  1.00 89.26    -0.080 Cl
HETATM   18  C19   D T9001      -8.789  -5.845   7.134  1.00 87.62     0.032 A 
HETATM   19  F21   D T9001      -6.420  -5.607   7.286  1.00 88.92    -0.203 F 
HETATM   20  C20   D T9001     -10.057  -5.879   7.779  1.00 87.82     0.021 A 
ENDBRANCH  12  13
ENDBRANCH  10  12
BRANCH   2  21
HETATM   21  O11   D T9001     -12.616   0.706   9.351  1.00 85.44    -0.327 OA
HETATM   22  C12   D T9001     -13.237   1.382   8.252  1.00 84.41     0.181 C 
ENDBRANCH   2  21
TORSDOF 3
ENDMDL
MODEL 4
REMARK VINA RESULT:    -7.305      1.672      1.982
REMARK INTER + INTRA:          -9.178
REMARK INTER:                  -8.599
REMARK INTRA:                  -0.579
REMARK UNBOUND:                -0.592
REMARK  3 active torsions:
REMARK  status: ('A' for Active; 'I' for Inactive)
REMARK    1  A    between atoms: C2_2  and  O11_20 
REMARK    2  A    between atoms: C10_10  and  N14_11 
REMARK    3  A    between atoms: N14_11  and  C15_12 
ROOT
HETATM    1  C1    D T9001      -6.913  -2.355   9.588  1.00 83.47     0.092 A 
HETATM    2  C2    D T9001      -5.779  -2.439   8.712  1.00 83.68     0.109 A 
HETATM    3  C3    D T9001      -5.509  -3.660   8.010  1.00 82.47     0.044 A 
HETATM    4  C4    D T9001      -6.317  -4.797   8.144  1.00 82.50     0.088 A 
HETATM    5  C5    D T9001      -7.462  -4.735   9.024  1.00 84.12     0.055 A 
HETATM    6  C6    D T9001      -7.741  -3.504   9.735  1.00 83.53     0.021 A 
HETATM    7  N7    D T9001      -5.982  -5.910   7.436  1.00 81.78    -0.224 NA
HETATM    8  C8    D T9001      -6.781  -6.998   7.577  1.00 83.59     0.200 A 
HETATM    9  N9    D T9001      -7.881  -7.078   8.363  1.00 84.30    -0.205 NA
HETATM   10  C10   D T9001      -8.234  -5.949   9.094  1.00 85.59     0.166 A 
HETATM   11  N13   D T9001      -7.215  -1.168  10.297  1.00 82.67    -0.099 NA
ENDROOT
BRANCH  10  12
HETATM   12  N14   D T9001      -9.397  -5.999   9.943  1.00 86.44    -0.227 NA
BRANCH  12  13
HETATM   13  C15   D T9001     -10.741  -5.732   9.558  1.00 87.38     0.084 A 
HETATM   14  C16   D T9001     -11.312  -4.423   9.688  1.00 88.13     0.033 A 
HETATM   15  C17   D T9001     -12.650  -4.166   9.310  1.00 88.88     0.087 A 
HETATM   16  C18   D T9001     -13.445  -5.225   8.796  1.00 88.55     0.151 A 
HETATM   17 CL     D T9001     -13.286  -2.567   9.493  1.00 89.26    -0.080 Cl
HETATM   18  C19   D T9001     -12.906  -6.535   8.653  1.00 87.62     0.032 A 
HETATM   19  F21   D T9001     -14.719  -4.999   8.436  1.00 88.92    -0.203 F 
HETATM   20  C20   D T9001     -11.559  -6.789   9.034  1.00 87.82     0.021 A 
ENDBRANCH  12  13
ENDBRANCH  10  12
BRANCH   2  21
HETATM   21  O11   D T9001      -5.015  -1.279   8.615  1.00 85.44    -0.327 OA
HETATM   22  C12   D T9001      -3.589  -1.410   8.614  1.00 84.41     0.181 C 
ENDBRANCH   2  21
TORSDOF 3
ENDMDL
MODEL 5
REMARK VINA RESULT:    -7.296      4.804      6.980
REMARK INTER + INTRA:          -9.168
REMARK INTER:                  -8.617
REMARK INTRA:                  -0.551
REMARK UNBOUND:                -0.592
REMARK  3 active torsions:
REMARK  status: ('A' for Active; 'I' for Inactive)
REMARK    1  A    between atoms: C2_2  and  O11_20 
REMARK    2  A    between atoms: C10_10  and  N14_11 
REMARK    3  A    between atoms: N14_11  and  C15_12 
ROOT
HETATM    1  C1    D T9001     -10.506  -2.285   9.503  1.00 83.47     0.092 A 
HETATM    2  C2    D T9001     -11.876  -2.065   9.138  1.00 83.68     0.109 A 
HETATM    3  C3    D T9001     -12.727  -3.184   8.849  1.00 82.47     0.044 A 
HETATM    4  C4    D T9001     -12.271  -4.508   8.910  1.00 82.50     0.088 A 
HETATM    5  C5    D T9001     -10.894  -4.752   9.274  1.00 84.12     0.055 A 
HETATM    6  C6    D T9001     -10.030  -3.626   9.567  1.00 83.53     0.021 A 
HETATM    7  N7    D T9001     -13.152  -5.504   8.622  1.00 81.78    -0.224 NA
HETATM    8  C8    D T9001     -12.691  -6.778   8.692  1.00 83.59     0.200 A 
HETATM    9  N9    D T9001     -11.431  -7.149   9.018  1.00 84.30    -0.205 NA
HETATM   10  C10   D T9001     -10.518  -6.142   9.313  1.00 85.59     0.166 A 
HETATM   11  N13   D T9001      -9.636  -1.209   9.797  1.00 82.67    -0.099 NA
ENDROOT
BRANCH  10  12
HETATM   12  N14   D T9001      -9.167  -6.499   9.662  1.00 86.44    -0.227 NA
BRANCH  12  13
HETATM   13  C15   D T9001      -8.123  -6.854   8.762  1.00 87.38     0.084 A 
HETATM   14  C16   D T9001      -7.347  -8.046   8.947  1.00 88.13     0.033 A 
HETATM   15  C17   D T9001      -6.308  -8.389   8.053  1.00 88.88     0.087 A 
HETATM   16  C18   D T9001      -6.024  -7.538   6.952  1.00 88.55     0.151 A 
HETATM   17 CL     D T9001      -5.401  -9.838   8.329  1.00 89.26    -0.080 Cl
HETATM   18  C19   D T9001      -6.779  -6.349   6.740  1.00 87.62     0.032 A 
HETATM   19  F21   D T9001      -5.037  -7.847   6.095  1.00 88.92    -0.203 F 
HETATM   20  C20   D T9001      -7.824  -6.007   7.642  1.00 87.82     0.021 A 
ENDBRANCH  12  13
ENDBRANCH  10  12
BRANCH   2  21
HETATM   21  O11   D T9001     -12.274  -0.732   9.097  1.00 85.44    -0.327 OA
HETATM   22  C12   D T9001     -13.654  -0.448   8.840  1.00 84.41     0.181 C 
ENDBRANCH   2  21
TORSDOF 3
ENDMDL
MODEL 6
REMARK VINA RESULT:    -7.203      3.679      5.637
REMARK INTER + INTRA:          -9.058
REMARK INTER:                  -8.833
REMARK INTRA:                  -0.226
REMARK UNBOUND:                -0.592
REMARK  3 active torsions:
REMARK  status: ('A' for Active; 'I' for Inactive)
REMARK    1  A    between atoms: C2_2  and  O11_20 
REMARK    2  A    between atoms: C10_10  and  N14_11 
REMARK    3  A    between atoms: N14_11  and  C15_12 
ROOT
HETATM    1  C1    D T9001     -12.567  -6.418   8.723  1.00 83.47     0.092 A 
HETATM    2  C2    D T9001     -12.026  -7.710   9.034  1.00 83.68     0.109 A 
HETATM    3  C3    D T9001     -10.610  -7.929   8.956  1.00 82.47     0.044 A 
HETATM    4  C4    D T9001      -9.714  -6.918   8.583  1.00 82.50     0.088 A 
HETATM    5  C5    D T9001     -10.238  -5.610   8.263  1.00 84.12     0.055 A 
HETATM    6  C6    D T9001     -11.668  -5.382   8.341  1.00 83.53     0.021 A 
HETATM    7  N7    D T9001      -8.389  -7.220   8.540  1.00 81.78    -0.224 NA
HETATM    8  C8    D T9001      -7.538  -6.224   8.181  1.00 83.59     0.200 A 
HETATM    9  N9    D T9001      -7.891  -4.958   7.857  1.00 84.30    -0.205 NA
HETATM   10  C10   D T9001      -9.243  -4.636   7.894  1.00 85.59     0.166 A 
HETATM   11  N13   D T9001     -13.957  -6.161   8.790  1.00 82.67    -0.099 NA
ENDROOT
BRANCH  10  12
HETATM   12  N14   D T9001      -9.655  -3.299   7.553  1.00 86.44    -0.227 NA
BRANCH  12  13
HETATM   13  C15   D T9001     -10.336  -2.378   8.399  1.00 87.38     0.084 A 
HETATM   14  C16   D T9001     -11.723  -2.070   8.208  1.00 88.13     0.033 A 
HETATM   15  C17   D T9001     -12.391  -1.149   9.047  1.00 88.88     0.087 A 
HETATM   16  C18   D T9001     -11.676  -0.516  10.097  1.00 88.55     0.151 A 
HETATM   17 CL     D T9001     -14.066  -0.813   8.766  1.00 89.26    -0.080 Cl
HETATM   18  C19   D T9001     -10.298  -0.803  10.315  1.00 87.62     0.032 A 
HETATM   19  F21   D T9001     -12.294   0.364  10.902  1.00 88.92    -0.203 F 
HETATM   20  C20   D T9001      -9.629  -1.730   9.467  1.00 87.82     0.021 A 
ENDBRANCH  12  13
ENDBRANCH  10  12
BRANCH   2  21
HETATM   21  O11   D T9001     -12.961  -8.674   9.402  1.00 85.44    -0.327 OA
HETATM   22  C12   D T9001     -12.558 -10.048   9.379  1.00 84.41     0.181 C 
ENDBRANCH   2  21
TORSDOF 3
ENDMDL
MODEL 7
REMARK VINA RESULT:    -7.153      4.558      7.167
REMARK INTER + INTRA:          -8.999
REMARK INTER:                  -8.473
REMARK INTRA:                  -0.527
REMARK UNBOUND:                -0.592
REMARK  3 active torsions:
REMARK  status: ('A' for Active; 'I' for Inactive)
REMARK    1  A    between atoms: C2_2  and  O11_20 
REMARK    2  A    between atoms: C10_10  and  N14_11 
REMARK    3  A    between atoms: N14_11  and  C15_12 
ROOT
HETATM    1  C1    D T9001     -12.065  -3.800   9.353  1.00 83.47     0.092 A 
HETATM    2  C2    D T9001     -12.204  -2.374   9.270  1.00 83.68     0.109 A 
HETATM    3  C3    D T9001     -11.051  -1.535   9.427  1.00 82.47     0.044 A 
HETATM    4  C4    D T9001      -9.771  -2.055   9.662  1.00 82.50     0.088 A 
HETATM    5  C5    D T9001      -9.609  -3.488   9.752  1.00 84.12     0.055 A 
HETATM    6  C6    D T9001     -10.770  -4.342   9.594  1.00 83.53     0.021 A 
HETATM    7  N7    D T9001      -8.737  -1.180   9.795  1.00 81.78    -0.224 NA
HETATM    8  C8    D T9001      -7.506  -1.705  10.017  1.00 83.59     0.200 A 
HETATM    9  N9    D T9001      -7.212  -3.022  10.123  1.00 84.30    -0.205 NA
HETATM   10  C10   D T9001      -8.259  -3.929   9.991  1.00 85.59     0.166 A 
HETATM   11  N13   D T9001     -13.177  -4.663   9.202  1.00 82.67    -0.099 NA
ENDROOT
BRANCH  10  12
HETATM   12  N14   D T9001      -7.984  -5.338  10.101  1.00 86.44    -0.227 NA
BRANCH  12  13
HETATM   13  C15   D T9001      -7.377  -6.165   9.114  1.00 87.38     0.084 A 
HETATM   14  C16   D T9001      -6.929  -7.491   9.420  1.00 88.13     0.033 A 
HETATM   15  C17   D T9001      -6.321  -8.305   8.436  1.00 88.88     0.087 A 
HETATM   16  C18   D T9001      -6.149  -7.798   7.121  1.00 88.55     0.151 A 
HETATM   17 CL     D T9001      -5.794  -9.897   8.866  1.00 89.26    -0.080 Cl
HETATM   18  C19   D T9001      -6.587  -6.485   6.785  1.00 87.62     0.032 A 
HETATM   19  F21   D T9001      -5.570  -8.556   6.175  1.00 88.92    -0.203 F 
HETATM   20  C20   D T9001      -7.198  -5.670   7.778  1.00 87.82     0.021 A 
ENDBRANCH  12  13
ENDBRANCH  10  12
BRANCH   2  21
HETATM   21  O11   D T9001     -13.496  -1.915   9.032  1.00 85.44    -0.327 OA
HETATM   22  C12   D T9001     -13.672  -0.528   8.721  1.00 84.41     0.181 C 
ENDBRANCH   2  21
TORSDOF 3
ENDMDL
MODEL 8
REMARK VINA RESULT:    -7.141      4.363      6.761
REMARK INTER + INTRA:          -8.986
REMARK INTER:                  -8.390
REMARK INTRA:                  -0.595
REMARK UNBOUND:                -0.592
REMARK  3 active torsions:
REMARK  status: ('A' for Active; 'I' for Inactive)
REMARK    1  A    between atoms: C2_2  and  O11_20 
REMARK    2  A    between atoms: C10_10  and  N14_11 
REMARK    3  A    between atoms: N14_11  and  C15_12 
ROOT
HETATM    1  C1    D T9001     -10.792  -2.521   9.183  1.00 83.47     0.092 A 
HETATM    2  C2    D T9001     -12.160  -2.670   9.590  1.00 83.68     0.109 A 
HETATM    3  C3    D T9001     -12.850  -3.902   9.334  1.00 82.47     0.044 A 
HETATM    4  C4    D T9001     -12.237  -4.986   8.692  1.00 82.50     0.088 A 
HETATM    5  C5    D T9001     -10.860  -4.855   8.271  1.00 84.12     0.055 A 
HETATM    6  C6    D T9001     -10.158  -3.614   8.528  1.00 83.53     0.021 A 
HETATM    7  N7    D T9001     -12.971  -6.114   8.494  1.00 81.78    -0.224 NA
HETATM    8  C8    D T9001     -12.356  -7.153   7.875  1.00 83.59     0.200 A 
HETATM    9  N9    D T9001     -11.077  -7.167   7.431  1.00 84.30    -0.205 NA
HETATM   10  C10   D T9001     -10.315  -6.020   7.624  1.00 85.59     0.166 A 
HETATM   11  N13   D T9001     -10.076  -1.323   9.419  1.00 82.67    -0.099 NA
ENDROOT
BRANCH  10  12
HETATM   12  N14   D T9001      -8.951  -5.999   7.161  1.00 86.44    -0.227 NA
BRANCH  12  13
HETATM   13  C15   D T9001      -7.784  -6.214   7.948  1.00 87.38     0.084 A 
HETATM   14  C16   D T9001      -6.639  -5.358   7.839  1.00 88.13     0.033 A 
HETATM   15  C17   D T9001      -5.481  -5.580   8.619  1.00 88.88     0.087 A 
HETATM   16  C18   D T9001      -5.449  -6.673   9.524  1.00 88.55     0.151 A 
HETATM   17 CL     D T9001      -4.127  -4.516   8.441  1.00 89.26    -0.080 Cl
HETATM   18  C19   D T9001      -6.572  -7.540   9.657  1.00 87.62     0.032 A 
HETATM   19  F21   D T9001      -4.356  -6.901  10.270  1.00 88.92    -0.203 F 
HETATM   20  C20   D T9001      -7.735  -7.312   8.871  1.00 87.82     0.021 A 
ENDBRANCH  12  13
ENDBRANCH  10  12
BRANCH   2  21
HETATM   21  O11   D T9001     -12.717  -1.564  10.226  1.00 85.44    -0.327 OA
HETATM   22  C12   D T9001     -13.664  -0.773   9.499  1.00 84.41     0.181 C 
ENDBRANCH   2  21
TORSDOF 3
ENDMDL
MODEL 9
REMARK VINA RESULT:    -7.041      2.445      3.760
REMARK INTER + INTRA:          -8.868
REMARK INTER:                  -8.343
REMARK INTRA:                  -0.525
REMARK UNBOUND:                -0.592
REMARK  3 active torsions:
REMARK  status: ('A' for Active; 'I' for Inactive)
REMARK    1  A    between atoms: C2_2  and  O11_20 
REMARK    2  A    between atoms: C10_10  and  N14_11 
REMARK    3  A    between atoms: N14_11  and  C15_12 
ROOT
HETATM    1  C1    D T9001      -7.008  -7.511   8.796  1.00 83.47     0.092 A 
HETATM    2  C2    D T9001      -5.928  -7.117   7.937  1.00 83.68     0.109 A 
HETATM    3  C3    D T9001      -5.798  -5.745   7.539  1.00 82.47     0.044 A 
HETATM    4  C4    D T9001      -6.696  -4.754   7.958  1.00 82.50     0.088 A 
HETATM    5  C5    D T9001      -7.793  -5.130   8.820  1.00 84.12     0.055 A 
HETATM    6  C6    D T9001      -7.929  -6.515   9.227  1.00 83.53     0.021 A 
HETATM    7  N7    D T9001      -6.491  -3.479   7.529  1.00 81.78    -0.224 NA
HETATM    8  C8    D T9001      -7.369  -2.534   7.951  1.00 83.59     0.200 A 
HETATM    9  N9    D T9001      -8.436  -2.746   8.757  1.00 84.30    -0.205 NA
HETATM   10  C10   D T9001      -8.660  -4.045   9.201  1.00 85.59     0.166 A 
HETATM   11  N13   D T9001      -7.169  -8.854   9.213  1.00 82.67    -0.099 NA
ENDROOT
BRANCH  10  12
HETATM   12  N14   D T9001      -9.787  -4.309  10.058  1.00 86.44    -0.227 NA
BRANCH  12  13
HETATM   13  C15   D T9001     -11.163  -4.252   9.694  1.00 87.38     0.084 A 
HETATM   14  C16   D T9001     -11.880  -3.012   9.668  1.00 88.13     0.033 A 
HETATM   15  C17   D T9001     -13.248  -2.963   9.311  1.00 88.88     0.087 A 
HETATM   16  C18   D T9001     -13.924  -4.166   8.975  1.00 88.55     0.151 A 
HETATM   17 CL     D T9001     -14.064  -1.437   9.302  1.00 89.26    -0.080 Cl
HETATM   18  C19   D T9001     -13.237  -5.414   8.989  1.00 87.62     0.032 A 
HETATM   19  F21   D T9001     -15.223  -4.139   8.638  1.00 88.92    -0.203 F 
HETATM   20  C20   D T9001     -11.861  -5.458   9.348  1.00 87.82     0.021 A 
ENDBRANCH  12  13
ENDBRANCH  10  12
BRANCH   2  21
HETATM   21  O11   D T9001      -5.066  -8.141   7.556  1.00 85.44    -0.327 OA
HETATM   22  C12   D T9001      -5.141  -8.619   6.208  1.00 84.41     0.181 C 
ENDBRANCH   2  21
TORSDOF 3
ENDMDL
