MODEL 1
REMARK VINA RESULT:    -6.958      0.000      0.000
REMARK INTER + INTRA:          -8.773
REMARK INTER:                  -8.178
REMARK INTRA:                  -0.595
REMARK UNBOUND:                -0.595
REMARK  3 active torsions:
REMARK  status: ('A' for Active; 'I' for Inactive)
REMARK    1  A    between atoms: C2_2  and  O11_20 
REMARK    2  A    between atoms: C10_10  and  N14_11 
REMARK    3  A    between atoms: N14_11  and  C15_12 
ROOT
HETATM    1  C1    D T9001      -3.820   1.346  11.140  1.00 83.47     0.092 A 
HETATM    2  C2    D T9001      -4.464   0.789   9.987  1.00 83.68     0.109 A 
HETATM    3  C3    D T9001      -3.846  -0.292   9.275  1.00 82.47     0.044 A 
HETATM    4  C4    D T9001      -2.615  -0.838   9.664  1.00 82.50     0.088 A 
HETATM    5  C5    D T9001      -1.945  -0.289  10.822  1.00 84.12     0.055 A 
HETATM    6  C6    D T9001      -2.567   0.802  11.544  1.00 83.53     0.021 A 
HETATM    7  N7    D T9001      -2.107  -1.863   8.927  1.00 81.78    -0.224 NA
HETATM    8  C8    D T9001      -0.916  -2.380   9.324  1.00 83.59     0.200 A 
HETATM    9  N9    D T9001      -0.184  -1.964  10.384  1.00 84.30    -0.205 NA
HETATM   10  C10   D T9001      -0.690  -0.915  11.145  1.00 85.59     0.166 A 
HETATM   11  N13   D T9001      -4.398   2.411  11.871  1.00 82.67    -0.099 NA
ENDROOT
BRANCH  10  12
HETATM   12  N14   D T9001       0.063  -0.446  12.280  1.00 86.44    -0.227 NA
BRANCH  12  13
HETATM   13  C15   D T9001       0.909   0.698  12.323  1.00 87.38     0.084 A 
HETATM   14  C16   D T9001       1.188   1.378  13.554  1.00 88.13     0.033 A 
HETATM   15  C17   D T9001       2.025   2.517  13.589  1.00 88.88     0.087 A 
HETATM   16  C18   D T9001       2.598   2.998  12.381  1.00 88.55     0.151 A 
HETATM   17 CL     D T9001       2.322   3.299  15.103  1.00 89.26    -0.080 Cl
HETATM   18  C19   D T9001       2.342   2.343  11.143  1.00 87.62     0.032 A 
HETATM   19  F21   D T9001       3.392   4.081  12.396  1.00 88.92    -0.203 F 
HETATM   20  C20   D T9001       1.499   1.197  11.113  1.00 87.82     0.021 A 
ENDBRANCH  12  13
ENDBRANCH  10  12
BRANCH   2  21
HETATM   21  O11   D T9001      -5.686   1.367   9.650  1.00 85.44    -0.327 OA
HETATM   22  C12   D T9001      -6.611   0.588   8.882  1.00 84.41     0.181 C 
ENDBRANCH   2  21
TORSDOF 3
ENDMDL
MODEL 2
REMARK VINA RESULT:    -6.781      4.547      6.544
REMARK INTER + INTRA:          -8.565
REMARK INTER:                  -8.004
REMARK INTRA:                  -0.561
REMARK UNBOUND:                -0.595
REMARK  3 active torsions:
REMARK  status: ('A' for Active; 'I' for Inactive)
REMARK    1  A    between atoms: C2_2  and  O11_20 
REMARK    2  A    between atoms: C10_10  and  N14_11 
REMARK    3  A    between atoms: N14_11  and  C15_12 
ROOT
HETATM    1  C1    D T9001      -4.155  -5.536   8.175  1.00 83.47     0.092 A 
HETATM    2  C2    D T9001      -3.511  -6.767   8.531  1.00 83.68     0.109 A 
HETATM    3  C3    D T9001      -2.135  -6.762   8.937  1.00 82.47     0.044 A 
HETATM    4  C4    D T9001      -1.377  -5.584   9.002  1.00 82.50     0.088 A 
HETATM    5  C5    D T9001      -2.006  -4.332   8.644  1.00 84.12     0.055 A 
HETATM    6  C6    D T9001      -3.395  -4.333   8.234  1.00 83.53     0.021 A 
HETATM    7  N7    D T9001      -0.080  -5.678   9.400  1.00 81.78    -0.224 NA
HETATM    8  C8    D T9001       0.635  -4.525   9.460  1.00 83.59     0.200 A 
HETATM    9  N9    D T9001       0.174  -3.289   9.155  1.00 84.30    -0.205 NA
HETATM   10  C10   D T9001      -1.150  -3.179   8.744  1.00 85.59     0.166 A 
HETATM   11  N13   D T9001      -5.511  -5.499   7.772  1.00 82.67    -0.099 NA
ENDROOT
BRANCH  10  12
HETATM   12  N14   D T9001      -1.674  -1.879   8.410  1.00 86.44    -0.227 NA
BRANCH  12  13
HETATM   13  C15   D T9001      -2.276  -0.951   9.305  1.00 87.38     0.084 A 
HETATM   14  C16   D T9001      -3.572  -0.394   9.047  1.00 88.13     0.033 A 
HETATM   15  C17   D T9001      -4.162   0.533   9.937  1.00 88.88     0.087 A 
HETATM   16  C18   D T9001      -3.456   0.922  11.107  1.00 88.55     0.151 A 
HETATM   17 CL     D T9001      -5.727   1.175   9.573  1.00 89.26    -0.080 Cl
HETATM   18  C19   D T9001      -2.168   0.385  11.392  1.00 87.62     0.032 A 
HETATM   19  F21   D T9001      -4.000   1.804  11.962  1.00 88.92    -0.203 F 
HETATM   20  C20   D T9001      -1.579  -0.548  10.493  1.00 87.82     0.021 A 
ENDBRANCH  12  13
ENDBRANCH  10  12
BRANCH   2  21
HETATM   21  O11   D T9001      -4.313  -7.902   8.452  1.00 85.44    -0.327 OA
HETATM   22  C12   D T9001      -3.696  -9.137   8.070  1.00 84.41     0.181 C 
ENDBRANCH   2  21
TORSDOF 3
ENDMDL
MODEL 3
REMARK VINA RESULT:    -6.765      3.882      5.398
REMARK INTER + INTRA:          -8.546
REMARK INTER:                  -7.988
REMARK INTRA:                  -0.558
REMARK UNBOUND:                -0.595
REMARK  3 active torsions:
REMARK  status: ('A' for Active; 'I' for Inactive)
REMARK    1  A    between atoms: C2_2  and  O11_20 
REMARK    2  A    between atoms: C10_10  and  N14_11 
REMARK    3  A    between atoms: N14_11  and  C15_12 
ROOT
HETATM    1  C1    D T9001      -3.363  -5.318   8.261  1.00 83.47     0.092 A 
HETATM    2  C2    D T9001      -4.726  -5.138   8.669  1.00 83.68     0.109 A 
HETATM    3  C3    D T9001      -5.167  -3.857   9.140  1.00 82.47     0.044 A 
HETATM    4  C4    D T9001      -4.308  -2.752   9.222  1.00 82.50     0.088 A 
HETATM    5  C5    D T9001      -2.929  -2.912   8.820  1.00 84.12     0.055 A 
HETATM    6  C6    D T9001      -2.480  -4.205   8.343  1.00 83.53     0.021 A 
HETATM    7  N7    D T9001      -4.818  -1.576   9.680  1.00 81.78    -0.224 NA
HETATM    8  C8    D T9001      -3.970  -0.518   9.747  1.00 83.59     0.200 A 
HETATM    9  N9    D T9001      -2.660  -0.528   9.404  1.00 84.30    -0.205 NA
HETATM   10  C10   D T9001      -2.126  -1.724   8.937  1.00 85.59     0.166 A 
HETATM   11  N13   D T9001      -2.890  -6.565   7.789  1.00 82.67    -0.099 NA
ENDROOT
BRANCH  10  12
HETATM   12  N14   D T9001      -0.735  -1.771   8.564  1.00 86.44    -0.227 NA
BRANCH  12  13
HETATM   13  C15   D T9001       0.369  -2.009   9.431  1.00 87.38     0.084 A 
HETATM   14  C16   D T9001       0.284  -1.755  10.839  1.00 88.13     0.033 A 
HETATM   15  C17   D T9001       1.386  -1.987  11.694  1.00 88.88     0.087 A 
HETATM   16  C18   D T9001       2.601  -2.479  11.146  1.00 88.55     0.151 A 
HETATM   17 CL     D T9001       1.227  -1.658  13.385  1.00 89.26    -0.080 Cl
HETATM   18  C19   D T9001       2.716  -2.744   9.752  1.00 87.62     0.032 A 
HETATM   19  F21   D T9001       3.659  -2.702  11.943  1.00 88.92    -0.203 F 
HETATM   20  C20   D T9001       1.604  -2.508   8.896  1.00 87.82     0.021 A 
ENDBRANCH  12  13
ENDBRANCH  10  12
BRANCH   2  21
HETATM   21  O11   D T9001      -5.534  -6.267   8.561  1.00 85.44    -0.327 OA
HETATM   22  C12   D T9001      -5.859  -6.980   9.761  1.00 84.41     0.181 C 
ENDBRANCH   2  21
TORSDOF 3
ENDMDL
MODEL 4
REMARK VINA RESULT:    -6.695      5.365      7.533
REMARK INTER + INTRA:          -8.465
REMARK INTER:                  -7.966
REMARK INTRA:                  -0.498
REMARK UNBOUND:                -0.595
REMARK  3 active torsions:
REMARK  status: ('A' for Active; 'I' for Inactive)
REMARK    1  A    between atoms: C2_2  and  O11_20 
REMARK    2  A    between atoms: C10_10  and  N14_11 
REMARK    3  A    between atoms: N14_11  and  C15_12 
ROOT
HETATM    1  C1    D T9001      -4.460   0.512   9.746  1.00 83.47     0.092 A 
HETATM    2  C2    D T9001      -3.732   1.204  10.771  1.00 83.68     0.109 A 
HETATM    3  C3    D T9001      -2.511   0.649  11.278  1.00 82.47     0.044 A 
HETATM    4  C4    D T9001      -1.986  -0.563  10.809  1.00 82.50     0.088 A 
HETATM    5  C5    D T9001      -2.704  -1.279   9.779  1.00 84.12     0.055 A 
HETATM    6  C6    D T9001      -3.939  -0.723   9.264  1.00 83.53     0.021 A 
HETATM    7  N7    D T9001      -0.820  -1.009  11.350  1.00 81.78    -0.224 NA
HETATM    8  C8    D T9001      -0.327  -2.182  10.878  1.00 83.59     0.200 A 
HETATM    9  N9    D T9001      -0.894  -2.953   9.920  1.00 84.30    -0.205 NA
HETATM   10  C10   D T9001      -2.088  -2.511   9.360  1.00 85.59     0.166 A 
HETATM   11  N13   D T9001      -5.667   1.027   9.218  1.00 82.67    -0.099 NA
ENDROOT
BRANCH  10  12
HETATM   12  N14   D T9001      -2.720  -3.306   8.339  1.00 86.44    -0.227 NA
BRANCH  12  13
HETATM   13  C15   D T9001      -3.564  -4.434   8.542  1.00 87.38     0.084 A 
HETATM   14  C16   D T9001      -3.106  -5.768   8.287  1.00 88.13     0.033 A 
HETATM   15  C17   D T9001      -3.952  -6.884   8.485  1.00 88.88     0.087 A 
HETATM   16  C18   D T9001      -5.281  -6.679   8.943  1.00 88.55     0.151 A 
HETATM   17 CL     D T9001      -3.346  -8.471   8.156  1.00 89.26    -0.080 Cl
HETATM   18  C19   D T9001      -5.765  -5.366   9.207  1.00 87.62     0.032 A 
HETATM   19  F21   D T9001      -6.099  -7.727   9.132  1.00 88.92    -0.203 F 
HETATM   20  C20   D T9001      -4.909  -4.246   9.007  1.00 87.82     0.021 A 
ENDBRANCH  12  13
ENDBRANCH  10  12
BRANCH   2  21
HETATM   21  O11   D T9001      -4.298   2.403  11.194  1.00 85.44    -0.327 OA
HETATM   22  C12   D T9001      -5.175   2.372  12.327  1.00 84.41     0.181 C 
ENDBRANCH   2  21
TORSDOF 3
ENDMDL
MODEL 5
REMARK VINA RESULT:    -6.663      4.225      6.971
REMARK INTER + INTRA:          -8.427
REMARK INTER:                  -7.941
REMARK INTRA:                  -0.486
REMARK UNBOUND:                -0.595
REMARK  3 active torsions:
REMARK  status: ('A' for Active; 'I' for Inactive)
REMARK    1  A    between atoms: C2_2  and  O11_20 
REMARK    2  A    between atoms: C10_10  and  N14_11 
REMARK    3  A    between atoms: N14_11  and  C15_12 
ROOT
HETATM    1  C1    D T9001       1.576   2.331  14.522  1.00 83.47     0.092 A 
HETATM    2  C2    D T9001       2.591   3.144  13.917  1.00 83.68     0.109 A 
HETATM    3  C3    D T9001       2.896   2.986  12.525  1.00 82.47     0.044 A 
HETATM    4  C4    D T9001       2.234   2.054  11.713  1.00 82.50     0.088 A 
HETATM    5  C5    D T9001       1.211   1.221  12.304  1.00 84.12     0.055 A 
HETATM    6  C6    D T9001       0.899   1.378  13.710  1.00 83.53     0.021 A 
HETATM    7  N7    D T9001       2.592   1.977  10.402  1.00 81.78    -0.224 NA
HETATM    8  C8    D T9001       1.936   1.071   9.634  1.00 83.59     0.200 A 
HETATM    9  N9    D T9001       0.960   0.231  10.055  1.00 84.30    -0.205 NA
HETATM   10  C10   D T9001       0.587   0.297  11.393  1.00 85.59     0.166 A 
HETATM   11  N13   D T9001       1.244   2.459  15.892  1.00 82.67    -0.099 NA
ENDROOT
BRANCH  10  12
HETATM   12  N14   D T9001      -0.447  -0.582  11.877  1.00 86.44    -0.227 NA
BRANCH  12  13
HETATM   13  C15   D T9001      -1.666  -0.904  11.215  1.00 87.38     0.084 A 
HETATM   14  C16   D T9001      -2.592   0.114  10.814  1.00 88.13     0.033 A 
HETATM   15  C17   D T9001      -3.804  -0.213  10.163  1.00 88.88     0.087 A 
HETATM   16  C18   D T9001      -4.110  -1.576   9.904  1.00 88.55     0.151 A 
HETATM   17 CL     D T9001      -4.886   1.057   9.705  1.00 89.26    -0.080 Cl
HETATM   18  C19   D T9001      -3.210  -2.610  10.289  1.00 87.62     0.032 A 
HETATM   19  F21   D T9001      -5.259  -1.905   9.290  1.00 88.92    -0.203 F 
HETATM   20  C20   D T9001      -1.991  -2.275  10.944  1.00 87.82     0.021 A 
ENDBRANCH  12  13
ENDBRANCH  10  12
BRANCH   2  21
HETATM   21  O11   D T9001       3.210   4.055  14.769  1.00 85.44    -0.327 OA
HETATM   22  C12   D T9001       2.940   5.449  14.577  1.00 84.41     0.181 C 
ENDBRANCH   2  21
TORSDOF 3
ENDMDL
MODEL 6
REMARK VINA RESULT:    -6.621      4.878      7.358
REMARK INTER + INTRA:          -8.377
REMARK INTER:                  -7.819
REMARK INTRA:                  -0.557
REMARK UNBOUND:                -0.595
REMARK  3 active torsions:
REMARK  status: ('A' for Active; 'I' for Inactive)
REMARK    1  A    between atoms: C2_2  and  O11_20 
REMARK    2  A    between atoms: C10_10  and  N14_11 
REMARK    3  A    between atoms: N14_11  and  C15_12 
ROOT
HETATM    1  C1    D T9001      -0.287   0.326  11.868  1.00 83.47     0.092 A 
HETATM    2  C2    D T9001       0.953   0.076  12.544  1.00 83.68     0.109 A 
HETATM    3  C3    D T9001       1.815  -0.977  12.091  1.00 82.47     0.044 A 
HETATM    4  C4    D T9001       1.493  -1.790  10.995  1.00 82.50     0.088 A 
HETATM    5  C5    D T9001       0.246  -1.559  10.301  1.00 84.12     0.055 A 
HETATM    6  C6    D T9001      -0.627  -0.496  10.756  1.00 83.53     0.021 A 
HETATM    7  N7    D T9001       2.374  -2.763  10.638  1.00 81.78    -0.224 NA
HETATM    8  C8    D T9001       2.044  -3.536   9.572  1.00 83.59     0.200 A 
HETATM    9  N9    D T9001       0.914  -3.430   8.833  1.00 84.30    -0.205 NA
HETATM   10  C10   D T9001       0.003  -2.441   9.189  1.00 85.59     0.166 A 
HETATM   11  N13   D T9001      -1.163   1.356  12.283  1.00 82.67    -0.099 NA
ENDROOT
BRANCH  10  12
HETATM   12  N14   D T9001      -1.211  -2.299   8.427  1.00 86.44    -0.227 NA
BRANCH  12  13
HETATM   13  C15   D T9001      -2.467  -2.904   8.712  1.00 87.38     0.084 A 
HETATM   14  C16   D T9001      -2.738  -4.268   8.362  1.00 88.13     0.033 A 
HETATM   15  C17   D T9001      -3.991  -4.861   8.641  1.00 88.88     0.087 A 
HETATM   16  C18   D T9001      -5.001  -4.091   9.278  1.00 88.55     0.151 A 
HETATM   17 CL     D T9001      -4.263  -6.510   8.192  1.00 89.26    -0.080 Cl
HETATM   18  C19   D T9001      -4.762  -2.735   9.640  1.00 87.62     0.032 A 
HETATM   19  F21   D T9001      -6.198  -4.638   9.548  1.00 88.92    -0.203 F 
HETATM   20  C20   D T9001      -3.499  -2.142   9.356  1.00 87.82     0.021 A 
ENDBRANCH  12  13
ENDBRANCH  10  12
BRANCH   2  21
HETATM   21  O11   D T9001       1.223   0.917  13.621  1.00 85.44    -0.327 OA
HETATM   22  C12   D T9001       2.222   1.930  13.451  1.00 84.41     0.181 C 
ENDBRANCH   2  21
TORSDOF 3
ENDMDL
MODEL 7
REMARK VINA RESULT:    -6.620      5.052      7.818
REMARK INTER + INTRA:          -8.376
REMARK INTER:                  -8.087
REMARK INTRA:                  -0.289
REMARK UNBOUND:                -0.595
REMARK  3 active torsions:
REMARK  status: ('A' for Active; 'I' for Inactive)
REMARK    1  A    between atoms: C2_2  and  O11_20 
REMARK    2  A    between atoms: C10_10  and  N14_11 
REMARK    3  A    between atoms: N14_11  and  C15_12 
ROOT
HETATM    1  C1    D T9001       1.146  -0.858  11.185  1.00 83.47     0.092 A 
HETATM    2  C2    D T9001       1.067   0.176  12.176  1.00 83.68     0.109 A 
HETATM    3  C3    D T9001      -0.166   0.879  12.378  1.00 82.47     0.044 A 
HETATM    4  C4    D T9001      -1.321   0.594  11.636  1.00 82.50     0.088 A 
HETATM    5  C5    D T9001      -1.263  -0.442  10.630  1.00 84.12     0.055 A 
HETATM    6  C6    D T9001      -0.019  -1.154  10.422  1.00 83.53     0.021 A 
HETATM    7  N7    D T9001      -2.446   1.313  11.900  1.00 81.78    -0.224 NA
HETATM    8  C8    D T9001      -3.554   1.018  11.173  1.00 83.59     0.200 A 
HETATM    9  N9    D T9001      -3.640   0.076  10.204  1.00 84.30    -0.205 NA
HETATM   10  C10   D T9001      -2.497  -0.664   9.922  1.00 85.59     0.166 A 
HETATM   11  N13   D T9001       2.345  -1.576  10.957  1.00 82.67    -0.099 NA
ENDROOT
BRANCH  10  12
HETATM   12  N14   D T9001      -2.551  -1.674   8.896  1.00 86.44    -0.227 NA
BRANCH  12  13
HETATM   13  C15   D T9001      -3.333  -2.863   8.916  1.00 87.38     0.084 A 
HETATM   14  C16   D T9001      -2.781  -4.129   8.533  1.00 88.13     0.033 A 
HETATM   15  C17   D T9001      -3.564  -5.306   8.548  1.00 88.88     0.087 A 
HETATM   16  C18   D T9001      -4.925  -5.232   8.949  1.00 88.55     0.151 A 
HETATM   17 CL     D T9001      -2.845  -6.806   8.071  1.00 89.26    -0.080 Cl
HETATM   18  C19   D T9001      -5.503  -3.989   9.338  1.00 87.62     0.032 A 
HETATM   19  F21   D T9001      -5.685  -6.339   8.966  1.00 88.92    -0.203 F 
HETATM   20  C20   D T9001      -4.709  -2.808   9.320  1.00 87.82     0.021 A 
ENDBRANCH  12  13
ENDBRANCH  10  12
BRANCH   2  21
HETATM   21  O11   D T9001       2.242   0.412  12.885  1.00 85.44    -0.327 OA
HETATM   22  C12   D T9001       2.807   1.728  12.836  1.00 84.41     0.181 C 
ENDBRANCH   2  21
TORSDOF 3
ENDMDL
MODEL 8
REMARK VINA RESULT:    -6.518      4.406      6.900
REMARK INTER + INTRA:          -8.257
REMARK INTER:                  -7.682
REMARK INTRA:                  -0.575
REMARK UNBOUND:                -0.595
REMARK  3 active torsions:
REMARK  status: ('A' for Active; 'I' for Inactive)
REMARK    1  A    between atoms: C2_2  and  O11_20 
REMARK    2  A    between atoms: C10_10  and  N14_11 
REMARK    3  A    between atoms: N14_11  and  C15_12 
ROOT
HETATM    1  C1    D T9001       1.542   1.200  13.555  1.00 83.47     0.092 A 
HETATM    2  C2    D T9001       2.783   1.645  12.990  1.00 83.68     0.109 A 
HETATM    3  C3    D T9001       3.227   1.113  11.734  1.00 82.47     0.044 A 
HETATM    4  C4    D T9001       2.489   0.159  11.020  1.00 82.50     0.088 A 
HETATM    5  C5    D T9001       1.237  -0.307  11.573  1.00 84.12     0.055 A 
HETATM    6  C6    D T9001       0.784   0.228  12.841  1.00 83.53     0.021 A 
HETATM    7  N7    D T9001       2.991  -0.286   9.836  1.00 81.78    -0.224 NA
HETATM    8  C8    D T9001       2.258  -1.206   9.160  1.00 83.59     0.200 A 
HETATM    9  N9    D T9001       1.073  -1.727   9.559  1.00 84.30    -0.205 NA
HETATM   10  C10   D T9001       0.550  -1.284  10.769  1.00 85.59     0.166 A 
HETATM   11  N13   D T9001       1.068   1.702  14.790  1.00 82.67    -0.099 NA
ENDROOT
BRANCH  10  12
HETATM   12  N14   D T9001      -0.708  -1.817  11.226  1.00 86.44    -0.227 NA
BRANCH  12  13
HETATM   13  C15   D T9001      -2.000  -1.486  10.731  1.00 87.38     0.084 A 
HETATM   14  C16   D T9001      -2.902  -2.495  10.256  1.00 88.13     0.033 A 
HETATM   15  C17   D T9001      -4.182  -2.160   9.759  1.00 88.88     0.087 A 
HETATM   16  C18   D T9001      -4.582  -0.797   9.726  1.00 88.55     0.151 A 
HETATM   17 CL     D T9001      -5.226  -3.420   9.195  1.00 89.26    -0.080 Cl
HETATM   18  C19   D T9001      -3.710   0.228  10.192  1.00 87.62     0.032 A 
HETATM   19  F21   D T9001      -5.793  -0.460   9.253  1.00 88.92    -0.203 F 
HETATM   20  C20   D T9001      -2.422  -0.115  10.692  1.00 87.82     0.021 A 
ENDBRANCH  12  13
ENDBRANCH  10  12
BRANCH   2  21
HETATM   21  O11   D T9001       3.470   2.596  13.739  1.00 85.44    -0.327 OA
HETATM   22  C12   D T9001       3.508   3.941  13.248  1.00 84.41     0.181 C 
ENDBRANCH   2  21
TORSDOF 3
ENDMDL
MODEL 9
REMARK VINA RESULT:    -6.274      5.190      7.014
REMARK INTER + INTRA:          -7.969
REMARK INTER:                  -7.400
REMARK INTRA:                  -0.569
REMARK UNBOUND:                -0.595
REMARK  3 active torsions:
REMARK  status: ('A' for Active; 'I' for Inactive)
REMARK    1  A    between atoms: C2_2  and  O11_20 
REMARK    2  A    between atoms: C10_10  and  N14_11 
REMARK    3  A    between atoms: N14_11  and  C15_12 
ROOT
HETATM    1  C1    D T9001      -3.609  -7.463   8.159  1.00 83.47     0.092 A 
HETATM    2  C2    D T9001      -4.997  -7.403   8.517  1.00 83.68     0.109 A 
HETATM    3  C3    D T9001      -5.582  -6.151   8.899  1.00 82.47     0.044 A 
HETATM    4  C4    D T9001      -4.844  -4.959   8.940  1.00 82.50     0.088 A 
HETATM    5  C5    D T9001      -3.443  -4.998   8.586  1.00 84.12     0.055 A 
HETATM    6  C6    D T9001      -2.848  -6.261   8.200  1.00 83.53     0.021 A 
HETATM    7  N7    D T9001      -5.487  -3.820   9.313  1.00 81.78    -0.224 NA
HETATM    8  C8    D T9001      -4.755  -2.677   9.342  1.00 83.59     0.200 A 
HETATM    9  N9    D T9001      -3.440  -2.569   9.036  1.00 84.30    -0.205 NA
HETATM   10  C10   D T9001      -2.770  -3.727   8.656  1.00 85.59     0.166 A 
HETATM   11  N13   D T9001      -2.995  -8.679   7.774  1.00 82.67    -0.099 NA
ENDROOT
BRANCH  10  12
HETATM   12  N14   D T9001      -1.370  -3.650   8.325  1.00 86.44    -0.227 NA
BRANCH  12  13
HETATM   13  C15   D T9001      -0.284  -3.575   9.242  1.00 87.38     0.084 A 
HETATM   14  C16   D T9001       0.948  -2.930   8.893  1.00 88.13     0.033 A 
HETATM   15  C17   D T9001       2.025  -2.864   9.806  1.00 88.88     0.087 A 
HETATM   16  C18   D T9001       1.885  -3.450  11.093  1.00 88.55     0.151 A 
HETATM   17 CL     D T9001       3.490  -2.076   9.329  1.00 89.26    -0.080 Cl
HETATM   18  C19   D T9001       0.674  -4.097  11.470  1.00 87.62     0.032 A 
HETATM   19  F21   D T9001       2.900  -3.401  11.971  1.00 88.92    -0.203 F 
HETATM   20  C20   D T9001      -0.408  -4.160  10.547  1.00 87.82     0.021 A 
ENDBRANCH  12  13
ENDBRANCH  10  12
BRANCH   2  21
HETATM   21  O11   D T9001      -5.680  -8.614   8.454  1.00 85.44    -0.327 OA
HETATM   22  C12   D T9001      -6.649  -8.788   7.413  1.00 84.41     0.181 C 
ENDBRANCH   2  21
TORSDOF 3
ENDMDL
