MODEL 1
REMARK VINA RESULT:    -7.590      0.000      0.000
REMARK INTER + INTRA:          -9.451
REMARK INTER:                  -8.922
REMARK INTRA:                  -0.529
REMARK UNBOUND:                -0.529
REMARK  3 active torsions:
REMARK  status: ('A' for Active; 'I' for Inactive)
REMARK    1  A    between atoms: C2_2  and  O11_20 
REMARK    2  A    between atoms: C10_10  and  N14_11 
REMARK    3  A    between atoms: N14_11  and  C15_12 
ROOT
HETATM    1  C1    D T9001      -2.722  -5.205   4.217  1.00 83.47     0.092 A 
HETATM    2  C2    D T9001      -2.045  -6.453   4.016  1.00 83.68     0.109 A 
HETATM    3  C3    D T9001      -2.772  -7.685   4.123  1.00 82.47     0.044 A 
HETATM    4  C4    D T9001      -4.140  -7.725   4.422  1.00 82.50     0.088 A 
HETATM    5  C5    D T9001      -4.842  -6.479   4.632  1.00 84.12     0.055 A 
HETATM    6  C6    D T9001      -4.113  -5.231   4.525  1.00 83.53     0.021 A 
HETATM    7  N7    D T9001      -4.744  -8.942   4.502  1.00 81.78    -0.224 NA
HETATM    8  C8    D T9001      -6.072  -8.956   4.788  1.00 83.59     0.200 A 
HETATM    9  N9    D T9001      -6.848  -7.869   5.006  1.00 84.30    -0.205 NA
HETATM   10  C10   D T9001      -6.243  -6.619   4.932  1.00 85.59     0.166 A 
HETATM   11  N13   D T9001      -2.042  -3.969   4.118  1.00 82.67    -0.099 NA
ENDROOT
BRANCH  10  12
HETATM   12  N14   D T9001      -7.039  -5.441   5.160  1.00 86.44    -0.227 NA
BRANCH  12  13
HETATM   13  C15   D T9001      -7.309  -4.829   6.416  1.00 87.38     0.084 A 
HETATM   14  C16   D T9001      -6.257  -4.298   7.233  1.00 88.13     0.033 A 
HETATM   15  C17   D T9001      -6.532  -3.697   8.483  1.00 88.88     0.087 A 
HETATM   16  C18   D T9001      -7.874  -3.622   8.940  1.00 88.55     0.151 A 
HETATM   17 CL     D T9001      -5.220  -3.077   9.427  1.00 89.26    -0.080 Cl
HETATM   18  C19   D T9001      -8.942  -4.137   8.151  1.00 87.62     0.032 A 
HETATM   19  F21   D T9001      -8.153  -3.056  10.128  1.00 88.92    -0.203 F 
HETATM   20  C20   D T9001      -8.660  -4.742   6.894  1.00 87.82     0.021 A 
ENDBRANCH  12  13
ENDBRANCH  10  12
BRANCH   2  21
HETATM   21  O11   D T9001      -0.688  -6.354   3.717  1.00 85.44    -0.327 OA
HETATM   22  C12   D T9001      -0.270  -6.646   2.380  1.00 84.41     0.181 C 
ENDBRANCH   2  21
TORSDOF 3
ENDMDL
MODEL 2
REMARK VINA RESULT:    -7.561      2.819      4.134
REMARK INTER + INTRA:          -9.417
REMARK INTER:                  -8.954
REMARK INTRA:                  -0.462
REMARK UNBOUND:                -0.529
REMARK  3 active torsions:
REMARK  status: ('A' for Active; 'I' for Inactive)
REMARK    1  A    between atoms: C2_2  and  O11_20 
REMARK    2  A    between atoms: C10_10  and  N14_11 
REMARK    3  A    between atoms: N14_11  and  C15_12 
ROOT
HETATM    1  C1    D T9001      -4.996  -7.815   2.725  1.00 83.47     0.092 A 
HETATM    2  C2    D T9001      -4.133  -7.599   1.600  1.00 83.68     0.109 A 
HETATM    3  C3    D T9001      -2.901  -6.884   1.773  1.00 82.47     0.044 A 
HETATM    4  C4    D T9001      -2.497  -6.376   3.014  1.00 82.50     0.088 A 
HETATM    5  C5    D T9001      -3.354  -6.579   4.160  1.00 84.12     0.055 A 
HETATM    6  C6    D T9001      -4.598  -7.301   3.992  1.00 83.53     0.021 A 
HETATM    7  N7    D T9001      -1.311  -5.712   3.080  1.00 81.78    -0.224 NA
HETATM    8  C8    D T9001      -0.937  -5.232   4.294  1.00 83.59     0.200 A 
HETATM    9  N9    D T9001      -1.639  -5.350   5.445  1.00 84.30    -0.205 NA
HETATM   10  C10   D T9001      -2.855  -6.024   5.392  1.00 85.59     0.166 A 
HETATM   11  N13   D T9001      -6.217  -8.518   2.597  1.00 82.67    -0.099 NA
ENDROOT
BRANCH  10  12
HETATM   12  N14   D T9001      -3.630  -6.167   6.597  1.00 86.44    -0.227 NA
BRANCH  12  13
HETATM   13  C15   D T9001      -3.846  -5.172   7.591  1.00 87.38     0.084 A 
HETATM   14  C16   D T9001      -3.452  -5.376   8.955  1.00 88.13     0.033 A 
HETATM   15  C17   D T9001      -3.677  -4.385   9.939  1.00 88.88     0.087 A 
HETATM   16  C18   D T9001      -4.307  -3.167   9.570  1.00 88.55     0.151 A 
HETATM   17 CL     D T9001      -3.183  -4.690  11.569  1.00 89.26    -0.080 Cl
HETATM   18  C19   D T9001      -4.708  -2.933   8.224  1.00 87.62     0.032 A 
HETATM   19  F21   D T9001      -4.531  -2.217  10.494  1.00 88.92    -0.203 F 
HETATM   20  C20   D T9001      -4.481  -3.933   7.238  1.00 87.82     0.021 A 
ENDBRANCH  12  13
ENDBRANCH  10  12
BRANCH   2  21
HETATM   21  O11   D T9001      -4.581  -8.130   0.394  1.00 85.44    -0.327 OA
HETATM   22  C12   D T9001      -3.627  -8.321  -0.656  1.00 84.41     0.181 C 
ENDBRANCH   2  21
TORSDOF 3
ENDMDL
MODEL 3
REMARK VINA RESULT:    -7.352      2.225      3.722
REMARK INTER + INTRA:          -9.171
REMARK INTER:                  -8.607
REMARK INTRA:                  -0.564
REMARK UNBOUND:                -0.529
REMARK  3 active torsions:
REMARK  status: ('A' for Active; 'I' for Inactive)
REMARK    1  A    between atoms: C2_2  and  O11_20 
REMARK    2  A    between atoms: C10_10  and  N14_11 
REMARK    3  A    between atoms: N14_11  and  C15_12 
ROOT
HETATM    1  C1    D T9001      -4.906  -7.474   3.506  1.00 83.47     0.092 A 
HETATM    2  C2    D T9001      -4.006  -7.147   2.438  1.00 83.68     0.109 A 
HETATM    3  C3    D T9001      -2.892  -6.277   2.685  1.00 82.47     0.044 A 
HETATM    4  C4    D T9001      -2.640  -5.720   3.945  1.00 82.50     0.088 A 
HETATM    5  C5    D T9001      -3.537  -6.032   5.035  1.00 84.12     0.055 A 
HETATM    6  C6    D T9001      -4.663  -6.912   4.792  1.00 83.53     0.021 A 
HETATM    7  N7    D T9001      -1.558  -4.907   4.083  1.00 81.78    -0.224 NA
HETATM    8  C8    D T9001      -1.330  -4.382   5.314  1.00 83.59     0.200 A 
HETATM    9  N9    D T9001      -2.086  -4.591   6.418  1.00 84.30    -0.205 NA
HETATM   10  C10   D T9001      -3.197  -5.417   6.291  1.00 85.59     0.166 A 
HETATM   11  N13   D T9001      -6.014  -8.330   3.305  1.00 82.67    -0.099 NA
ENDROOT
BRANCH  10  12
HETATM   12  N14   D T9001      -4.024  -5.659   7.445  1.00 86.44    -0.227 NA
BRANCH  12  13
HETATM   13  C15   D T9001      -4.972  -4.763   8.014  1.00 87.38     0.084 A 
HETATM   14  C16   D T9001      -6.363  -4.824   7.670  1.00 88.13     0.033 A 
HETATM   15  C17   D T9001      -7.297  -3.926   8.234  1.00 88.88     0.087 A 
HETATM   16  C18   D T9001      -6.850  -2.943   9.156  1.00 88.55     0.151 A 
HETATM   17 CL     D T9001      -8.962  -4.045   7.777  1.00 89.26    -0.080 Cl
HETATM   18  C19   D T9001      -5.477  -2.858   9.520  1.00 87.62     0.032 A 
HETATM   19  F21   D T9001      -7.725  -2.079   9.699  1.00 88.92    -0.203 F 
HETATM   20  C20   D T9001      -4.539  -3.763   8.950  1.00 87.82     0.021 A 
ENDBRANCH  12  13
ENDBRANCH  10  12
BRANCH   2  21
HETATM   21  O11   D T9001      -4.301  -7.732   1.210  1.00 85.44    -0.327 OA
HETATM   22  C12   D T9001      -3.211  -8.170   0.392  1.00 84.41     0.181 C 
ENDBRANCH   2  21
TORSDOF 3
ENDMDL
MODEL 4
REMARK VINA RESULT:    -7.334      4.209      6.463
REMARK INTER + INTRA:          -9.150
REMARK INTER:                  -8.565
REMARK INTRA:                  -0.584
REMARK UNBOUND:                -0.529
REMARK  3 active torsions:
REMARK  status: ('A' for Active; 'I' for Inactive)
REMARK    1  A    between atoms: C2_2  and  O11_20 
REMARK    2  A    between atoms: C10_10  and  N14_11 
REMARK    3  A    between atoms: N14_11  and  C15_12 
ROOT
HETATM    1  C1    D T9001      -3.124  -4.146   8.043  1.00 83.47     0.092 A 
HETATM    2  C2    D T9001      -4.072  -4.192   9.119  1.00 83.68     0.109 A 
HETATM    3  C3    D T9001      -5.452  -4.468   8.842  1.00 82.47     0.044 A 
HETATM    4  C4    D T9001      -5.926  -4.698   7.543  1.00 82.50     0.088 A 
HETATM    5  C5    D T9001      -4.989  -4.653   6.444  1.00 84.12     0.055 A 
HETATM    6  C6    D T9001      -3.593  -4.375   6.718  1.00 83.53     0.021 A 
HETATM    7  N7    D T9001      -7.253  -4.954   7.380  1.00 81.78    -0.224 NA
HETATM    8  C8    D T9001      -7.688  -5.178   6.113  1.00 83.59     0.200 A 
HETATM    9  N9    D T9001      -6.923  -5.166   4.997  1.00 84.30    -0.205 NA
HETATM   10  C10   D T9001      -5.565  -4.903   5.149  1.00 85.59     0.166 A 
HETATM   11  N13   D T9001      -1.754  -3.880   8.274  1.00 82.67    -0.099 NA
ENDROOT
BRANCH  10  12
HETATM   12  N14   D T9001      -4.722  -4.881   3.982  1.00 86.44    -0.227 NA
BRANCH  12  13
HETATM   13  C15   D T9001      -3.982  -5.973   3.448  1.00 87.38     0.084 A 
HETATM   14  C16   D T9001      -2.593  -5.848   3.117  1.00 88.13     0.033 A 
HETATM   15  C17   D T9001      -1.867  -6.935   2.579  1.00 88.88     0.087 A 
HETATM   16  C18   D T9001      -2.526  -8.174   2.360  1.00 88.55     0.151 A 
HETATM   17 CL     D T9001      -0.192  -6.723   2.196  1.00 89.26    -0.080 Cl
HETATM   18  C19   D T9001      -3.904  -8.331   2.681  1.00 87.62     0.032 A 
HETATM   19  F21   D T9001      -1.851  -9.217   1.847  1.00 88.92    -0.203 F 
HETATM   20  C20   D T9001      -4.631  -7.234   3.221  1.00 87.82     0.021 A 
ENDBRANCH  12  13
ENDBRANCH  10  12
BRANCH   2  21
HETATM   21  O11   D T9001      -3.546  -3.962  10.387  1.00 85.44    -0.327 OA
HETATM   22  C12   D T9001      -3.380  -5.082  11.262  1.00 84.41     0.181 C 
ENDBRANCH   2  21
TORSDOF 3
ENDMDL
MODEL 5
REMARK VINA RESULT:    -7.327      4.364      6.882
REMARK INTER + INTRA:          -9.141
REMARK INTER:                  -8.616
REMARK INTRA:                  -0.526
REMARK UNBOUND:                -0.529
REMARK  3 active torsions:
REMARK  status: ('A' for Active; 'I' for Inactive)
REMARK    1  A    between atoms: C2_2  and  O11_20 
REMARK    2  A    between atoms: C10_10  and  N14_11 
REMARK    3  A    between atoms: N14_11  and  C15_12 
ROOT
HETATM    1  C1    D T9001      -3.041  -4.350   7.747  1.00 83.47     0.092 A 
HETATM    2  C2    D T9001      -4.137  -3.509   8.134  1.00 83.68     0.109 A 
HETATM    3  C3    D T9001      -5.440  -3.734   7.579  1.00 82.47     0.044 A 
HETATM    4  C4    D T9001      -5.696  -4.756   6.656  1.00 82.50     0.088 A 
HETATM    5  C5    D T9001      -4.606  -5.613   6.248  1.00 84.12     0.055 A 
HETATM    6  C6    D T9001      -3.287  -5.392   6.807  1.00 83.53     0.021 A 
HETATM    7  N7    D T9001      -6.966  -4.893   6.185  1.00 81.78    -0.224 NA
HETATM    8  C8    D T9001      -7.192  -5.893   5.295  1.00 83.59     0.200 A 
HETATM    9  N9    D T9001      -6.267  -6.765   4.830  1.00 84.30    -0.205 NA
HETATM   10  C10   D T9001      -4.964  -6.635   5.300  1.00 85.59     0.166 A 
HETATM   11  N13   D T9001      -1.742  -4.163   8.273  1.00 82.67    -0.099 NA
ENDROOT
BRANCH  10  12
HETATM   12  N14   D T9001      -3.954  -7.545   4.824  1.00 86.44    -0.227 NA
BRANCH  12  13
HETATM   13  C15   D T9001      -3.106  -7.359   3.697  1.00 87.38     0.084 A 
HETATM   14  C16   D T9001      -3.492  -7.799   2.388  1.00 88.13     0.033 A 
HETATM   15  C17   D T9001      -2.641  -7.618   1.273  1.00 88.88     0.087 A 
HETATM   16  C18   D T9001      -1.380  -6.991   1.454  1.00 88.55     0.151 A 
HETATM   17 CL     D T9001      -3.159  -8.173  -0.282  1.00 89.26    -0.080 Cl
HETATM   18  C19   D T9001      -0.968  -6.541   2.741  1.00 87.62     0.032 A 
HETATM   19  F21   D T9001      -0.557  -6.814   0.405  1.00 88.92    -0.203 F 
HETATM   20  C20   D T9001      -1.827  -6.726   3.859  1.00 87.82     0.021 A 
ENDBRANCH  12  13
ENDBRANCH  10  12
BRANCH   2  21
HETATM   21  O11   D T9001      -3.827  -2.514   9.057  1.00 85.44    -0.327 OA
HETATM   22  C12   D T9001      -4.834  -2.129   9.998  1.00 84.41     0.181 C 
ENDBRANCH   2  21
TORSDOF 3
ENDMDL
MODEL 6
REMARK VINA RESULT:    -7.278      2.567      3.166
REMARK INTER + INTRA:          -9.084
REMARK INTER:                  -8.486
REMARK INTRA:                  -0.598
REMARK UNBOUND:                -0.529
REMARK  3 active torsions:
REMARK  status: ('A' for Active; 'I' for Inactive)
REMARK    1  A    between atoms: C2_2  and  O11_20 
REMARK    2  A    between atoms: C10_10  and  N14_11 
REMARK    3  A    between atoms: N14_11  and  C15_12 
ROOT
HETATM    1  C1    D T9001      -2.773  -6.486   3.603  1.00 83.47     0.092 A 
HETATM    2  C2    D T9001      -3.420  -7.594   2.963  1.00 83.68     0.109 A 
HETATM    3  C3    D T9001      -4.778  -7.916   3.294  1.00 82.47     0.044 A 
HETATM    4  C4    D T9001      -5.515  -7.183   4.234  1.00 82.50     0.088 A 
HETATM    5  C5    D T9001      -4.881  -6.065   4.894  1.00 84.12     0.055 A 
HETATM    6  C6    D T9001      -3.509  -5.734   4.563  1.00 83.53     0.021 A 
HETATM    7  N7    D T9001      -6.798  -7.563   4.481  1.00 81.78    -0.224 NA
HETATM    8  C8    D T9001      -7.495  -6.835   5.392  1.00 83.59     0.200 A 
HETATM    9  N9    D T9001      -7.026  -5.768   6.080  1.00 84.30    -0.205 NA
HETATM   10  C10   D T9001      -5.715  -5.371   5.840  1.00 85.59     0.166 A 
HETATM   11  N13   D T9001      -1.436  -6.135   3.303  1.00 82.67    -0.099 NA
ENDROOT
BRANCH  10  12
HETATM   12  N14   D T9001      -5.184  -4.241   6.557  1.00 86.44    -0.227 NA
BRANCH  12  13
HETATM   13  C15   D T9001      -4.669  -4.242   7.883  1.00 87.38     0.084 A 
HETATM   14  C16   D T9001      -4.139  -5.432   8.481  1.00 88.13     0.033 A 
HETATM   15  C17   D T9001      -3.636  -5.427   9.803  1.00 88.88     0.087 A 
HETATM   16  C18   D T9001      -3.658  -4.221  10.552  1.00 88.55     0.151 A 
HETATM   17 CL     D T9001      -3.013  -6.896  10.472  1.00 89.26    -0.080 Cl
HETATM   18  C19   D T9001      -4.175  -3.022   9.986  1.00 87.62     0.032 A 
HETATM   19  F21   D T9001      -3.186  -4.200  11.811  1.00 88.92    -0.203 F 
HETATM   20  C20   D T9001      -4.681  -3.032   8.657  1.00 87.82     0.021 A 
ENDBRANCH  12  13
ENDBRANCH  10  12
BRANCH   2  21
HETATM   21  O11   D T9001      -2.643  -8.283   2.035  1.00 85.44    -0.327 OA
HETATM   22  C12   D T9001      -3.014  -8.205   0.655  1.00 84.41     0.181 C 
ENDBRANCH   2  21
TORSDOF 3
ENDMDL
MODEL 7
REMARK VINA RESULT:    -7.254      2.852      4.639
REMARK INTER + INTRA:          -9.056
REMARK INTER:                  -8.564
REMARK INTRA:                  -0.492
REMARK UNBOUND:                -0.529
REMARK  3 active torsions:
REMARK  status: ('A' for Active; 'I' for Inactive)
REMARK    1  A    between atoms: C2_2  and  O11_20 
REMARK    2  A    between atoms: C10_10  and  N14_11 
REMARK    3  A    between atoms: N14_11  and  C15_12 
ROOT
HETATM    1  C1    D T9001      -5.591  -6.968   5.226  1.00 83.47     0.092 A 
HETATM    2  C2    D T9001      -5.269  -8.027   4.314  1.00 83.68     0.109 A 
HETATM    3  C3    D T9001      -3.968  -8.079   3.711  1.00 82.47     0.044 A 
HETATM    4  C4    D T9001      -2.980  -7.122   3.977  1.00 82.50     0.088 A 
HETATM    5  C5    D T9001      -3.284  -6.044   4.890  1.00 84.12     0.055 A 
HETATM    6  C6    D T9001      -4.596  -5.987   5.503  1.00 83.53     0.021 A 
HETATM    7  N7    D T9001      -1.775  -7.255   3.358  1.00 81.78    -0.224 NA
HETATM    8  C8    D T9001      -0.830  -6.319   3.634  1.00 83.59     0.200 A 
HETATM    9  N9    D T9001      -0.980  -5.262   4.466  1.00 84.30    -0.205 NA
HETATM   10  C10   D T9001      -2.208  -5.112   5.103  1.00 85.59     0.166 A 
HETATM   11  N13   D T9001      -6.861  -6.883   5.844  1.00 82.67    -0.099 NA
ENDROOT
BRANCH  10  12
HETATM   12  N14   D T9001      -2.402  -3.997   5.994  1.00 86.44    -0.227 NA
BRANCH  12  13
HETATM   13  C15   D T9001      -2.683  -4.063   7.388  1.00 87.38     0.084 A 
HETATM   14  C16   D T9001      -3.650  -3.198   7.999  1.00 88.13     0.033 A 
HETATM   15  C17   D T9001      -3.918  -3.264   9.386  1.00 88.88     0.087 A 
HETATM   16  C18   D T9001      -3.215  -4.201  10.188  1.00 88.55     0.151 A 
HETATM   17 CL     D T9001      -5.093  -2.192  10.068  1.00 89.26    -0.080 Cl
HETATM   18  C19   D T9001      -2.251  -5.075   9.611  1.00 87.62     0.032 A 
HETATM   19  F21   D T9001      -3.456  -4.274  11.509  1.00 88.92    -0.203 F 
HETATM   20  C20   D T9001      -1.983  -5.005   8.215  1.00 87.82     0.021 A 
ENDBRANCH  12  13
ENDBRANCH  10  12
BRANCH   2  21
HETATM   21  O11   D T9001      -6.286  -8.951   4.091  1.00 85.44    -0.327 OA
HETATM   22  C12   D T9001      -6.965  -8.916   2.831  1.00 84.41     0.181 C 
ENDBRANCH   2  21
TORSDOF 3
ENDMDL
MODEL 8
REMARK VINA RESULT:    -7.165      4.467      7.669
REMARK INTER + INTRA:          -8.951
REMARK INTER:                  -8.649
REMARK INTRA:                  -0.302
REMARK UNBOUND:                -0.529
REMARK  3 active torsions:
REMARK  status: ('A' for Active; 'I' for Inactive)
REMARK    1  A    between atoms: C2_2  and  O11_20 
REMARK    2  A    between atoms: C10_10  and  N14_11 
REMARK    3  A    between atoms: N14_11  and  C15_12 
ROOT
HETATM    1  C1    D T9001      -6.476  -5.099   6.844  1.00 83.47     0.092 A 
HETATM    2  C2    D T9001      -6.478  -3.952   7.705  1.00 83.68     0.109 A 
HETATM    3  C3    D T9001      -5.235  -3.361   8.109  1.00 82.47     0.044 A 
HETATM    4  C4    D T9001      -3.995  -3.864   7.694  1.00 82.50     0.088 A 
HETATM    5  C5    D T9001      -3.969  -5.022   6.830  1.00 84.12     0.055 A 
HETATM    6  C6    D T9001      -5.222  -5.623   6.417  1.00 83.53     0.021 A 
HETATM    7  N7    D T9001      -2.869  -3.235   8.129  1.00 81.78    -0.224 NA
HETATM    8  C8    D T9001      -1.679  -3.738   7.711  1.00 83.59     0.200 A 
HETATM    9  N9    D T9001      -1.510  -4.811   6.904  1.00 84.30    -0.205 NA
HETATM   10  C10   D T9001      -2.652  -5.466   6.454  1.00 85.59     0.166 A 
HETATM   11  N13   D T9001      -7.680  -5.709   6.421  1.00 82.67    -0.099 NA
ENDROOT
BRANCH  10  12
HETATM   12  N14   D T9001      -2.510  -6.613   5.596  1.00 86.44    -0.227 NA
BRANCH  12  13
HETATM   13  C15   D T9001      -1.894  -6.643   4.313  1.00 87.38     0.084 A 
HETATM   14  C16   D T9001      -2.590  -7.129   3.158  1.00 88.13     0.033 A 
HETATM   15  C17   D T9001      -1.968  -7.163   1.888  1.00 88.88     0.087 A 
HETATM   16  C18   D T9001      -0.629  -6.709   1.755  1.00 88.55     0.151 A 
HETATM   17 CL     D T9001      -2.858  -7.764   0.531  1.00 89.26    -0.080 Cl
HETATM   18  C19   D T9001       0.088  -6.218   2.883  1.00 87.62     0.032 A 
HETATM   19  F21   D T9001      -0.023  -6.737   0.556  1.00 88.92    -0.203 F 
HETATM   20  C20   D T9001      -0.541  -6.187   4.158  1.00 87.82     0.021 A 
ENDBRANCH  12  13
ENDBRANCH  10  12
BRANCH   2  21
HETATM   21  O11   D T9001      -7.737  -3.491   8.081  1.00 85.44    -0.327 OA
HETATM   22  C12   D T9001      -8.134  -3.654   9.447  1.00 84.41     0.181 C 
ENDBRANCH   2  21
TORSDOF 3
ENDMDL
MODEL 9
REMARK VINA RESULT:    -7.140      3.524      4.236
REMARK INTER + INTRA:          -8.921
REMARK INTER:                  -8.356
REMARK INTRA:                  -0.565
REMARK UNBOUND:                -0.529
REMARK  3 active torsions:
REMARK  status: ('A' for Active; 'I' for Inactive)
REMARK    1  A    between atoms: C2_2  and  O11_20 
REMARK    2  A    between atoms: C10_10  and  N14_11 
REMARK    3  A    between atoms: N14_11  and  C15_12 
ROOT
HETATM    1  C1    D T9001      -3.962  -3.436   8.021  1.00 83.47     0.092 A 
HETATM    2  C2    D T9001      -2.687  -4.093   8.034  1.00 83.68     0.109 A 
HETATM    3  C3    D T9001      -2.395  -5.101   7.056  1.00 82.47     0.044 A 
HETATM    4  C4    D T9001      -3.316  -5.481   6.071  1.00 82.50     0.088 A 
HETATM    5  C5    D T9001      -4.608  -4.834   6.043  1.00 84.12     0.055 A 
HETATM    6  C6    D T9001      -4.909  -3.814   7.027  1.00 83.53     0.021 A 
HETATM    7  N7    D T9001      -2.947  -6.446   5.186  1.00 81.78    -0.224 NA
HETATM    8  C8    D T9001      -3.854  -6.795   4.237  1.00 83.59     0.200 A 
HETATM    9  N9    D T9001      -5.095  -6.273   4.095  1.00 84.30    -0.205 NA
HETATM   10  C10   D T9001      -5.486  -5.287   4.995  1.00 85.59     0.166 A 
HETATM   11  N13   D T9001      -4.288  -2.434   8.966  1.00 82.67    -0.099 NA
ENDROOT
BRANCH  10  12
HETATM   12  N14   D T9001      -6.800  -4.711   4.875  1.00 86.44    -0.227 NA
BRANCH  12  13
HETATM   13  C15   D T9001      -7.983  -5.145   5.537  1.00 87.38     0.084 A 
HETATM   14  C16   D T9001      -8.744  -6.261   5.057  1.00 88.13     0.033 A 
HETATM   15  C17   D T9001      -9.922  -6.683   5.715  1.00 88.88     0.087 A 
HETATM   16  C18   D T9001     -10.361  -5.985   6.871  1.00 88.55     0.151 A 
HETATM   17 CL     D T9001     -10.801  -8.035   5.087  1.00 89.26    -0.080 Cl
HETATM   18  C19   D T9001      -9.627  -4.874   7.374  1.00 87.62     0.032 A 
HETATM   19  F21   D T9001     -11.481  -6.371   7.507  1.00 88.92    -0.203 F 
HETATM   20  C20   D T9001      -8.442  -4.453   6.708  1.00 87.82     0.021 A 
ENDBRANCH  12  13
ENDBRANCH  10  12
BRANCH   2  21
HETATM   21  O11   D T9001      -1.810  -3.673   9.030  1.00 85.44    -0.327 OA
HETATM   22  C12   D T9001      -0.681  -2.881   8.644  1.00 84.41     0.181 C 
ENDBRANCH   2  21
TORSDOF 3
ENDMDL
