MODEL 1
REMARK VINA RESULT:    -4.292      0.000      0.000
REMARK INTER + INTRA:          -5.597
REMARK INTER:                  -5.045
REMARK INTRA:                  -0.552
REMARK UNBOUND:                -0.552
REMARK  3 active torsions:
REMARK  status: ('A' for Active; 'I' for Inactive)
REMARK    1  A    between atoms: C2_2  and  O11_20 
REMARK    2  A    between atoms: C10_10  and  N14_11 
REMARK    3  A    between atoms: N14_11  and  C15_12 
ROOT
HETATM    1  C1    D T9001     -44.001  -1.798  22.067  1.00 83.47     0.092 A 
HETATM    2  C2    D T9001     -44.795  -2.903  21.616  1.00 83.68     0.109 A 
HETATM    3  C3    D T9001     -44.912  -4.077  22.434  1.00 82.47     0.044 A 
HETATM    4  C4    D T9001     -44.275  -4.193  23.676  1.00 82.50     0.088 A 
HETATM    5  C5    D T9001     -43.467  -3.091  24.148  1.00 84.12     0.055 A 
HETATM    6  C6    D T9001     -43.345  -1.903  23.326  1.00 83.53     0.021 A 
HETATM    7  N7    D T9001     -44.447  -5.343  24.382  1.00 81.78    -0.224 NA
HETATM    8  C8    D T9001     -43.823  -5.433  25.584  1.00 83.59     0.200 A 
HETATM    9  N9    D T9001     -43.041  -4.480  26.145  1.00 84.30    -0.205 NA
HETATM   10  C10   D T9001     -42.854  -3.299  25.433  1.00 85.59     0.166 A 
HETATM   11  N13   D T9001     -43.861  -0.622  21.291  1.00 82.67    -0.099 NA
ENDROOT
BRANCH  10  12
HETATM   12  N14   D T9001     -42.025  -2.265  25.999  1.00 86.44    -0.227 NA
BRANCH  12  13
HETATM   13  C15   D T9001     -40.629  -2.345  26.262  1.00 87.38     0.084 A 
HETATM   14  C16   D T9001     -39.735  -3.024  25.369  1.00 88.13     0.033 A 
HETATM   15  C17   D T9001     -38.351  -3.105  25.640  1.00 88.88     0.087 A 
HETATM   16  C18   D T9001     -37.835  -2.505  26.818  1.00 88.55     0.151 A 
HETATM   17 CL     D T9001     -37.321  -3.942  24.528  1.00 89.26    -0.080 Cl
HETATM   18  C19   D T9001     -38.694  -1.821  27.724  1.00 87.62     0.032 A 
HETATM   19  F21   D T9001     -36.520  -2.575  27.093  1.00 88.92    -0.203 F 
HETATM   20  C20   D T9001     -40.088  -1.743  27.448  1.00 87.82     0.021 A 
ENDBRANCH  12  13
ENDBRANCH  10  12
BRANCH   2  21
HETATM   21  O11   D T9001     -45.408  -2.731  20.379  1.00 85.44    -0.327 OA
HETATM   22  C12   D T9001     -46.813  -2.453  20.356  1.00 84.41     0.181 C 
ENDBRANCH   2  21
TORSDOF 3
ENDMDL
MODEL 2
REMARK VINA RESULT:    -4.189      6.074      9.671
REMARK INTER + INTRA:          -5.476
REMARK INTER:                  -4.889
REMARK INTRA:                  -0.587
REMARK UNBOUND:                -0.552
REMARK  3 active torsions:
REMARK  status: ('A' for Active; 'I' for Inactive)
REMARK    1  A    between atoms: C2_2  and  O11_20 
REMARK    2  A    between atoms: C10_10  and  N14_11 
REMARK    3  A    between atoms: N14_11  and  C15_12 
ROOT
HETATM    1  C1    D T9001     -37.375  -4.027  31.755  1.00 83.47     0.092 A 
HETATM    2  C2    D T9001     -36.339  -4.969  32.062  1.00 83.68     0.109 A 
HETATM    3  C3    D T9001     -35.244  -5.148  31.152  1.00 82.47     0.044 A 
HETATM    4  C4    D T9001     -35.139  -4.429  29.954  1.00 82.50     0.088 A 
HETATM    5  C5    D T9001     -36.175  -3.477  29.623  1.00 84.12     0.055 A 
HETATM    6  C6    D T9001     -37.283  -3.293  30.539  1.00 83.53     0.021 A 
HETATM    7  N7    D T9001     -34.063  -4.664  29.156  1.00 81.78    -0.224 NA
HETATM    8  C8    D T9001     -33.980  -3.954  28.001  1.00 83.59     0.200 A 
HETATM    9  N9    D T9001     -34.875  -3.034  27.570  1.00 84.30    -0.205 NA
HETATM   10  C10   D T9001     -35.982  -2.785  28.376  1.00 85.59     0.166 A 
HETATM   11  N13   D T9001     -38.470  -3.821  32.627  1.00 82.67    -0.099 NA
ENDROOT
BRANCH  10  12
HETATM   12  N14   D T9001     -36.956  -1.814  27.946  1.00 86.44    -0.227 NA
BRANCH  12  13
HETATM   13  C15   D T9001     -38.150  -2.074  27.216  1.00 87.38     0.084 A 
HETATM   14  C16   D T9001     -39.414  -1.542  27.634  1.00 88.13     0.033 A 
HETATM   15  C17   D T9001     -40.597  -1.809  26.909  1.00 88.88     0.087 A 
HETATM   16  C18   D T9001     -40.533  -2.620  25.745  1.00 88.55     0.151 A 
HETATM   17 CL     D T9001     -42.096  -1.144  27.464  1.00 89.26    -0.080 Cl
HETATM   18  C19   D T9001     -39.292  -3.161  25.302  1.00 87.62     0.032 A 
HETATM   19  F21   D T9001     -41.649  -2.887  25.044  1.00 88.92    -0.203 F 
HETATM   20  C20   D T9001     -38.104  -2.891  26.036  1.00 87.82     0.021 A 
ENDBRANCH  12  13
ENDBRANCH  10  12
BRANCH   2  21
HETATM   21  O11   D T9001     -36.491  -5.650  33.267  1.00 85.44    -0.327 OA
HETATM   22  C12   D T9001     -35.315  -5.939  34.032  1.00 84.41     0.181 C 
ENDBRANCH   2  21
TORSDOF 3
ENDMDL
MODEL 3
REMARK VINA RESULT:    -3.928      4.442      6.498
REMARK INTER + INTRA:          -5.170
REMARK INTER:                  -4.575
REMARK INTRA:                  -0.594
REMARK UNBOUND:                -0.552
REMARK  3 active torsions:
REMARK  status: ('A' for Active; 'I' for Inactive)
REMARK    1  A    between atoms: C2_2  and  O11_20 
REMARK    2  A    between atoms: C10_10  and  N14_11 
REMARK    3  A    between atoms: N14_11  and  C15_12 
ROOT
HETATM    1  C1    D T9001     -40.805  -1.466  27.908  1.00 83.47     0.092 A 
HETATM    2  C2    D T9001     -41.286  -1.745  26.586  1.00 83.68     0.109 A 
HETATM    3  C3    D T9001     -40.393  -2.287  25.602  1.00 82.47     0.044 A 
HETATM    4  C4    D T9001     -39.048  -2.562  25.880  1.00 82.50     0.088 A 
HETATM    5  C5    D T9001     -38.542  -2.286  27.205  1.00 84.12     0.055 A 
HETATM    6  C6    D T9001     -39.439  -1.738  28.203  1.00 83.53     0.021 A 
HETATM    7  N7    D T9001     -38.279  -3.078  24.883  1.00 81.78    -0.224 NA
HETATM    8  C8    D T9001     -36.979  -3.341  25.175  1.00 83.59     0.200 A 
HETATM    9  N9    D T9001     -36.377  -3.132  26.370  1.00 84.30    -0.205 NA
HETATM   10  C10   D T9001     -37.151  -2.602  27.398  1.00 85.59     0.166 A 
HETATM   11  N13   D T9001     -41.653  -0.933  28.907  1.00 82.67    -0.099 NA
ENDROOT
BRANCH  10  12
HETATM   12  N14   D T9001     -36.541  -2.364  28.681  1.00 86.44    -0.227 NA
BRANCH  12  13
HETATM   13  C15   D T9001     -36.347  -3.318  29.719  1.00 87.38     0.084 A 
HETATM   14  C16   D T9001     -37.218  -3.376  30.856  1.00 88.13     0.033 A 
HETATM   15  C17   D T9001     -37.015  -4.321  31.887  1.00 88.88     0.087 A 
HETATM   16  C18   D T9001     -35.927  -5.229  31.797  1.00 88.55     0.151 A 
HETATM   17 CL     D T9001     -38.097  -4.342  33.238  1.00 89.26    -0.080 Cl
HETATM   18  C19   D T9001     -35.045  -5.199  30.679  1.00 87.62     0.032 A 
HETATM   19  F21   D T9001     -35.718  -6.133  32.770  1.00 88.92    -0.203 F 
HETATM   20  C20   D T9001     -35.252  -4.245  29.644  1.00 87.82     0.021 A 
ENDBRANCH  12  13
ENDBRANCH  10  12
BRANCH   2  21
HETATM   21  O11   D T9001     -42.630  -1.457  26.369  1.00 85.44    -0.327 OA
HETATM   22  C12   D T9001     -43.533  -2.554  26.185  1.00 84.41     0.181 C 
ENDBRANCH   2  21
TORSDOF 3
ENDMDL
MODEL 4
REMARK VINA RESULT:    -3.899      1.968      3.546
REMARK INTER + INTRA:          -5.135
REMARK INTER:                  -4.569
REMARK INTRA:                  -0.567
REMARK UNBOUND:                -0.552
REMARK  3 active torsions:
REMARK  status: ('A' for Active; 'I' for Inactive)
REMARK    1  A    between atoms: C2_2  and  O11_20 
REMARK    2  A    between atoms: C10_10  and  N14_11 
REMARK    3  A    between atoms: N14_11  and  C15_12 
ROOT
HETATM    1  C1    D T9001     -43.744  -4.282  25.207  1.00 83.47     0.092 A 
HETATM    2  C2    D T9001     -44.438  -4.073  23.970  1.00 83.68     0.109 A 
HETATM    3  C3    D T9001     -44.060  -2.983  23.116  1.00 82.47     0.044 A 
HETATM    4  C4    D T9001     -43.024  -2.098  23.443  1.00 82.50     0.088 A 
HETATM    5  C5    D T9001     -42.314  -2.290  24.686  1.00 84.12     0.055 A 
HETATM    6  C6    D T9001     -42.691  -3.388  25.553  1.00 83.53     0.021 A 
HETATM    7  N7    D T9001     -42.736  -1.096  22.569  1.00 81.78    -0.224 NA
HETATM    8  C8    D T9001     -41.726  -0.252  22.903  1.00 83.59     0.200 A 
HETATM    9  N9    D T9001     -40.981  -0.316  24.032  1.00 84.30    -0.205 NA
HETATM   10  C10   D T9001     -41.266  -1.335  24.936  1.00 85.59     0.166 A 
HETATM   11  N13   D T9001     -44.085  -5.346  26.075  1.00 82.67    -0.099 NA
ENDROOT
BRANCH  10  12
HETATM   12  N14   D T9001     -40.494  -1.431  26.149  1.00 86.44    -0.227 NA
BRANCH  12  13
HETATM   13  C15   D T9001     -39.249  -2.099  26.313  1.00 87.38     0.084 A 
HETATM   14  C16   D T9001     -38.429  -1.883  27.469  1.00 88.13     0.033 A 
HETATM   15  C17   D T9001     -37.191  -2.546  27.623  1.00 88.88     0.087 A 
HETATM   16  C18   D T9001     -36.748  -3.441  26.613  1.00 88.55     0.151 A 
HETATM   17 CL     D T9001     -36.241  -2.242  29.038  1.00 89.26    -0.080 Cl
HETATM   18  C19   D T9001     -37.540  -3.680  25.454  1.00 87.62     0.032 A 
HETATM   19  F21   D T9001     -35.571  -4.078  26.742  1.00 88.92    -0.203 F 
HETATM   20  C20   D T9001     -38.786  -3.009  25.303  1.00 87.82     0.021 A 
ENDBRANCH  12  13
ENDBRANCH  10  12
BRANCH   2  21
HETATM   21  O11   D T9001     -45.453  -4.984  23.694  1.00 85.44    -0.327 OA
HETATM   22  C12   D T9001     -46.740  -4.471  23.329  1.00 84.41     0.181 C 
ENDBRANCH   2  21
TORSDOF 3
ENDMDL
MODEL 5
REMARK VINA RESULT:    -3.846      6.847     10.775
REMARK INTER + INTRA:          -5.072
REMARK INTER:                  -4.470
REMARK INTRA:                  -0.602
REMARK UNBOUND:                -0.552
REMARK  3 active torsions:
REMARK  status: ('A' for Active; 'I' for Inactive)
REMARK    1  A    between atoms: C2_2  and  O11_20 
REMARK    2  A    between atoms: C10_10  and  N14_11 
REMARK    3  A    between atoms: N14_11  and  C15_12 
ROOT
HETATM    1  C1    D T9001     -35.252  -4.568  31.668  1.00 83.47     0.092 A 
HETATM    2  C2    D T9001     -34.606  -3.697  32.605  1.00 83.68     0.109 A 
HETATM    3  C3    D T9001     -33.993  -2.484  32.145  1.00 82.47     0.044 A 
HETATM    4  C4    D T9001     -33.999  -2.105  30.797  1.00 82.50     0.088 A 
HETATM    5  C5    D T9001     -34.642  -2.970  29.835  1.00 84.12     0.055 A 
HETATM    6  C6    D T9001     -35.263  -4.197  30.293  1.00 83.53     0.021 A 
HETATM    7  N7    D T9001     -33.394  -0.934  30.456  1.00 81.78    -0.224 NA
HETATM    8  C8    D T9001     -33.415  -0.584  29.145  1.00 83.59     0.200 A 
HETATM    9  N9    D T9001     -33.980  -1.298  28.142  1.00 84.30    -0.205 NA
HETATM   10  C10   D T9001     -34.600  -2.498  28.476  1.00 85.59     0.166 A 
HETATM   11  N13   D T9001     -35.870  -5.773  32.081  1.00 82.67    -0.099 NA
ENDROOT
BRANCH  10  12
HETATM   12  N14   D T9001     -35.210  -3.284  27.433  1.00 86.44    -0.227 NA
BRANCH  12  13
HETATM   13  C15   D T9001     -36.507  -3.100  26.878  1.00 87.38     0.084 A 
HETATM   14  C16   D T9001     -37.490  -2.281  27.526  1.00 88.13     0.033 A 
HETATM   15  C17   D T9001     -38.778  -2.108  26.972  1.00 88.88     0.087 A 
HETATM   16  C18   D T9001     -39.107  -2.758  25.754  1.00 88.55     0.151 A 
HETATM   17 CL     D T9001     -39.926  -1.111  27.802  1.00 89.26    -0.080 Cl
HETATM   18  C19   D T9001     -38.153  -3.575  25.084  1.00 87.62     0.032 A 
HETATM   19  F21   D T9001     -40.329  -2.606  25.215  1.00 88.92    -0.203 F 
HETATM   20  C20   D T9001     -36.857  -3.748  25.646  1.00 87.82     0.021 A 
ENDBRANCH  12  13
ENDBRANCH  10  12
BRANCH   2  21
HETATM   21  O11   D T9001     -34.635  -4.121  33.931  1.00 85.44    -0.327 OA
HETATM   22  C12   D T9001     -33.395  -4.479  34.552  1.00 84.41     0.181 C 
ENDBRANCH   2  21
TORSDOF 3
ENDMDL
MODEL 6
REMARK VINA RESULT:    -3.582      6.489      9.479
REMARK INTER + INTRA:          -4.762
REMARK INTER:                  -4.343
REMARK INTRA:                  -0.419
REMARK UNBOUND:                -0.552
REMARK  3 active torsions:
REMARK  status: ('A' for Active; 'I' for Inactive)
REMARK    1  A    between atoms: C2_2  and  O11_20 
REMARK    2  A    between atoms: C10_10  and  N14_11 
REMARK    3  A    between atoms: N14_11  and  C15_12 
ROOT
HETATM    1  C1    D T9001     -35.888  -4.643  31.029  1.00 83.47     0.092 A 
HETATM    2  C2    D T9001     -36.443  -4.965  32.312  1.00 83.68     0.109 A 
HETATM    3  C3    D T9001     -37.478  -4.141  32.868  1.00 82.47     0.044 A 
HETATM    4  C4    D T9001     -37.980  -3.015  32.202  1.00 82.50     0.088 A 
HETATM    5  C5    D T9001     -37.433  -2.672  30.910  1.00 84.12     0.055 A 
HETATM    6  C6    D T9001     -36.387  -3.500  30.343  1.00 83.53     0.021 A 
HETATM    7  N7    D T9001     -38.964  -2.297  32.808  1.00 81.78    -0.224 NA
HETATM    8  C8    D T9001     -39.439  -1.212  32.143  1.00 83.59     0.200 A 
HETATM    9  N9    D T9001     -39.019  -0.779  30.931  1.00 84.30    -0.205 NA
HETATM   10  C10   D T9001     -38.012  -1.503  30.301  1.00 85.59     0.166 A 
HETATM   11  N13   D T9001     -34.868  -5.431  30.445  1.00 82.67    -0.099 NA
ENDROOT
BRANCH  10  12
HETATM   12  N14   D T9001     -37.539  -1.067  29.012  1.00 86.44    -0.227 NA
BRANCH  12  13
HETATM   13  C15   D T9001     -37.634  -1.783  27.785  1.00 87.38     0.084 A 
HETATM   14  C16   D T9001     -38.903  -2.097  27.198  1.00 88.13     0.033 A 
HETATM   15  C17   D T9001     -38.991  -2.814  25.983  1.00 88.88     0.087 A 
HETATM   16  C18   D T9001     -37.800  -3.233  25.333  1.00 88.55     0.151 A 
HETATM   17 CL     D T9001     -40.552  -3.168  25.323  1.00 89.26    -0.080 Cl
HETATM   18  C19   D T9001     -36.524  -2.935  25.889  1.00 87.62     0.032 A 
HETATM   19  F21   D T9001     -37.865  -3.918  24.178  1.00 88.92    -0.203 F 
HETATM   20  C20   D T9001     -36.440  -2.214  27.113  1.00 87.82     0.021 A 
ENDBRANCH  12  13
ENDBRANCH  10  12
BRANCH   2  21
HETATM   21  O11   D T9001     -35.910  -6.095  32.925  1.00 85.44    -0.327 OA
HETATM   22  C12   D T9001     -35.338  -5.948  34.230  1.00 84.41     0.181 C 
ENDBRANCH   2  21
TORSDOF 3
ENDMDL
MODEL 7
REMARK VINA RESULT:    -3.565      5.127      7.909
REMARK INTER + INTRA:          -4.742
REMARK INTER:                  -4.167
REMARK INTRA:                  -0.575
REMARK UNBOUND:                -0.552
REMARK  3 active torsions:
REMARK  status: ('A' for Active; 'I' for Inactive)
REMARK    1  A    between atoms: C2_2  and  O11_20 
REMARK    2  A    between atoms: C10_10  and  N14_11 
REMARK    3  A    between atoms: N14_11  and  C15_12 
ROOT
HETATM    1  C1    D T9001     -44.673  -5.508  26.381  1.00 83.47     0.092 A 
HETATM    2  C2    D T9001     -43.983  -4.834  27.441  1.00 83.68     0.109 A 
HETATM    3  C3    D T9001     -43.248  -3.633  27.164  1.00 82.47     0.044 A 
HETATM    4  C4    D T9001     -43.172  -3.080  25.879  1.00 82.50     0.088 A 
HETATM    5  C5    D T9001     -43.857  -3.746  24.795  1.00 84.12     0.055 A 
HETATM    6  C6    D T9001     -44.602  -4.959  25.069  1.00 83.53     0.021 A 
HETATM    7  N7    D T9001     -42.453  -1.937  25.713  1.00 81.78    -0.224 NA
HETATM    8  C8    D T9001     -42.396  -1.416  24.461  1.00 83.59     0.200 A 
HETATM    9  N9    D T9001     -42.988  -1.934  23.359  1.00 84.30    -0.205 NA
HETATM   10  C10   D T9001     -43.725  -3.104  23.513  1.00 85.59     0.166 A 
HETATM   11  N13   D T9001     -45.411  -6.693  26.613  1.00 82.67    -0.099 NA
ENDROOT
BRANCH  10  12
HETATM   12  N14   D T9001     -44.367  -3.684  22.361  1.00 86.44    -0.227 NA
BRANCH  12  13
HETATM   13  C15   D T9001     -45.596  -3.272  21.775  1.00 87.38     0.084 A 
HETATM   14  C16   D T9001     -46.834  -3.354  22.495  1.00 88.13     0.033 A 
HETATM   15  C17   D T9001     -48.052  -2.949  21.905  1.00 88.88     0.087 A 
HETATM   16  C18   D T9001     -48.053  -2.454  20.575  1.00 88.55     0.151 A 
HETATM   17 CL     D T9001     -49.516  -3.076  22.821  1.00 89.26    -0.080 Cl
HETATM   18  C19   D T9001     -46.841  -2.356  19.834  1.00 87.62     0.032 A 
HETATM   19  F21   D T9001     -49.203  -2.066  19.997  1.00 88.92    -0.203 F 
HETATM   20  C20   D T9001     -45.616  -2.766  20.431  1.00 87.82     0.021 A 
ENDBRANCH  12  13
ENDBRANCH  10  12
BRANCH   2  21
HETATM   21  O11   D T9001     -44.097  -5.425  28.696  1.00 85.44    -0.327 OA
HETATM   22  C12   D T9001     -43.432  -4.799  29.799  1.00 84.41     0.181 C 
ENDBRANCH   2  21
TORSDOF 3
ENDMDL
MODEL 8
REMARK VINA RESULT:    -3.428      5.135      8.015
REMARK INTER + INTRA:          -4.581
REMARK INTER:                  -4.026
REMARK INTRA:                  -0.555
REMARK UNBOUND:                -0.552
REMARK  3 active torsions:
REMARK  status: ('A' for Active; 'I' for Inactive)
REMARK    1  A    between atoms: C2_2  and  O11_20 
REMARK    2  A    between atoms: C10_10  and  N14_11 
REMARK    3  A    between atoms: N14_11  and  C15_12 
ROOT
HETATM    1  C1    D T9001     -46.164  -7.367  27.416  1.00 83.47     0.092 A 
HETATM    2  C2    D T9001     -45.551  -6.975  28.652  1.00 83.68     0.109 A 
HETATM    3  C3    D T9001     -44.538  -5.959  28.654  1.00 82.47     0.044 A 
HETATM    4  C4    D T9001     -44.112  -5.321  27.482  1.00 82.50     0.088 A 
HETATM    5  C5    D T9001     -44.715  -5.704  26.225  1.00 84.12     0.055 A 
HETATM    6  C6    D T9001     -45.739  -6.729  26.216  1.00 83.53     0.021 A 
HETATM    7  N7    D T9001     -43.147  -4.367  27.584  1.00 81.78    -0.224 NA
HETATM    8  C8    D T9001     -42.753  -3.759  26.436  1.00 83.59     0.200 A 
HETATM    9  N9    D T9001     -43.231  -4.019  25.196  1.00 84.30    -0.205 NA
HETATM   10  C10   D T9001     -44.217  -4.993  25.077  1.00 85.59     0.166 A 
HETATM   11  N13   D T9001     -47.168  -8.364  27.371  1.00 82.67    -0.099 NA
ENDROOT
BRANCH  10  12
HETATM   12  N14   D T9001     -44.746  -5.297  23.772  1.00 86.44    -0.227 NA
BRANCH  12  13
HETATM   13  C15   D T9001     -45.442  -4.405  22.908  1.00 87.38     0.084 A 
HETATM   14  C16   D T9001     -46.832  -4.109  23.099  1.00 88.13     0.033 A 
HETATM   15  C17   D T9001     -47.519  -3.227  22.234  1.00 88.88     0.087 A 
HETATM   16  C18   D T9001     -46.820  -2.625  21.155  1.00 88.55     0.151 A 
HETATM   17 CL     D T9001     -49.198  -2.911  22.511  1.00 89.26    -0.080 Cl
HETATM   18  C19   D T9001     -45.439  -2.896  20.939  1.00 87.62     0.032 A 
HETATM   19  F21   D T9001     -47.459  -1.786  20.321  1.00 88.92    -0.203 F 
HETATM   20  C20   D T9001     -44.752  -3.785  21.812  1.00 87.82     0.021 A 
ENDBRANCH  12  13
ENDBRANCH  10  12
BRANCH   2  21
HETATM   21  O11   D T9001     -46.016  -7.639  29.784  1.00 85.44    -0.327 OA
HETATM   22  C12   D T9001     -45.134  -8.559  30.436  1.00 84.41     0.181 C 
ENDBRANCH   2  21
TORSDOF 3
ENDMDL
MODEL 9
REMARK VINA RESULT:    -3.343      1.879      2.453
REMARK INTER + INTRA:          -4.482
REMARK INTER:                  -3.896
REMARK INTRA:                  -0.585
REMARK UNBOUND:                -0.552
REMARK  3 active torsions:
REMARK  status: ('A' for Active; 'I' for Inactive)
REMARK    1  A    between atoms: C2_2  and  O11_20 
REMARK    2  A    between atoms: C10_10  and  N14_11 
REMARK    3  A    between atoms: N14_11  and  C15_12 
ROOT
HETATM    1  C1    D T9001     -44.969  -2.871  22.164  1.00 83.47     0.092 A 
HETATM    2  C2    D T9001     -46.376  -3.127  22.060  1.00 83.68     0.109 A 
HETATM    3  C3    D T9001     -47.008  -4.025  22.983  1.00 82.47     0.044 A 
HETATM    4  C4    D T9001     -46.299  -4.677  24.001  1.00 82.50     0.088 A 
HETATM    5  C5    D T9001     -44.879  -4.435  24.121  1.00 84.12     0.055 A 
HETATM    6  C6    D T9001     -44.235  -3.529  23.192  1.00 83.53     0.021 A 
HETATM    7  N7    D T9001     -46.984  -5.509  24.830  1.00 81.78    -0.224 NA
HETATM    8  C8    D T9001     -46.278  -6.127  25.811  1.00 83.59     0.200 A 
HETATM    9  N9    D T9001     -44.950  -5.992  26.038  1.00 84.30    -0.205 NA
HETATM   10  C10   D T9001     -44.236  -5.145  25.196  1.00 85.59     0.166 A 
HETATM   11  N13   D T9001     -44.309  -1.990  21.275  1.00 82.67    -0.099 NA
ENDROOT
BRANCH  10  12
HETATM   12  N14   D T9001     -42.820  -4.980  25.407  1.00 86.44    -0.227 NA
BRANCH  12  13
HETATM   13  C15   D T9001     -42.177  -3.874  26.029  1.00 87.38     0.084 A 
HETATM   14  C16   D T9001     -40.918  -3.377  25.557  1.00 88.13     0.033 A 
HETATM   15  C17   D T9001     -40.281  -2.282  26.183  1.00 88.88     0.087 A 
HETATM   16  C18   D T9001     -40.898  -1.664  27.303  1.00 88.55     0.151 A 
HETATM   17 CL     D T9001     -38.759  -1.728  25.572  1.00 89.26    -0.080 Cl
HETATM   18  C19   D T9001     -42.149  -2.132  27.795  1.00 87.62     0.032 A 
HETATM   19  F21   D T9001     -40.304  -0.623  27.913  1.00 88.92    -0.203 F 
HETATM   20  C20   D T9001     -42.786  -3.236  27.162  1.00 87.82     0.021 A 
ENDBRANCH  12  13
ENDBRANCH  10  12
BRANCH   2  21
HETATM   21  O11   D T9001     -47.030  -2.449  21.035  1.00 85.44    -0.327 OA
HETATM   22  C12   D T9001     -48.462  -2.476  21.015  1.00 84.41     0.181 C 
ENDBRANCH   2  21
TORSDOF 3
ENDMDL
