MODEL 1
REMARK VINA RESULT:    -5.996      0.000      0.000
REMARK INTER + INTRA:          -7.662
REMARK INTER:                  -7.047
REMARK INTRA:                  -0.615
REMARK UNBOUND:                -0.615
REMARK  3 active torsions:
REMARK  status: ('A' for Active; 'I' for Inactive)
REMARK    1  A    between atoms: C2_2  and  O11_20 
REMARK    2  A    between atoms: C10_10  and  N14_11 
REMARK    3  A    between atoms: N14_11  and  C15_12 
ROOT
HETATM    1  C1    D T9001      -3.691 -18.187  -4.365  1.00 83.47     0.074 A 
HETATM    2  C2    D T9001      -4.482 -17.215  -5.059  1.00 83.68     0.105 A 
HETATM    3  C3    D T9001      -4.080 -16.765  -6.362  1.00 82.47     0.044 A 
HETATM    4  C4    D T9001      -2.927 -17.244  -6.998  1.00 82.50     0.084 A 
HETATM    5  C5    D T9001      -2.113 -18.224  -6.314  1.00 84.12     0.037 A 
HETATM    6  C6    D T9001      -2.515 -18.681  -4.998  1.00 83.53     0.074 A 
HETATM    7  N7    D T9001      -2.628 -16.760  -8.233  1.00 81.78    -0.224 NA
HETATM    8  C8    D T9001      -1.508 -17.241  -8.832  1.00 83.59     0.200 A 
HETATM    9  N9    D T9001      -0.658 -18.157  -8.309  1.00 84.30    -0.205 NA
HETATM   10  C10   D T9001      -0.951 -18.658  -7.045  1.00 85.59     0.162 A 
HETATM   11  N13   D T9001      -4.054 -18.658  -3.081  1.00 82.67    -0.103 NA
ENDROOT
BRANCH  10  12
HETATM   12  N14   D T9001      -0.068 -19.632  -6.457  1.00 86.44    -0.227 NA
BRANCH  12  13
HETATM   13  C15   D T9001       1.002 -19.373  -5.556  1.00 87.38     0.084 A 
HETATM   14  C16   D T9001       1.979 -18.360  -5.823  1.00 88.13     0.033 A 
HETATM   15  C17   D T9001       3.044 -18.113  -4.927  1.00 88.88     0.087 A 
HETATM   16  C18   D T9001       3.149 -18.885  -3.740  1.00 88.55     0.151 A 
HETATM   17 CL     D T9001       4.197 -16.879  -5.305  1.00 89.26    -0.080 Cl
HETATM   18  C19   D T9001       2.193 -19.899  -3.444  1.00 87.62     0.032 A 
HETATM   19  F21   D T9001       4.157 -18.666  -2.878  1.00 88.92    -0.203 F 
HETATM   20  C20   D T9001       1.124 -20.143  -4.350  1.00 87.82     0.021 A 
ENDBRANCH  12  13
ENDBRANCH  10  12
BRANCH   2  21
HETATM   21  O11   D T9001      -5.619 -16.778  -4.384  1.00 85.44    -0.327 OA
HETATM   22  C12   D T9001      -6.899 -17.143  -4.911  1.00 84.41     0.181 C 
ENDBRANCH   2  21
TORSDOF 3
ENDMDL
MODEL 2
REMARK VINA RESULT:    -5.822     14.354     15.179
REMARK INTER + INTRA:          -7.458
REMARK INTER:                  -7.110
REMARK INTRA:                  -0.348
REMARK UNBOUND:                -0.615
REMARK  3 active torsions:
REMARK  status: ('A' for Active; 'I' for Inactive)
REMARK    1  A    between atoms: C2_2  and  O11_20 
REMARK    2  A    between atoms: C10_10  and  N14_11 
REMARK    3  A    between atoms: N14_11  and  C15_12 
ROOT
HETATM    1  C1    D T9001      -4.618  -3.138  -3.382  1.00 83.47     0.074 A 
HETATM    2  C2    D T9001      -5.829  -3.739  -3.857  1.00 83.68     0.105 A 
HETATM    3  C3    D T9001      -6.650  -4.498  -2.957  1.00 82.47     0.044 A 
HETATM    4  C4    D T9001      -6.314  -4.682  -1.609  1.00 82.50     0.084 A 
HETATM    5  C5    D T9001      -5.095  -4.087  -1.110  1.00 84.12     0.037 A 
HETATM    6  C6    D T9001      -4.262  -3.319  -2.016  1.00 83.53     0.074 A 
HETATM    7  N7    D T9001      -7.155  -5.416  -0.833  1.00 81.78    -0.224 NA
HETATM    8  C8    D T9001      -6.812  -5.577   0.471  1.00 83.59     0.200 A 
HETATM    9  N9    D T9001      -5.704  -5.077   1.068  1.00 84.30    -0.205 NA
HETATM   10  C10   D T9001      -4.834  -4.326   0.285  1.00 85.59     0.162 A 
HETATM   11  N13   D T9001      -3.782  -2.381  -4.237  1.00 82.67    -0.103 NA
ENDROOT
BRANCH  10  12
HETATM   12  N14   D T9001      -3.645  -3.781   0.887  1.00 86.44    -0.227 NA
BRANCH  12  13
HETATM   13  C15   D T9001      -2.524  -4.513   1.369  1.00 87.38     0.084 A 
HETATM   14  C16   D T9001      -1.183  -4.149   1.020  1.00 88.13     0.033 A 
HETATM   15  C17   D T9001      -0.074  -4.885   1.497  1.00 88.88     0.087 A 
HETATM   16  C18   D T9001      -0.295  -6.008   2.337  1.00 88.55     0.151 A 
HETATM   17 CL     D T9001       1.522  -4.401   1.038  1.00 89.26    -0.080 Cl
HETATM   18  C19   D T9001      -1.615  -6.395   2.706  1.00 87.62     0.032 A 
HETATM   19  F21   D T9001       0.747  -6.722   2.798  1.00 88.92    -0.203 F 
HETATM   20  C20   D T9001      -2.726  -5.651   2.221  1.00 87.82     0.021 A 
ENDBRANCH  12  13
ENDBRANCH  10  12
BRANCH   2  21
HETATM   21  O11   D T9001      -6.117  -3.520  -5.202  1.00 85.44    -0.327 OA
HETATM   22  C12   D T9001      -6.206  -4.658  -6.066  1.00 84.41     0.181 C 
ENDBRANCH   2  21
TORSDOF 3
ENDMDL
MODEL 3
REMARK VINA RESULT:    -5.641     14.058     15.556
REMARK INTER + INTRA:          -7.246
REMARK INTER:                  -6.744
REMARK INTRA:                  -0.501
REMARK UNBOUND:                -0.615
REMARK  3 active torsions:
REMARK  status: ('A' for Active; 'I' for Inactive)
REMARK    1  A    between atoms: C2_2  and  O11_20 
REMARK    2  A    between atoms: C10_10  and  N14_11 
REMARK    3  A    between atoms: N14_11  and  C15_12 
ROOT
HETATM    1  C1    D T9001      -6.737  -4.465  -3.904  1.00 83.47     0.074 A 
HETATM    2  C2    D T9001      -6.388  -3.385  -4.780  1.00 83.68     0.105 A 
HETATM    3  C3    D T9001      -6.801  -3.418  -6.154  1.00 82.47     0.044 A 
HETATM    4  C4    D T9001      -7.546  -4.478  -6.688  1.00 82.50     0.084 A 
HETATM    5  C5    D T9001      -7.906  -5.579  -5.823  1.00 84.12     0.037 A 
HETATM    6  C6    D T9001      -7.491  -5.550  -4.434  1.00 83.53     0.074 A 
HETATM    7  N7    D T9001      -7.893  -4.420  -8.002  1.00 81.78    -0.224 NA
HETATM    8  C8    D T9001      -8.617  -5.456  -8.497  1.00 83.59     0.200 A 
HETATM    9  N9    D T9001      -9.022  -6.546  -7.802  1.00 84.30    -0.205 NA
HETATM   10  C10   D T9001      -8.672  -6.619  -6.458  1.00 85.59     0.162 A 
HETATM   11  N13   D T9001      -6.351  -4.469  -2.543  1.00 82.67    -0.103 NA
ENDROOT
BRANCH  10  12
HETATM   12  N14   D T9001      -9.084  -7.765  -5.689  1.00 86.44    -0.227 NA
BRANCH  12  13
HETATM   13  C15   D T9001     -10.005  -7.773  -4.604  1.00 87.38     0.084 A 
HETATM   14  C16   D T9001      -9.901  -8.727  -3.540  1.00 88.13     0.033 A 
HETATM   15  C17   D T9001     -10.823  -8.735  -2.469  1.00 88.88     0.087 A 
HETATM   16  C18   D T9001     -11.874  -7.779  -2.448  1.00 88.55     0.151 A 
HETATM   17 CL     D T9001     -10.651  -9.914  -1.214  1.00 89.26    -0.080 Cl
HETATM   18  C19   D T9001     -12.003  -6.816  -3.489  1.00 87.62     0.032 A 
HETATM   19  F21   D T9001     -12.761  -7.774  -1.439  1.00 88.92    -0.203 F 
HETATM   20  C20   D T9001     -11.072  -6.814  -4.564  1.00 87.82     0.021 A 
ENDBRANCH  12  13
ENDBRANCH  10  12
BRANCH   2  21
HETATM   21  O11   D T9001      -5.654  -2.357  -4.195  1.00 85.44    -0.327 OA
HETATM   22  C12   D T9001      -4.258  -2.267  -4.501  1.00 84.41     0.181 C 
ENDBRANCH   2  21
TORSDOF 3
ENDMDL
MODEL 4
REMARK VINA RESULT:    -5.500     12.551     14.622
REMARK INTER + INTRA:          -7.080
REMARK INTER:                  -6.567
REMARK INTRA:                  -0.513
REMARK UNBOUND:                -0.615
REMARK  3 active torsions:
REMARK  status: ('A' for Active; 'I' for Inactive)
REMARK    1  A    between atoms: C2_2  and  O11_20 
REMARK    2  A    between atoms: C10_10  and  N14_11 
REMARK    3  A    between atoms: N14_11  and  C15_12 
ROOT
HETATM    1  C1    D T9001      -7.410  -4.971  -3.330  1.00 83.47     0.074 A 
HETATM    2  C2    D T9001      -6.466  -4.043  -3.881  1.00 83.68     0.105 A 
HETATM    3  C3    D T9001      -6.436  -3.813  -5.297  1.00 82.47     0.044 A 
HETATM    4  C4    D T9001      -7.304  -4.466  -6.182  1.00 82.50     0.084 A 
HETATM    5  C5    D T9001      -8.262  -5.408  -5.648  1.00 84.12     0.037 A 
HETATM    6  C6    D T9001      -8.296  -5.644  -4.217  1.00 83.53     0.074 A 
HETATM    7  N7    D T9001      -7.202  -4.182  -7.508  1.00 81.78    -0.224 NA
HETATM    8  C8    D T9001      -8.056  -4.823  -8.347  1.00 83.59     0.200 A 
HETATM    9  N9    D T9001      -8.998  -5.725  -7.983  1.00 84.30    -0.205 NA
HETATM   10  C10   D T9001      -9.112  -6.027  -6.630  1.00 85.59     0.162 A 
HETATM   11  N13   D T9001      -7.473  -5.224  -1.939  1.00 82.67    -0.103 NA
ENDROOT
BRANCH  10  12
HETATM   12  N14   D T9001     -10.102  -6.983  -6.207  1.00 86.44    -0.227 NA
BRANCH  12  13
HETATM   13  C15   D T9001      -9.860  -8.229  -5.564  1.00 87.38     0.084 A 
HETATM   14  C16   D T9001     -10.572  -8.613  -4.381  1.00 88.13     0.033 A 
HETATM   15  C17   D T9001     -10.322  -9.850  -3.743  1.00 88.88     0.087 A 
HETATM   16  C18   D T9001      -9.344 -10.727  -4.283  1.00 88.55     0.151 A 
HETATM   17 CL     D T9001     -11.209 -10.258  -2.315  1.00 89.26    -0.080 Cl
HETATM   18  C19   D T9001      -8.621 -10.376  -5.459  1.00 87.62     0.032 A 
HETATM   19  F21   D T9001      -9.091 -11.904  -3.688  1.00 88.92    -0.203 F 
HETATM   20  C20   D T9001      -8.877  -9.130  -6.096  1.00 87.82     0.021 A 
ENDBRANCH  12  13
ENDBRANCH  10  12
BRANCH   2  21
HETATM   21  O11   D T9001      -5.632  -3.420  -2.957  1.00 85.44    -0.327 OA
HETATM   22  C12   D T9001      -4.222  -3.643  -3.062  1.00 84.41     0.181 C 
ENDBRANCH   2  21
TORSDOF 3
ENDMDL
MODEL 5
REMARK VINA RESULT:    -5.432     13.485     15.093
REMARK INTER + INTRA:          -7.000
REMARK INTER:                  -6.463
REMARK INTRA:                  -0.538
REMARK UNBOUND:                -0.615
REMARK  3 active torsions:
REMARK  status: ('A' for Active; 'I' for Inactive)
REMARK    1  A    between atoms: C2_2  and  O11_20 
REMARK    2  A    between atoms: C10_10  and  N14_11 
REMARK    3  A    between atoms: N14_11  and  C15_12 
ROOT
HETATM    1  C1    D T9001      -7.641  -5.193  -3.390  1.00 83.47     0.074 A 
HETATM    2  C2    D T9001      -6.464  -4.453  -3.738  1.00 83.68     0.105 A 
HETATM    3  C3    D T9001      -6.179  -4.172  -5.117  1.00 82.47     0.044 A 
HETATM    4  C4    D T9001      -7.016  -4.596  -6.157  1.00 82.50     0.084 A 
HETATM    5  C5    D T9001      -8.208  -5.346  -5.828  1.00 84.12     0.037 A 
HETATM    6  C6    D T9001      -8.499  -5.633  -4.437  1.00 83.53     0.074 A 
HETATM    7  N7    D T9001      -6.665  -4.281  -7.433  1.00 81.78    -0.224 NA
HETATM    8  C8    D T9001      -7.493  -4.699  -8.425  1.00 83.59     0.200 A 
HETATM    9  N9    D T9001      -8.636  -5.405  -8.259  1.00 84.30    -0.205 NA
HETATM   10  C10   D T9001      -9.006  -5.737  -6.960  1.00 85.59     0.162 A 
HETATM   11  N13   D T9001      -7.958  -5.488  -2.043  1.00 82.67    -0.103 NA
ENDROOT
BRANCH  10  12
HETATM   12  N14   D T9001     -10.215  -6.490  -6.748  1.00 86.44    -0.227 NA
BRANCH  12  13
HETATM   13  C15   D T9001     -10.531  -7.764  -7.299  1.00 87.38     0.084 A 
HETATM   14  C16   D T9001      -9.844  -8.951  -6.884  1.00 88.13     0.033 A 
HETATM   15  C17   D T9001     -10.158 -10.212  -7.441  1.00 88.88     0.087 A 
HETATM   16  C18   D T9001     -11.171 -10.303  -8.431  1.00 88.55     0.151 A 
HETATM   17 CL     D T9001      -9.291 -11.610  -6.905  1.00 89.26    -0.080 Cl
HETATM   18  C19   D T9001     -11.875  -9.142  -8.863  1.00 87.62     0.032 A 
HETATM   19  F21   D T9001     -11.480 -11.493  -8.974  1.00 88.92    -0.203 F 
HETATM   20  C20   D T9001     -11.554  -7.876  -8.300  1.00 87.82     0.021 A 
ENDBRANCH  12  13
ENDBRANCH  10  12
BRANCH   2  21
HETATM   21  O11   D T9001      -5.672  -4.052  -2.666  1.00 85.44    -0.327 OA
HETATM   22  C12   D T9001      -4.320  -3.664  -2.934  1.00 84.41     0.181 C 
ENDBRANCH   2  21
TORSDOF 3
ENDMDL
MODEL 6
REMARK VINA RESULT:    -5.385     11.769     14.295
REMARK INTER + INTRA:          -6.945
REMARK INTER:                  -6.354
REMARK INTRA:                  -0.590
REMARK UNBOUND:                -0.615
REMARK  3 active torsions:
REMARK  status: ('A' for Active; 'I' for Inactive)
REMARK    1  A    between atoms: C2_2  and  O11_20 
REMARK    2  A    between atoms: C10_10  and  N14_11 
REMARK    3  A    between atoms: N14_11  and  C15_12 
ROOT
HETATM    1  C1    D T9001      -8.213  -5.348  -5.730  1.00 83.47     0.074 A 
HETATM    2  C2    D T9001      -7.404  -4.431  -4.982  1.00 83.68     0.105 A 
HETATM    3  C3    D T9001      -7.334  -4.542  -3.553  1.00 82.47     0.044 A 
HETATM    4  C4    D T9001      -8.035  -5.526  -2.842  1.00 82.50     0.084 A 
HETATM    5  C5    D T9001      -8.858  -6.459  -3.577  1.00 84.12     0.037 A 
HETATM    6  C6    D T9001      -8.932  -6.351  -5.021  1.00 83.53     0.074 A 
HETATM    7  N7    D T9001      -7.905  -5.554  -1.489  1.00 81.78    -0.224 NA
HETATM    8  C8    D T9001      -8.590  -6.518  -0.821  1.00 83.59     0.200 A 
HETATM    9  N9    D T9001      -9.394  -7.453  -1.380  1.00 84.30    -0.205 NA
HETATM   10  C10   D T9001      -9.537  -7.434  -2.764  1.00 85.59     0.162 A 
HETATM   11  N13   D T9001      -8.306  -5.273  -7.140  1.00 82.67    -0.103 NA
ENDROOT
BRANCH  10  12
HETATM   12  N14   D T9001     -10.386  -8.413  -3.393  1.00 86.44    -0.227 NA
BRANCH  12  13
HETATM   13  C15   D T9001     -10.010  -9.719  -3.814  1.00 87.38     0.084 A 
HETATM   14  C16   D T9001      -9.863 -10.795  -2.880  1.00 88.13     0.033 A 
HETATM   15  C17   D T9001      -9.482 -12.089  -3.304  1.00 88.88     0.087 A 
HETATM   16  C18   D T9001      -9.238 -12.325  -4.683  1.00 88.55     0.151 A 
HETATM   17 CL     D T9001      -9.315 -13.348  -2.129  1.00 89.26    -0.080 Cl
HETATM   18  C19   D T9001      -9.378 -11.278  -5.638  1.00 87.62     0.032 A 
HETATM   19  F21   D T9001      -8.872 -13.548  -5.104  1.00 88.92    -0.203 F 
HETATM   20  C20   D T9001      -9.761  -9.978  -5.204  1.00 87.82     0.021 A 
ENDBRANCH  12  13
ENDBRANCH  10  12
BRANCH   2  21
HETATM   21  O11   D T9001      -6.726  -3.478  -5.739  1.00 85.44    -0.327 OA
HETATM   22  C12   D T9001      -6.587  -2.161  -5.197  1.00 84.41     0.181 C 
ENDBRANCH   2  21
TORSDOF 3
ENDMDL
MODEL 7
REMARK VINA RESULT:    -5.373     13.999     14.763
REMARK INTER + INTRA:          -6.930
REMARK INTER:                  -6.329
REMARK INTRA:                  -0.600
REMARK UNBOUND:                -0.615
REMARK  3 active torsions:
REMARK  status: ('A' for Active; 'I' for Inactive)
REMARK    1  A    between atoms: C2_2  and  O11_20 
REMARK    2  A    between atoms: C10_10  and  N14_11 
REMARK    3  A    between atoms: N14_11  and  C15_12 
ROOT
HETATM    1  C1    D T9001      -9.531  -7.880  -2.354  1.00 83.47     0.074 A 
HETATM    2  C2    D T9001     -10.931  -8.102  -2.568  1.00 83.68     0.105 A 
HETATM    3  C3    D T9001     -11.513  -7.804  -3.846  1.00 82.47     0.044 A 
HETATM    4  C4    D T9001     -10.760  -7.297  -4.914  1.00 82.50     0.084 A 
HETATM    5  C5    D T9001      -9.347  -7.063  -4.718  1.00 84.12     0.037 A 
HETATM    6  C6    D T9001      -8.754  -7.363  -3.428  1.00 83.53     0.074 A 
HETATM    7  N7    D T9001     -11.399  -7.047  -6.088  1.00 81.78    -0.224 NA
HETATM    8  C8    D T9001     -10.649  -6.560  -7.110  1.00 83.59     0.200 A 
HETATM    9  N9    D T9001      -9.321  -6.296  -7.065  1.00 84.30    -0.205 NA
HETATM   10  C10   D T9001      -8.656  -6.545  -5.869  1.00 85.59     0.162 A 
HETATM   11  N13   D T9001      -8.919  -8.163  -1.110  1.00 82.67    -0.103 NA
ENDROOT
BRANCH  10  12
HETATM   12  N14   D T9001      -7.244  -6.273  -5.784  1.00 86.44    -0.227 NA
BRANCH  12  13
HETATM   13  C15   D T9001      -6.636  -5.064  -5.345  1.00 87.38     0.084 A 
HETATM   14  C16   D T9001      -5.717  -5.043  -4.247  1.00 88.13     0.033 A 
HETATM   15  C17   D T9001      -5.122  -3.836  -3.811  1.00 88.88     0.087 A 
HETATM   16  C18   D T9001      -5.443  -2.622  -4.473  1.00 88.55     0.151 A 
HETATM   17 CL     D T9001      -4.022  -3.872  -2.475  1.00 89.26    -0.080 Cl
HETATM   18  C19   D T9001      -6.351  -2.610  -5.571  1.00 87.62     0.032 A 
HETATM   19  F21   D T9001      -4.889  -1.466  -4.070  1.00 88.92    -0.203 F 
HETATM   20  C20   D T9001      -6.947  -3.827  -6.004  1.00 87.82     0.021 A 
ENDBRANCH  12  13
ENDBRANCH  10  12
BRANCH   2  21
HETATM   21  O11   D T9001     -11.629  -8.611  -1.477  1.00 85.44    -0.327 OA
HETATM   22  C12   D T9001     -12.655  -7.801  -0.894  1.00 84.41     0.181 C 
ENDBRANCH   2  21
TORSDOF 3
ENDMDL
MODEL 8
REMARK VINA RESULT:    -5.257     13.321     14.412
REMARK INTER + INTRA:          -6.794
REMARK INTER:                  -6.213
REMARK INTRA:                  -0.581
REMARK UNBOUND:                -0.615
REMARK  3 active torsions:
REMARK  status: ('A' for Active; 'I' for Inactive)
REMARK    1  A    between atoms: C2_2  and  O11_20 
REMARK    2  A    between atoms: C10_10  and  N14_11 
REMARK    3  A    between atoms: N14_11  and  C15_12 
ROOT
HETATM    1  C1    D T9001     -11.631  -7.410  -4.700  1.00 83.47     0.074 A 
HETATM    2  C2    D T9001     -11.986  -8.798  -4.706  1.00 83.68     0.105 A 
HETATM    3  C3    D T9001     -11.547  -9.643  -5.779  1.00 82.47     0.044 A 
HETATM    4  C4    D T9001     -10.771  -9.163  -6.843  1.00 82.50     0.084 A 
HETATM    5  C5    D T9001     -10.404  -7.765  -6.859  1.00 84.12     0.037 A 
HETATM    6  C6    D T9001     -10.846  -6.907  -5.776  1.00 83.53     0.074 A 
HETATM    7  N7    D T9001     -10.401 -10.040  -7.814  1.00 81.78    -0.224 NA
HETATM    8  C8    D T9001      -9.647  -9.554  -8.833  1.00 83.59     0.200 A 
HETATM    9  N9    D T9001      -9.232  -8.272  -8.973  1.00 84.30    -0.205 NA
HETATM   10  C10   D T9001      -9.606  -7.364  -7.987  1.00 85.59     0.162 A 
HETATM   11  N13   D T9001     -12.042  -6.544  -3.659  1.00 82.67    -0.103 NA
ENDROOT
BRANCH  10  12
HETATM   12  N14   D T9001      -9.185  -5.991  -8.105  1.00 86.44    -0.227 NA
BRANCH  12  13
HETATM   13  C15   D T9001      -7.962  -5.435  -7.636  1.00 87.38     0.084 A 
HETATM   14  C16   D T9001      -7.940  -4.397  -6.649  1.00 88.13     0.033 A 
HETATM   15  C17   D T9001      -6.721  -3.844  -6.192  1.00 88.88     0.087 A 
HETATM   16  C18   D T9001      -5.496  -4.325  -6.725  1.00 88.55     0.151 A 
HETATM   17 CL     D T9001      -6.757  -2.589  -5.002  1.00 89.26    -0.080 Cl
HETATM   18  C19   D T9001      -5.483  -5.358  -7.705  1.00 87.62     0.032 A 
HETATM   19  F21   D T9001      -4.328  -3.809  -6.305  1.00 88.92    -0.203 F 
HETATM   20  C20   D T9001      -6.713  -5.910  -8.161  1.00 87.82     0.021 A 
ENDBRANCH  12  13
ENDBRANCH  10  12
BRANCH   2  21
HETATM   21  O11   D T9001     -12.752  -9.222  -3.623  1.00 85.44    -0.327 OA
HETATM   22  C12   D T9001     -12.259 -10.310  -2.833  1.00 84.41     0.181 C 
ENDBRANCH   2  21
TORSDOF 3
ENDMDL
MODEL 9
REMARK VINA RESULT:    -4.193     14.046     15.307
REMARK INTER + INTRA:          -5.543
REMARK INTER:                  -4.944
REMARK INTRA:                  -0.599
REMARK UNBOUND:                -0.615
REMARK  3 active torsions:
REMARK  status: ('A' for Active; 'I' for Inactive)
REMARK    1  A    between atoms: C2_2  and  O11_20 
REMARK    2  A    between atoms: C10_10  and  N14_11 
REMARK    3  A    between atoms: N14_11  and  C15_12 
ROOT
HETATM    1  C1    D T9001      -7.390  -5.137  -7.173  1.00 83.47     0.074 A 
HETATM    2  C2    D T9001      -6.026  -4.741  -7.363  1.00 83.68     0.105 A 
HETATM    3  C3    D T9001      -5.222  -4.385  -6.229  1.00 82.47     0.044 A 
HETATM    4  C4    D T9001      -5.719  -4.409  -4.919  1.00 82.50     0.084 A 
HETATM    5  C5    D T9001      -7.094  -4.804  -4.705  1.00 84.12     0.037 A 
HETATM    6  C6    D T9001      -7.910  -5.164  -5.848  1.00 83.53     0.074 A 
HETATM    7  N7    D T9001      -4.881  -4.057  -3.908  1.00 81.78    -0.224 NA
HETATM    8  C8    D T9001      -5.384  -4.091  -2.647  1.00 83.59     0.200 A 
HETATM    9  N9    D T9001      -6.647  -4.441  -2.304  1.00 84.30    -0.205 NA
HETATM   10  C10   D T9001      -7.515  -4.801  -3.329  1.00 85.59     0.162 A 
HETATM   11  N13   D T9001      -8.215  -5.498  -8.265  1.00 82.67    -0.103 NA
ENDROOT
BRANCH  10  12
HETATM   12  N14   D T9001      -8.866  -5.176  -3.002  1.00 86.44    -0.227 NA
BRANCH  12  13
HETATM   13  C15   D T9001      -9.356  -6.497  -2.800  1.00 87.38     0.084 A 
HETATM   14  C16   D T9001     -10.336  -7.075  -3.670  1.00 88.13     0.033 A 
HETATM   15  C17   D T9001     -10.824  -8.385  -3.460  1.00 88.88     0.087 A 
HETATM   16  C18   D T9001     -10.334  -9.142  -2.363  1.00 88.55     0.151 A 
HETATM   17 CL     D T9001     -12.012  -9.028  -4.541  1.00 89.26    -0.080 Cl
HETATM   18  C19   D T9001      -9.357  -8.598  -1.481  1.00 87.62     0.032 A 
HETATM   19  F21   D T9001     -10.788 -10.388  -2.146  1.00 88.92    -0.203 F 
HETATM   20  C20   D T9001      -8.871  -7.279  -1.697  1.00 87.82     0.021 A 
ENDBRANCH  12  13
ENDBRANCH  10  12
BRANCH   2  21
HETATM   21  O11   D T9001      -5.583  -4.740  -8.683  1.00 85.44    -0.327 OA
HETATM   22  C12   D T9001      -4.329  -5.368  -8.974  1.00 84.41     0.181 C 
ENDBRANCH   2  21
TORSDOF 3
ENDMDL
