MODEL 1
REMARK VINA RESULT:    -7.715      0.000      0.000
REMARK INTER + INTRA:          -9.621
REMARK INTER:                  -9.068
REMARK INTRA:                  -0.553
REMARK UNBOUND:                -0.553
REMARK  3 active torsions:
REMARK  status: ('A' for Active; 'I' for Inactive)
REMARK    1  A    between atoms: C2_2  and  O11_20 
REMARK    2  A    between atoms: C10_10  and  N14_11 
REMARK    3  A    between atoms: N14_11  and  C15_12 
ROOT
HETATM    1  C1    D T9001     -12.936   6.413  -3.017  1.00 83.47     0.092 A 
HETATM    2  C2    D T9001     -13.464   6.157  -1.709  1.00 83.68     0.109 A 
HETATM    3  C3    D T9001     -13.876   4.830  -1.352  1.00 82.47     0.044 A 
HETATM    4  C4    D T9001     -13.784   3.751  -2.242  1.00 82.50     0.088 A 
HETATM    5  C5    D T9001     -13.258   3.987  -3.567  1.00 84.12     0.055 A 
HETATM    6  C6    D T9001     -12.840   5.326  -3.932  1.00 83.53     0.021 A 
HETATM    7  N7    D T9001     -14.198   2.528  -1.813  1.00 81.78    -0.224 NA
HETATM    8  C8    D T9001     -14.096   1.497  -2.690  1.00 83.59     0.200 A 
HETATM    9  N9    D T9001     -13.623   1.577  -3.957  1.00 84.30    -0.205 NA
HETATM   10  C10   D T9001     -13.199   2.822  -4.409  1.00 85.59     0.166 A 
HETATM   11  N13   D T9001     -12.517   7.707  -3.407  1.00 82.67    -0.099 NA
ENDROOT
BRANCH  10  12
HETATM   12  N14   D T9001     -12.692   2.943  -5.752  1.00 86.44    -0.227 NA
BRANCH  12  13
HETATM   13  C15   D T9001     -11.557   2.278  -6.295  1.00 87.38     0.084 A 
HETATM   14  C16   D T9001     -10.240   2.497  -5.774  1.00 88.13     0.033 A 
HETATM   15  C17   D T9001      -9.116   1.837  -6.322  1.00 88.88     0.087 A 
HETATM   16  C18   D T9001      -9.294   0.943  -7.411  1.00 88.55     0.151 A 
HETATM   17 CL     D T9001      -7.549   2.144  -5.655  1.00 89.26    -0.080 Cl
HETATM   18  C19   D T9001     -10.591   0.702  -7.949  1.00 87.62     0.032 A 
HETATM   19  F21   D T9001      -8.237   0.310  -7.947  1.00 88.92    -0.203 F 
HETATM   20  C20   D T9001     -11.719   1.369  -7.395  1.00 87.82     0.021 A 
ENDBRANCH  12  13
ENDBRANCH  10  12
BRANCH   2  21
HETATM   21  O11   D T9001     -13.528   7.263  -0.865  1.00 85.44    -0.327 OA
HETATM   22  C12   D T9001     -14.645   7.369   0.025  1.00 84.41     0.181 C 
ENDBRANCH   2  21
TORSDOF 3
ENDMDL
MODEL 2
REMARK VINA RESULT:    -7.330      3.627      4.969
REMARK INTER + INTRA:          -9.169
REMARK INTER:                  -8.634
REMARK INTRA:                  -0.535
REMARK UNBOUND:                -0.553
REMARK  3 active torsions:
REMARK  status: ('A' for Active; 'I' for Inactive)
REMARK    1  A    between atoms: C2_2  and  O11_20 
REMARK    2  A    between atoms: C10_10  and  N14_11 
REMARK    3  A    between atoms: N14_11  and  C15_12 
ROOT
HETATM    1  C1    D T9001     -12.648   4.016  -4.057  1.00 83.47     0.092 A 
HETATM    2  C2    D T9001     -11.366   4.568  -3.725  1.00 83.68     0.109 A 
HETATM    3  C3    D T9001     -10.195   4.127  -4.426  1.00 82.47     0.044 A 
HETATM    4  C4    D T9001     -10.248   3.162  -5.442  1.00 82.50     0.088 A 
HETATM    5  C5    D T9001     -11.529   2.591  -5.790  1.00 84.12     0.055 A 
HETATM    6  C6    D T9001     -12.715   3.033  -5.084  1.00 83.53     0.021 A 
HETATM    7  N7    D T9001      -9.085   2.808  -6.052  1.00 81.78    -0.224 NA
HETATM    8  C8    D T9001      -9.160   1.875  -7.035  1.00 83.59     0.200 A 
HETATM    9  N9    D T9001     -10.289   1.261  -7.460  1.00 84.30    -0.205 NA
HETATM   10  C10   D T9001     -11.486   1.611  -6.844  1.00 85.59     0.166 A 
HETATM   11  N13   D T9001     -13.826   4.427  -3.390  1.00 82.67    -0.099 NA
ENDROOT
BRANCH  10  12
HETATM   12  N14   D T9001     -12.706   0.975  -7.271  1.00 86.44    -0.227 NA
BRANCH  12  13
HETATM   13  C15   D T9001     -13.089  -0.374  -7.030  1.00 87.38     0.084 A 
HETATM   14  C16   D T9001     -12.688  -1.435  -7.906  1.00 88.13     0.033 A 
HETATM   15  C17   D T9001     -13.078  -2.772  -7.664  1.00 88.88     0.087 A 
HETATM   16  C18   D T9001     -13.885  -3.070  -6.535  1.00 88.55     0.151 A 
HETATM   17 CL     D T9001     -12.566  -4.011  -8.759  1.00 89.26    -0.080 Cl
HETATM   18  C19   D T9001     -14.298  -2.038  -5.644  1.00 87.62     0.032 A 
HETATM   19  F21   D T9001     -14.268  -4.335  -6.291  1.00 88.92    -0.203 F 
HETATM   20  C20   D T9001     -13.904  -0.693  -5.891  1.00 87.82     0.021 A 
ENDBRANCH  12  13
ENDBRANCH  10  12
BRANCH   2  21
HETATM   21  O11   D T9001     -11.374   5.525  -2.713  1.00 85.44    -0.327 OA
HETATM   22  C12   D T9001     -10.237   6.387  -2.592  1.00 84.41     0.181 C 
ENDBRANCH   2  21
TORSDOF 3
ENDMDL
MODEL 3
REMARK VINA RESULT:    -7.280      1.660      2.845
REMARK INTER + INTRA:          -9.110
REMARK INTER:                  -8.973
REMARK INTRA:                  -0.137
REMARK UNBOUND:                -0.553
REMARK  3 active torsions:
REMARK  status: ('A' for Active; 'I' for Inactive)
REMARK    1  A    between atoms: C2_2  and  O11_20 
REMARK    2  A    between atoms: C10_10  and  N14_11 
REMARK    3  A    between atoms: N14_11  and  C15_12 
ROOT
HETATM    1  C1    D T9001     -14.895   3.086  -1.468  1.00 83.47     0.092 A 
HETATM    2  C2    D T9001     -14.514   3.989  -0.421  1.00 83.68     0.109 A 
HETATM    3  C3    D T9001     -13.410   4.884  -0.616  1.00 82.47     0.044 A 
HETATM    4  C4    D T9001     -12.672   4.916  -1.807  1.00 82.50     0.088 A 
HETATM    5  C5    D T9001     -13.036   4.012  -2.874  1.00 84.12     0.055 A 
HETATM    6  C6    D T9001     -14.151   3.106  -2.682  1.00 83.53     0.021 A 
HETATM    7  N7    D T9001     -11.643   5.800  -1.900  1.00 81.78    -0.224 NA
HETATM    8  C8    D T9001     -10.944   5.818  -3.064  1.00 83.59     0.200 A 
HETATM    9  N9    D T9001     -11.177   5.029  -4.140  1.00 84.30    -0.205 NA
HETATM   10  C10   D T9001     -12.225   4.118  -4.058  1.00 85.59     0.166 A 
HETATM   11  N13   D T9001     -15.979   2.189  -1.315  1.00 82.67    -0.099 NA
ENDROOT
BRANCH  10  12
HETATM   12  N14   D T9001     -12.499   3.263  -5.184  1.00 86.44    -0.227 NA
BRANCH  12  13
HETATM   13  C15   D T9001     -11.547   2.524  -5.941  1.00 87.38     0.084 A 
HETATM   14  C16   D T9001     -10.156   2.520  -5.596  1.00 88.13     0.033 A 
HETATM   15  C17   D T9001      -9.215   1.788  -6.356  1.00 88.88     0.087 A 
HETATM   16  C18   D T9001      -9.654   1.045  -7.483  1.00 88.55     0.151 A 
HETATM   17 CL     D T9001      -7.547   1.825  -5.895  1.00 89.26    -0.080 Cl
HETATM   18  C19   D T9001     -11.031   1.027  -7.850  1.00 87.62     0.032 A 
HETATM   19  F21   D T9001      -8.773   0.347  -8.219  1.00 88.92    -0.203 F 
HETATM   20  C20   D T9001     -11.974   1.765  -7.083  1.00 87.82     0.021 A 
ENDBRANCH  12  13
ENDBRANCH  10  12
BRANCH   2  21
HETATM   21  O11   D T9001     -15.284   3.917   0.737  1.00 85.44    -0.327 OA
HETATM   22  C12   D T9001     -16.123   5.032   1.060  1.00 84.41     0.181 C 
ENDBRANCH   2  21
TORSDOF 3
ENDMDL
MODEL 4
REMARK VINA RESULT:    -7.174      4.476      7.198
REMARK INTER + INTRA:          -8.986
REMARK INTER:                  -8.449
REMARK INTRA:                  -0.536
REMARK UNBOUND:                -0.553
REMARK  3 active torsions:
REMARK  status: ('A' for Active; 'I' for Inactive)
REMARK    1  A    between atoms: C2_2  and  O11_20 
REMARK    2  A    between atoms: C10_10  and  N14_11 
REMARK    3  A    between atoms: N14_11  and  C15_12 
ROOT
HETATM    1  C1    D T9001     -10.005   2.823  -5.810  1.00 83.47     0.092 A 
HETATM    2  C2    D T9001     -10.717   1.961  -6.707  1.00 83.68     0.109 A 
HETATM    3  C3    D T9001     -12.149   1.889  -6.643  1.00 82.47     0.044 A 
HETATM    4  C4    D T9001     -12.897   2.638  -5.725  1.00 82.50     0.088 A 
HETATM    5  C5    D T9001     -12.199   3.511  -4.809  1.00 84.12     0.055 A 
HETATM    6  C6    D T9001     -10.753   3.588  -4.870  1.00 83.53     0.021 A 
HETATM    7  N7    D T9001     -14.250   2.505  -5.740  1.00 81.78    -0.224 NA
HETATM    8  C8    D T9001     -14.956   3.243  -4.845  1.00 83.59     0.200 A 
HETATM    9  N9    D T9001     -14.432   4.097  -3.934  1.00 84.30    -0.205 NA
HETATM   10  C10   D T9001     -13.049   4.241  -3.906  1.00 85.59     0.166 A 
HETATM   11  N13   D T9001      -8.594   2.924  -5.843  1.00 82.67    -0.099 NA
ENDROOT
BRANCH  10  12
HETATM   12  N14   D T9001     -12.458   5.141  -2.948  1.00 86.44    -0.227 NA
BRANCH  12  13
HETATM   13  C15   D T9001     -12.613   6.554  -2.902  1.00 87.38     0.084 A 
HETATM   14  C16   D T9001     -12.877   7.240  -1.671  1.00 88.13     0.033 A 
HETATM   15  C17   D T9001     -13.035   8.644  -1.634  1.00 88.88     0.087 A 
HETATM   16  C18   D T9001     -12.934   9.390  -2.838  1.00 88.55     0.151 A 
HETATM   17 CL     D T9001     -13.357   9.417  -0.120  1.00 89.26    -0.080 Cl
HETATM   18  C19   D T9001     -12.670   8.738  -4.077  1.00 87.62     0.032 A 
HETATM   19  F21   D T9001     -13.086  10.725  -2.822  1.00 88.92    -0.203 F 
HETATM   20  C20   D T9001     -12.512   7.324  -4.110  1.00 87.82     0.021 A 
ENDBRANCH  12  13
ENDBRANCH  10  12
BRANCH   2  21
HETATM   21  O11   D T9001      -9.924   1.245  -7.601  1.00 85.44    -0.327 OA
HETATM   22  C12   D T9001     -10.411  -0.016  -8.074  1.00 84.41     0.181 C 
ENDBRANCH   2  21
TORSDOF 3
ENDMDL
MODEL 5
REMARK VINA RESULT:    -7.169      5.279      7.622
REMARK INTER + INTRA:          -8.979
REMARK INTER:                  -8.548
REMARK INTRA:                  -0.431
REMARK UNBOUND:                -0.553
REMARK  3 active torsions:
REMARK  status: ('A' for Active; 'I' for Inactive)
REMARK    1  A    between atoms: C2_2  and  O11_20 
REMARK    2  A    between atoms: C10_10  and  N14_11 
REMARK    3  A    between atoms: N14_11  and  C15_12 
ROOT
HETATM    1  C1    D T9001     -12.892  -2.983  -9.155  1.00 83.47     0.092 A 
HETATM    2  C2    D T9001     -14.123  -3.433  -8.574  1.00 83.68     0.109 A 
HETATM    3  C3    D T9001     -14.832  -2.588  -7.657  1.00 82.47     0.044 A 
HETATM    4  C4    D T9001     -14.366  -1.316  -7.296  1.00 82.50     0.088 A 
HETATM    5  C5    D T9001     -13.125  -0.843  -7.868  1.00 84.12     0.055 A 
HETATM    6  C6    D T9001     -12.406  -1.694  -8.795  1.00 83.53     0.021 A 
HETATM    7  N7    D T9001     -15.107  -0.585  -6.421  1.00 81.78    -0.224 NA
HETATM    8  C8    D T9001     -14.640   0.645  -6.089  1.00 83.59     0.200 A 
HETATM    9  N9    D T9001     -13.497   1.209  -6.547  1.00 84.30    -0.205 NA
HETATM   10  C10   D T9001     -12.728   0.473  -7.442  1.00 85.59     0.166 A 
HETATM   11  N13   D T9001     -12.165  -3.786 -10.065  1.00 82.67    -0.099 NA
ENDROOT
BRANCH  10  12
HETATM   12  N14   D T9001     -11.505   1.042  -7.949  1.00 86.44    -0.227 NA
BRANCH  12  13
HETATM   13  C15   D T9001     -10.337   1.351  -7.197  1.00 87.38     0.084 A 
HETATM   14  C16   D T9001     -10.321   2.418  -6.241  1.00 88.13     0.033 A 
HETATM   15  C17   D T9001      -9.154   2.723  -5.503  1.00 88.88     0.087 A 
HETATM   16  C18   D T9001      -7.976   1.959  -5.713  1.00 88.55     0.151 A 
HETATM   17 CL     D T9001      -9.193   4.026  -4.365  1.00 89.26    -0.080 Cl
HETATM   18  C19   D T9001      -7.961   0.890  -6.655  1.00 87.62     0.032 A 
HETATM   19  F21   D T9001      -6.857   2.237  -5.023  1.00 88.92    -0.203 F 
HETATM   20  C20   D T9001      -9.137   0.587  -7.396  1.00 87.82     0.021 A 
ENDBRANCH  12  13
ENDBRANCH  10  12
BRANCH   2  21
HETATM   21  O11   D T9001     -14.541  -4.701  -8.971  1.00 85.44    -0.327 OA
HETATM   22  C12   D T9001     -14.293  -5.800  -8.088  1.00 84.41     0.181 C 
ENDBRANCH   2  21
TORSDOF 3
ENDMDL
MODEL 6
REMARK VINA RESULT:    -7.128      4.653      7.560
REMARK INTER + INTRA:          -8.931
REMARK INTER:                  -8.449
REMARK INTRA:                  -0.482
REMARK UNBOUND:                -0.553
REMARK  3 active torsions:
REMARK  status: ('A' for Active; 'I' for Inactive)
REMARK    1  A    between atoms: C2_2  and  O11_20 
REMARK    2  A    between atoms: C10_10  and  N14_11 
REMARK    3  A    between atoms: N14_11  and  C15_12 
ROOT
HETATM    1  C1    D T9001     -11.588   2.677  -5.509  1.00 83.47     0.092 A 
HETATM    2  C2    D T9001     -10.215   3.082  -5.589  1.00 83.68     0.109 A 
HETATM    3  C3    D T9001      -9.755   4.203  -4.820  1.00 82.47     0.044 A 
HETATM    4  C4    D T9001     -10.604   4.933  -3.977  1.00 82.50     0.088 A 
HETATM    5  C5    D T9001     -11.992   4.543  -3.884  1.00 84.12     0.055 A 
HETATM    6  C6    D T9001     -12.462   3.412  -4.659  1.00 83.53     0.021 A 
HETATM    7  N7    D T9001     -10.077   5.979  -3.286  1.00 81.78    -0.224 NA
HETATM    8  C8    D T9001     -10.915   6.670  -2.472  1.00 83.59     0.200 A 
HETATM    9  N9    D T9001     -12.233   6.414  -2.291  1.00 84.30    -0.205 NA
HETATM   10  C10   D T9001     -12.786   5.349  -2.993  1.00 85.59     0.166 A 
HETATM   11  N13   D T9001     -12.080   1.576  -6.250  1.00 82.67    -0.099 NA
ENDROOT
BRANCH  10  12
HETATM   12  N14   D T9001     -14.185   5.050  -2.825  1.00 86.44    -0.227 NA
BRANCH  12  13
HETATM   13  C15   D T9001     -14.836   4.688  -1.613  1.00 87.38     0.084 A 
HETATM   14  C16   D T9001     -15.227   5.674  -0.648  1.00 88.13     0.033 A 
HETATM   15  C17   D T9001     -15.869   5.306   0.557  1.00 88.88     0.087 A 
HETATM   16  C18   D T9001     -16.128   3.935   0.819  1.00 88.55     0.151 A 
HETATM   17 CL     D T9001     -16.314   6.540   1.686  1.00 89.26    -0.080 Cl
HETATM   18  C19   D T9001     -15.754   2.932  -0.121  1.00 87.62     0.032 A 
HETATM   19  F21   D T9001     -16.734   3.567   1.961  1.00 88.92    -0.203 F 
HETATM   20  C20   D T9001     -15.108   3.306  -1.332  1.00 87.82     0.021 A 
ENDBRANCH  12  13
ENDBRANCH  10  12
BRANCH   2  21
HETATM   21  O11   D T9001      -9.417   2.319  -6.437  1.00 85.44    -0.327 OA
HETATM   22  C12   D T9001      -8.172   1.826  -5.930  1.00 84.41     0.181 C 
ENDBRANCH   2  21
TORSDOF 3
ENDMDL
MODEL 7
REMARK VINA RESULT:    -7.062      3.105      3.812
REMARK INTER + INTRA:          -8.853
REMARK INTER:                  -8.324
REMARK INTRA:                  -0.529
REMARK UNBOUND:                -0.553
REMARK  3 active torsions:
REMARK  status: ('A' for Active; 'I' for Inactive)
REMARK    1  A    between atoms: C2_2  and  O11_20 
REMARK    2  A    between atoms: C10_10  and  N14_11 
REMARK    3  A    between atoms: N14_11  and  C15_12 
ROOT
HETATM    1  C1    D T9001     -14.768   3.576  -5.100  1.00 83.47     0.092 A 
HETATM    2  C2    D T9001     -15.882   2.816  -4.613  1.00 83.68     0.109 A 
HETATM    3  C3    D T9001     -16.041   1.446  -5.009  1.00 82.47     0.044 A 
HETATM    4  C4    D T9001     -15.137   0.805  -5.867  1.00 82.50     0.088 A 
HETATM    5  C5    D T9001     -14.008   1.552  -6.372  1.00 84.12     0.055 A 
HETATM    6  C6    D T9001     -13.844   2.937  -5.975  1.00 83.53     0.021 A 
HETATM    7  N7    D T9001     -15.369  -0.497  -6.185  1.00 81.78    -0.224 NA
HETATM    8  C8    D T9001     -14.479  -1.101  -7.014  1.00 83.59     0.200 A 
HETATM    9  N9    D T9001     -13.383  -0.521  -7.558  1.00 84.30    -0.205 NA
HETATM   10  C10   D T9001     -13.135   0.811  -7.243  1.00 85.59     0.166 A 
HETATM   11  N13   D T9001     -14.575   4.928  -4.731  1.00 82.67    -0.099 NA
ENDROOT
BRANCH  10  12
HETATM   12  N14   D T9001     -11.978   1.460  -7.806  1.00 86.44    -0.227 NA
BRANCH  12  13
HETATM   13  C15   D T9001     -10.674   1.513  -7.238  1.00 87.38     0.084 A 
HETATM   14  C16   D T9001     -10.345   2.447  -6.202  1.00 88.13     0.033 A 
HETATM   15  C17   D T9001      -9.046   2.498  -5.647  1.00 88.88     0.087 A 
HETATM   16  C18   D T9001      -8.047   1.610  -6.127  1.00 88.55     0.151 A 
HETATM   17 CL     D T9001      -8.705   3.650  -4.401  1.00 89.26    -0.080 Cl
HETATM   18  C19   D T9001      -8.343   0.669  -7.154  1.00 87.62     0.032 A 
HETATM   19  F21   D T9001      -6.805   1.648  -5.613  1.00 88.92    -0.203 F 
HETATM   20  C20   D T9001      -9.652   0.621  -7.710  1.00 87.82     0.021 A 
ENDBRANCH  12  13
ENDBRANCH  10  12
BRANCH   2  21
HETATM   21  O11   D T9001     -16.744   3.502  -3.761  1.00 85.44    -0.327 OA
HETATM   22  C12   D T9001     -16.879   3.031  -2.416  1.00 84.41     0.181 C 
ENDBRANCH   2  21
TORSDOF 3
ENDMDL
MODEL 8
REMARK VINA RESULT:    -6.742      4.840      6.800
REMARK INTER + INTRA:          -8.477
REMARK INTER:                  -7.912
REMARK INTRA:                  -0.566
REMARK UNBOUND:                -0.553
REMARK  3 active torsions:
REMARK  status: ('A' for Active; 'I' for Inactive)
REMARK    1  A    between atoms: C2_2  and  O11_20 
REMARK    2  A    between atoms: C10_10  and  N14_11 
REMARK    3  A    between atoms: N14_11  and  C15_12 
ROOT
HETATM    1  C1    D T9001      -9.895   1.129  -7.366  1.00 83.47     0.092 A 
HETATM    2  C2    D T9001      -9.377   2.187  -6.548  1.00 83.68     0.109 A 
HETATM    3  C3    D T9001     -10.259   2.923  -5.689  1.00 82.47     0.044 A 
HETATM    4  C4    D T9001     -11.631   2.649  -5.611  1.00 82.50     0.088 A 
HETATM    5  C5    D T9001     -12.176   1.590  -6.429  1.00 84.12     0.055 A 
HETATM    6  C6    D T9001     -11.289   0.843  -7.299  1.00 83.53     0.021 A 
HETATM    7  N7    D T9001     -12.388   3.400  -4.766  1.00 81.78    -0.224 NA
HETATM    8  C8    D T9001     -13.714   3.116  -4.703  1.00 83.59     0.200 A 
HETATM    9  N9    D T9001     -14.353   2.154  -5.411  1.00 84.30    -0.205 NA
HETATM   10  C10   D T9001     -13.592   1.381  -6.281  1.00 85.59     0.166 A 
HETATM   11  N13   D T9001      -9.058   0.378  -8.225  1.00 82.67    -0.099 NA
ENDROOT
BRANCH  10  12
HETATM   12  N14   D T9001     -14.240   0.350  -7.051  1.00 86.44    -0.227 NA
BRANCH  12  13
HETATM   13  C15   D T9001     -14.624  -0.940  -6.590  1.00 87.38     0.084 A 
HETATM   14  C16   D T9001     -15.994  -1.263  -6.321  1.00 88.13     0.033 A 
HETATM   15  C17   D T9001     -16.368  -2.545  -5.857  1.00 88.88     0.087 A 
HETATM   16  C18   D T9001     -15.368  -3.531  -5.651  1.00 88.55     0.151 A 
HETATM   17 CL     D T9001     -18.038  -2.875  -5.544  1.00 89.26    -0.080 Cl
HETATM   18  C19   D T9001     -13.997  -3.242  -5.913  1.00 87.62     0.032 A 
HETATM   19  F21   D T9001     -15.704  -4.754  -5.208  1.00 88.92    -0.203 F 
HETATM   20  C20   D T9001     -13.626  -1.950  -6.378  1.00 87.82     0.021 A 
ENDBRANCH  12  13
ENDBRANCH  10  12
BRANCH   2  21
HETATM   21  O11   D T9001      -8.007   2.411  -6.662  1.00 85.44    -0.327 OA
HETATM   22  C12   D T9001      -7.155   1.920  -5.622  1.00 84.41     0.181 C 
ENDBRANCH   2  21
TORSDOF 3
ENDMDL
MODEL 9
REMARK VINA RESULT:    -6.662      4.409      7.710
REMARK INTER + INTRA:          -8.384
REMARK INTER:                  -7.876
REMARK INTRA:                  -0.507
REMARK UNBOUND:                -0.553
REMARK  3 active torsions:
REMARK  status: ('A' for Active; 'I' for Inactive)
REMARK    1  A    between atoms: C2_2  and  O11_20 
REMARK    2  A    between atoms: C10_10  and  N14_11 
REMARK    3  A    between atoms: N14_11  and  C15_12 
ROOT
HETATM    1  C1    D T9001     -13.599  -0.590  -7.936  1.00 83.47     0.092 A 
HETATM    2  C2    D T9001     -12.412  -1.149  -8.514  1.00 83.68     0.109 A 
HETATM    3  C3    D T9001     -11.143  -0.517  -8.294  1.00 82.47     0.044 A 
HETATM    4  C4    D T9001     -11.009   0.646  -7.522  1.00 82.50     0.088 A 
HETATM    5  C5    D T9001     -12.193   1.228  -6.932  1.00 84.12     0.055 A 
HETATM    6  C6    D T9001     -13.477   0.593  -7.153  1.00 83.53     0.021 A 
HETATM    7  N7    D T9001      -9.765   1.173  -7.368  1.00 81.78    -0.224 NA
HETATM    8  C8    D T9001      -9.657   2.297  -6.613  1.00 83.59     0.200 A 
HETATM    9  N9    D T9001     -10.679   2.944  -6.005  1.00 84.30    -0.205 NA
HETATM   10  C10   D T9001     -11.957   2.418  -6.157  1.00 85.59     0.166 A 
HETATM   11  N13   D T9001     -14.868  -1.185  -8.128  1.00 82.67    -0.099 NA
ENDROOT
BRANCH  10  12
HETATM   12  N14   D T9001     -13.068   3.083  -5.524  1.00 86.44    -0.227 NA
BRANCH  12  13
HETATM   13  C15   D T9001     -13.389   3.068  -4.138  1.00 87.38     0.084 A 
HETATM   14  C16   D T9001     -13.154   4.209  -3.303  1.00 88.13     0.033 A 
HETATM   15  C17   D T9001     -13.469   4.186  -1.925  1.00 88.88     0.087 A 
HETATM   16  C18   D T9001     -14.027   3.010  -1.357  1.00 88.55     0.151 A 
HETATM   17 CL     D T9001     -13.159   5.592  -0.965  1.00 89.26    -0.080 Cl
HETATM   18  C19   D T9001     -14.275   1.861  -2.161  1.00 87.62     0.032 A 
HETATM   19  F21   D T9001     -14.330   2.969  -0.048  1.00 88.92    -0.203 F 
HETATM   20  C20   D T9001     -13.955   1.888  -3.547  1.00 87.82     0.021 A 
ENDBRANCH  12  13
ENDBRANCH  10  12
BRANCH   2  21
HETATM   21  O11   D T9001     -12.603  -2.305  -9.266  1.00 85.44    -0.327 OA
HETATM   22  C12   D T9001     -12.438  -3.569  -8.613  1.00 84.41     0.181 C 
ENDBRANCH   2  21
TORSDOF 3
ENDMDL
