MODEL 1
REMARK VINA RESULT:    -7.570      0.000      0.000
REMARK INTER + INTRA:          -9.473
REMARK INTER:                  -8.898
REMARK INTRA:                  -0.575
REMARK UNBOUND:                -0.575
REMARK  3 active torsions:
REMARK  status: ('A' for Active; 'I' for Inactive)
REMARK    1  A    between atoms: C2_2  and  O11_20 
REMARK    2  A    between atoms: C10_10  and  N14_11 
REMARK    3  A    between atoms: N14_11  and  C15_12 
ROOT
HETATM    1  C1    D T9001     -12.487  -0.940   8.181  1.00 83.47     0.092 A 
HETATM    2  C2    D T9001     -12.880  -1.874   9.196  1.00 83.68     0.109 A 
HETATM    3  C3    D T9001     -12.066  -3.023   9.464  1.00 82.47     0.044 A 
HETATM    4  C4    D T9001     -10.878  -3.280   8.765  1.00 82.50     0.088 A 
HETATM    5  C5    D T9001     -10.464  -2.353   7.737  1.00 84.12     0.055 A 
HETATM    6  C6    D T9001     -11.284  -1.190   7.461  1.00 83.53     0.021 A 
HETATM    7  N7    D T9001     -10.170  -4.394   9.091  1.00 81.78    -0.224 NA
HETATM    8  C8    D T9001      -9.021  -4.622   8.406  1.00 83.59     0.200 A 
HETATM    9  N9    D T9001      -8.517  -3.840   7.421  1.00 84.30    -0.205 NA
HETATM   10  C10   D T9001      -9.231  -2.698   7.076  1.00 85.59     0.166 A 
HETATM   11  N13   D T9001     -13.262   0.207   7.888  1.00 82.67    -0.099 NA
ENDROOT
BRANCH  10  12
HETATM   12  N14   D T9001      -8.726  -1.844   6.032  1.00 86.44    -0.227 NA
BRANCH  12  13
HETATM   13  C15   D T9001      -7.666  -0.902   6.143  1.00 87.38     0.084 A 
HETATM   14  C16   D T9001      -6.347  -1.197   5.665  1.00 88.13     0.033 A 
HETATM   15  C17   D T9001      -5.296  -0.260   5.785  1.00 88.88     0.087 A 
HETATM   16  C18   D T9001      -5.551   0.998   6.393  1.00 88.55     0.151 A 
HETATM   17 CL     D T9001      -3.723  -0.674   5.192  1.00 89.26    -0.080 Cl
HETATM   18  C19   D T9001      -6.850   1.323   6.876  1.00 87.62     0.032 A 
HETATM   19  F21   D T9001      -4.563   1.900   6.519  1.00 88.92    -0.203 F 
HETATM   20  C20   D T9001      -7.905   0.376   6.754  1.00 87.82     0.021 A 
ENDBRANCH  12  13
ENDBRANCH  10  12
BRANCH   2  21
HETATM   21  O11   D T9001     -14.065  -1.566   9.860  1.00 85.44    -0.327 OA
HETATM   22  C12   D T9001     -15.105  -2.551   9.877  1.00 84.41     0.181 C 
ENDBRANCH   2  21
TORSDOF 3
ENDMDL
MODEL 2
REMARK VINA RESULT:    -7.531      1.497      2.941
REMARK INTER + INTRA:          -9.427
REMARK INTER:                  -9.319
REMARK INTRA:                  -0.108
REMARK UNBOUND:                -0.575
REMARK  3 active torsions:
REMARK  status: ('A' for Active; 'I' for Inactive)
REMARK    1  A    between atoms: C2_2  and  O11_20 
REMARK    2  A    between atoms: C10_10  and  N14_11 
REMARK    3  A    between atoms: N14_11  and  C15_12 
ROOT
HETATM    1  C1    D T9001     -12.258  -2.387   9.299  1.00 83.47     0.092 A 
HETATM    2  C2    D T9001     -13.414  -1.543   9.374  1.00 83.68     0.109 A 
HETATM    3  C3    D T9001     -13.426  -0.286   8.685  1.00 82.47     0.044 A 
HETATM    4  C4    D T9001     -12.337   0.164   7.926  1.00 82.50     0.088 A 
HETATM    5  C5    D T9001     -11.160  -0.670   7.839  1.00 84.12     0.055 A 
HETATM    6  C6    D T9001     -11.142  -1.942   8.534  1.00 83.53     0.021 A 
HETATM    7  N7    D T9001     -12.441   1.370   7.306  1.00 81.78    -0.224 NA
HETATM    8  C8    D T9001     -11.377   1.785   6.573  1.00 83.59     0.200 A 
HETATM    9  N9    D T9001     -10.216   1.107   6.406  1.00 84.30    -0.205 NA
HETATM   10  C10   D T9001     -10.095  -0.127   7.036  1.00 85.59     0.166 A 
HETATM   11  N13   D T9001     -12.208  -3.636   9.962  1.00 82.67    -0.099 NA
ENDROOT
BRANCH  10  12
HETATM   12  N14   D T9001      -8.873  -0.875   6.883  1.00 86.44    -0.227 NA
BRANCH  12  13
HETATM   13  C15   D T9001      -7.587  -0.349   6.576  1.00 87.38     0.084 A 
HETATM   14  C16   D T9001      -6.648  -1.082   5.780  1.00 88.13     0.033 A 
HETATM   15  C17   D T9001      -5.369  -0.557   5.484  1.00 88.88     0.087 A 
HETATM   16  C18   D T9001      -5.007   0.721   5.989  1.00 88.55     0.151 A 
HETATM   17 CL     D T9001      -4.275  -1.489   4.519  1.00 89.26    -0.080 Cl
HETATM   18  C19   D T9001      -5.918   1.475   6.782  1.00 87.62     0.032 A 
HETATM   19  F21   D T9001      -3.794   1.234   5.721  1.00 88.92    -0.203 F 
HETATM   20  C20   D T9001      -7.204   0.942   7.077  1.00 87.82     0.021 A 
ENDBRANCH  12  13
ENDBRANCH  10  12
BRANCH   2  21
HETATM   21  O11   D T9001     -14.467  -2.042  10.137  1.00 85.44    -0.327 OA
HETATM   22  C12   D T9001     -15.790  -1.964   9.594  1.00 84.41     0.181 C 
ENDBRANCH   2  21
TORSDOF 3
ENDMDL
MODEL 3
REMARK VINA RESULT:    -7.493      5.182      7.800
REMARK INTER + INTRA:          -9.381
REMARK INTER:                  -9.373
REMARK INTRA:                  -0.009
REMARK UNBOUND:                -0.575
REMARK  3 active torsions:
REMARK  status: ('A' for Active; 'I' for Inactive)
REMARK    1  A    between atoms: C2_2  and  O11_20 
REMARK    2  A    between atoms: C10_10  and  N14_11 
REMARK    3  A    between atoms: N14_11  and  C15_12 
ROOT
HETATM    1  C1    D T9001     -10.953  -0.898   8.035  1.00 83.47     0.092 A 
HETATM    2  C2    D T9001     -11.794   0.261   8.099  1.00 83.68     0.109 A 
HETATM    3  C3    D T9001     -13.140   0.141   8.577  1.00 82.47     0.044 A 
HETATM    4  C4    D T9001     -13.682  -1.083   8.993  1.00 82.50     0.088 A 
HETATM    5  C5    D T9001     -12.852  -2.265   8.934  1.00 84.12     0.055 A 
HETATM    6  C6    D T9001     -11.491  -2.149   8.451  1.00 83.53     0.021 A 
HETATM    7  N7    D T9001     -14.968  -1.099   9.433  1.00 81.78    -0.224 NA
HETATM    8  C8    D T9001     -15.472  -2.293   9.835  1.00 83.59     0.200 A 
HETATM    9  N9    D T9001     -14.809  -3.475   9.833  1.00 84.30    -0.205 NA
HETATM   10  C10   D T9001     -13.493  -3.474   9.384  1.00 85.59     0.166 A 
HETATM   11  N13   D T9001      -9.618  -0.820   7.571  1.00 82.67    -0.099 NA
ENDROOT
BRANCH  10  12
HETATM   12  N14   D T9001     -12.758  -4.712   9.365  1.00 86.44    -0.227 NA
BRANCH  12  13
HETATM   13  C15   D T9001     -12.662  -5.659  10.423  1.00 87.38     0.084 A 
HETATM   14  C16   D T9001     -11.556  -6.566  10.519  1.00 88.13     0.033 A 
HETATM   15  C17   D T9001     -11.469  -7.510  11.569  1.00 88.88     0.087 A 
HETATM   16  C18   D T9001     -12.501  -7.563  12.543  1.00 88.55     0.151 A 
HETATM   17 CL     D T9001     -10.111  -8.580  11.632  1.00 89.26    -0.080 Cl
HETATM   18  C19   D T9001     -13.612  -6.676  12.477  1.00 87.62     0.032 A 
HETATM   19  F21   D T9001     -12.438  -8.456  13.545  1.00 88.92    -0.203 F 
HETATM   20  C20   D T9001     -13.695  -5.728  11.419  1.00 87.82     0.021 A 
ENDBRANCH  12  13
ENDBRANCH  10  12
BRANCH   2  21
HETATM   21  O11   D T9001     -11.202   1.450   7.678  1.00 85.44    -0.327 OA
HETATM   22  C12   D T9001     -11.654   2.030   6.449  1.00 84.41     0.181 C 
ENDBRANCH   2  21
TORSDOF 3
ENDMDL
MODEL 4
REMARK VINA RESULT:    -7.384      2.667      3.877
REMARK INTER + INTRA:          -9.254
REMARK INTER:                  -8.672
REMARK INTRA:                  -0.581
REMARK UNBOUND:                -0.575
REMARK  3 active torsions:
REMARK  status: ('A' for Active; 'I' for Inactive)
REMARK    1  A    between atoms: C2_2  and  O11_20 
REMARK    2  A    between atoms: C10_10  and  N14_11 
REMARK    3  A    between atoms: N14_11  and  C15_12 
ROOT
HETATM    1  C1    D T9001     -12.632  -2.650   8.876  1.00 83.47     0.092 A 
HETATM    2  C2    D T9001     -13.483  -1.593   9.340  1.00 83.68     0.109 A 
HETATM    3  C3    D T9001     -13.216  -0.239   8.951  1.00 82.47     0.044 A 
HETATM    4  C4    D T9001     -12.140   0.105   8.122  1.00 82.50     0.088 A 
HETATM    5  C5    D T9001     -11.267  -0.944   7.646  1.00 84.12     0.055 A 
HETATM    6  C6    D T9001     -11.532  -2.314   8.036  1.00 83.53     0.021 A 
HETATM    7  N7    D T9001     -11.967   1.416   7.806  1.00 81.78    -0.224 NA
HETATM    8  C8    D T9001     -10.922   1.727   6.998  1.00 83.59     0.200 A 
HETATM    9  N9    D T9001     -10.029   0.848   6.482  1.00 84.30    -0.205 NA
HETATM   10  C10   D T9001     -10.192  -0.496   6.799  1.00 85.59     0.166 A 
HETATM   11  N13   D T9001     -12.863  -3.999   9.236  1.00 82.67    -0.099 NA
ENDROOT
BRANCH  10  12
HETATM   12  N14   D T9001      -9.261  -1.458   6.270  1.00 86.44    -0.227 NA
BRANCH  12  13
HETATM   13  C15   D T9001      -8.219  -2.113   6.984  1.00 87.38     0.084 A 
HETATM   14  C16   D T9001      -8.078  -3.540   6.963  1.00 88.13     0.033 A 
HETATM   15  C17   D T9001      -7.045  -4.186   7.680  1.00 88.88     0.087 A 
HETATM   16  C18   D T9001      -6.131  -3.407   8.438  1.00 88.55     0.151 A 
HETATM   17 CL     D T9001      -6.927  -5.912   7.620  1.00 89.26    -0.080 Cl
HETATM   18  C19   D T9001      -6.243  -1.988   8.478  1.00 87.62     0.032 A 
HETATM   19  F21   D T9001      -5.146  -4.004   9.129  1.00 88.92    -0.203 F 
HETATM   20  C20   D T9001      -7.284  -1.342   7.755  1.00 87.82     0.021 A 
ENDBRANCH  12  13
ENDBRANCH  10  12
BRANCH   2  21
HETATM   21  O11   D T9001     -14.538  -1.994  10.156  1.00 85.44    -0.327 OA
HETATM   22  C12   D T9001     -15.864  -1.944   9.617  1.00 84.41     0.181 C 
ENDBRANCH   2  21
TORSDOF 3
ENDMDL
MODEL 5
REMARK VINA RESULT:    -7.299      4.434      7.048
REMARK INTER + INTRA:          -9.153
REMARK INTER:                  -8.652
REMARK INTRA:                  -0.501
REMARK UNBOUND:                -0.575
REMARK  3 active torsions:
REMARK  status: ('A' for Active; 'I' for Inactive)
REMARK    1  A    between atoms: C2_2  and  O11_20 
REMARK    2  A    between atoms: C10_10  and  N14_11 
REMARK    3  A    between atoms: N14_11  and  C15_12 
ROOT
HETATM    1  C1    D T9001      -7.319  -4.084   8.127  1.00 83.47     0.092 A 
HETATM    2  C2    D T9001      -6.026  -3.530   8.406  1.00 83.68     0.109 A 
HETATM    3  C3    D T9001      -5.799  -2.125   8.235  1.00 82.47     0.044 A 
HETATM    4  C4    D T9001      -6.804  -1.251   7.798  1.00 82.50     0.088 A 
HETATM    5  C5    D T9001      -8.114  -1.789   7.508  1.00 84.12     0.055 A 
HETATM    6  C6    D T9001      -8.348  -3.209   7.679  1.00 83.53     0.021 A 
HETATM    7  N7    D T9001      -6.496   0.067   7.667  1.00 81.78    -0.224 NA
HETATM    8  C8    D T9001      -7.484   0.897   7.248  1.00 83.59     0.200 A 
HETATM    9  N9    D T9001      -8.752   0.529   6.942  1.00 84.30    -0.205 NA
HETATM   10  C10   D T9001      -9.081  -0.816   7.069  1.00 85.59     0.166 A 
HETATM   11  N13   D T9001      -7.583  -5.465   8.286  1.00 82.67    -0.099 NA
ENDROOT
BRANCH  10  12
HETATM   12  N14   D T9001     -10.419  -1.243   6.750  1.00 86.44    -0.227 NA
BRANCH  12  13
HETATM   13  C15   D T9001     -11.501  -1.399   7.661  1.00 87.38     0.084 A 
HETATM   14  C16   D T9001     -11.759  -2.650   8.311  1.00 88.13     0.033 A 
HETATM   15  C17   D T9001     -12.840  -2.801   9.210  1.00 88.88     0.087 A 
HETATM   16  C18   D T9001     -13.689  -1.692   9.471  1.00 88.55     0.151 A 
HETATM   17 CL     D T9001     -13.104  -4.336   9.963  1.00 89.26    -0.080 Cl
HETATM   18  C19   D T9001     -13.459  -0.436   8.842  1.00 87.62     0.032 A 
HETATM   19  F21   D T9001     -14.723  -1.818  10.319  1.00 88.92    -0.203 F 
HETATM   20  C20   D T9001     -12.369  -0.289   7.938  1.00 87.82     0.021 A 
ENDBRANCH  12  13
ENDBRANCH  10  12
BRANCH   2  21
HETATM   21  O11   D T9001      -5.068  -4.444   8.841  1.00 85.44    -0.327 OA
HETATM   22  C12   D T9001      -4.066  -4.866   7.908  1.00 84.41     0.181 C 
ENDBRANCH   2  21
TORSDOF 3
ENDMDL
MODEL 6
REMARK VINA RESULT:    -7.239      4.764      7.432
REMARK INTER + INTRA:          -9.083
REMARK INTER:                  -8.492
REMARK INTRA:                  -0.591
REMARK UNBOUND:                -0.575
REMARK  3 active torsions:
REMARK  status: ('A' for Active; 'I' for Inactive)
REMARK    1  A    between atoms: C2_2  and  O11_20 
REMARK    2  A    between atoms: C10_10  and  N14_11 
REMARK    3  A    between atoms: N14_11  and  C15_12 
ROOT
HETATM    1  C1    D T9001      -7.697  -6.141   8.606  1.00 83.47     0.092 A 
HETATM    2  C2    D T9001      -6.961  -6.243   7.380  1.00 83.68     0.109 A 
HETATM    3  C3    D T9001      -6.954  -5.146   6.457  1.00 82.47     0.044 A 
HETATM    4  C4    D T9001      -7.647  -3.954   6.705  1.00 82.50     0.088 A 
HETATM    5  C5    D T9001      -8.397  -3.829   7.935  1.00 84.12     0.055 A 
HETATM    6  C6    D T9001      -8.408  -4.935   8.870  1.00 83.53     0.021 A 
HETATM    7  N7    D T9001      -7.580  -2.966   5.772  1.00 81.78    -0.224 NA
HETATM    8  C8    D T9001      -8.255  -1.818   6.034  1.00 83.59     0.200 A 
HETATM    9  N9    D T9001      -8.995  -1.568   7.141  1.00 84.30    -0.205 NA
HETATM   10  C10   D T9001      -9.073  -2.569   8.103  1.00 85.59     0.166 A 
HETATM   11  N13   D T9001      -7.727  -7.200   9.544  1.00 82.67    -0.099 NA
ENDROOT
BRANCH  10  12
HETATM   12  N14   D T9001      -9.853  -2.338   9.292  1.00 86.44    -0.227 NA
BRANCH  12  13
HETATM   13  C15   D T9001     -11.265  -2.458   9.418  1.00 87.38     0.084 A 
HETATM   14  C16   D T9001     -11.877  -3.675   9.864  1.00 88.13     0.033 A 
HETATM   15  C17   D T9001     -13.282  -3.791   9.981  1.00 88.88     0.087 A 
HETATM   16  C18   D T9001     -14.102  -2.680   9.646  1.00 88.55     0.151 A 
HETATM   17 CL     D T9001     -13.964  -5.286  10.523  1.00 89.26    -0.080 Cl
HETATM   18  C19   D T9001     -13.525  -1.457   9.201  1.00 87.62     0.032 A 
HETATM   19  F21   D T9001     -15.438  -2.773   9.747  1.00 88.92    -0.203 F 
HETATM   20  C20   D T9001     -12.111  -1.346   9.085  1.00 87.82     0.021 A 
ENDBRANCH  12  13
ENDBRANCH  10  12
BRANCH   2  21
HETATM   21  O11   D T9001      -6.289  -7.448   7.189  1.00 85.44    -0.327 OA
HETATM   22  C12   D T9001      -6.657  -8.256   6.065  1.00 84.41     0.181 C 
ENDBRANCH   2  21
TORSDOF 3
ENDMDL
MODEL 7
REMARK VINA RESULT:    -7.185      4.460      7.255
REMARK INTER + INTRA:          -9.020
REMARK INTER:                  -8.455
REMARK INTRA:                  -0.565
REMARK UNBOUND:                -0.575
REMARK  3 active torsions:
REMARK  status: ('A' for Active; 'I' for Inactive)
REMARK    1  A    between atoms: C2_2  and  O11_20 
REMARK    2  A    between atoms: C10_10  and  N14_11 
REMARK    3  A    between atoms: N14_11  and  C15_12 
ROOT
HETATM    1  C1    D T9001      -6.832  -3.966   6.612  1.00 83.47     0.092 A 
HETATM    2  C2    D T9001      -5.511  -3.513   6.941  1.00 83.68     0.109 A 
HETATM    3  C3    D T9001      -5.282  -2.128   7.229  1.00 82.47     0.044 A 
HETATM    4  C4    D T9001      -6.312  -1.176   7.203  1.00 82.50     0.088 A 
HETATM    5  C5    D T9001      -7.650  -1.610   6.872  1.00 84.12     0.055 A 
HETATM    6  C6    D T9001      -7.887  -3.010   6.580  1.00 83.53     0.021 A 
HETATM    7  N7    D T9001      -5.999   0.115   7.493  1.00 81.78    -0.224 NA
HETATM    8  C8    D T9001      -7.011   1.019   7.467  1.00 83.59     0.200 A 
HETATM    9  N9    D T9001      -8.306   0.752   7.173  1.00 84.30    -0.205 NA
HETATM   10  C10   D T9001      -8.640  -0.564   6.874  1.00 85.59     0.166 A 
HETATM   11  N13   D T9001      -7.099  -5.325   6.324  1.00 82.67    -0.099 NA
ENDROOT
BRANCH  10  12
HETATM   12  N14   D T9001     -10.008  -0.885   6.555  1.00 86.44    -0.227 NA
BRANCH  12  13
HETATM   13  C15   D T9001     -11.079  -1.051   7.476  1.00 87.38     0.084 A 
HETATM   14  C16   D T9001     -12.231  -0.198   7.447  1.00 88.13     0.033 A 
HETATM   15  C17   D T9001     -13.289  -0.363   8.370  1.00 88.88     0.087 A 
HETATM   16  C18   D T9001     -13.208  -1.391   9.347  1.00 88.55     0.151 A 
HETATM   17 CL     D T9001     -14.654   0.699   8.289  1.00 89.26    -0.080 Cl
HETATM   18  C19   D T9001     -12.078  -2.255   9.402  1.00 87.62     0.032 A 
HETATM   19  F21   D T9001     -14.202  -1.560  10.235  1.00 88.92    -0.203 F 
HETATM   20  C20   D T9001     -11.015  -2.085   8.471  1.00 87.82     0.021 A 
ENDBRANCH  12  13
ENDBRANCH  10  12
BRANCH   2  21
HETATM   21  O11   D T9001      -4.530  -4.502   6.955  1.00 85.44    -0.327 OA
HETATM   22  C12   D T9001      -3.610  -4.554   5.859  1.00 84.41     0.181 C 
ENDBRANCH   2  21
TORSDOF 3
ENDMDL
MODEL 8
REMARK VINA RESULT:    -7.059      4.310      7.200
REMARK INTER + INTRA:          -8.871
REMARK INTER:                  -8.367
REMARK INTRA:                  -0.504
REMARK UNBOUND:                -0.575
REMARK  3 active torsions:
REMARK  status: ('A' for Active; 'I' for Inactive)
REMARK    1  A    between atoms: C2_2  and  O11_20 
REMARK    2  A    between atoms: C10_10  and  N14_11 
REMARK    3  A    between atoms: N14_11  and  C15_12 
ROOT
HETATM    1  C1    D T9001      -5.863   0.330   6.669  1.00 83.47     0.092 A 
HETATM    2  C2    D T9001      -5.148  -0.359   5.635  1.00 83.68     0.109 A 
HETATM    3  C3    D T9001      -5.437  -1.736   5.362  1.00 82.47     0.044 A 
HETATM    4  C4    D T9001      -6.408  -2.453   6.075  1.00 82.50     0.088 A 
HETATM    5  C5    D T9001      -7.139  -1.779   7.123  1.00 84.12     0.055 A 
HETATM    6  C6    D T9001      -6.850  -0.387   7.404  1.00 83.53     0.021 A 
HETATM    7  N7    D T9001      -6.615  -3.756   5.743  1.00 81.78    -0.224 NA
HETATM    8  C8    D T9001      -7.563  -4.431   6.443  1.00 83.59     0.200 A 
HETATM    9  N9    D T9001      -8.318  -3.925   7.446  1.00 84.30    -0.205 NA
HETATM   10  C10   D T9001      -8.116  -2.595   7.797  1.00 85.59     0.166 A 
HETATM   11  N13   D T9001      -5.607   1.690   6.967  1.00 82.67    -0.099 NA
ENDROOT
BRANCH  10  12
HETATM   12  N14   D T9001      -8.901  -2.024   8.862  1.00 86.44    -0.227 NA
BRANCH  12  13
HETATM   13  C15   D T9001     -10.320  -2.009   8.957  1.00 87.38     0.084 A 
HETATM   14  C16   D T9001     -11.105  -1.004   8.301  1.00 88.13     0.033 A 
HETATM   15  C17   D T9001     -12.515  -0.990   8.405  1.00 88.88     0.087 A 
HETATM   16  C18   D T9001     -13.166  -1.988   9.178  1.00 88.55     0.151 A 
HETATM   17 CL     D T9001     -13.409   0.250   7.593  1.00 89.26    -0.080 Cl
HETATM   18  C19   D T9001     -12.416  -3.000   9.841  1.00 87.62     0.032 A 
HETATM   19  F21   D T9001     -14.505  -1.988   9.291  1.00 88.92    -0.203 F 
HETATM   20  C20   D T9001     -10.997  -3.010   9.733  1.00 87.82     0.021 A 
ENDBRANCH  12  13
ENDBRANCH  10  12
BRANCH   2  21
HETATM   21  O11   D T9001      -4.199   0.404   4.957  1.00 85.44    -0.327 OA
HETATM   22  C12   D T9001      -3.311  -0.268   4.057  1.00 84.41     0.181 C 
ENDBRANCH   2  21
TORSDOF 3
ENDMDL
MODEL 9
REMARK VINA RESULT:    -6.839      1.729      2.334
REMARK INTER + INTRA:          -8.613
REMARK INTER:                  -8.421
REMARK INTRA:                  -0.193
REMARK UNBOUND:                -0.575
REMARK  3 active torsions:
REMARK  status: ('A' for Active; 'I' for Inactive)
REMARK    1  A    between atoms: C2_2  and  O11_20 
REMARK    2  A    between atoms: C10_10  and  N14_11 
REMARK    3  A    between atoms: N14_11  and  C15_12 
ROOT
HETATM    1  C1    D T9001     -11.920  -0.284   7.617  1.00 83.47     0.092 A 
HETATM    2  C2    D T9001     -13.068  -0.387   8.471  1.00 83.68     0.109 A 
HETATM    3  C3    D T9001     -13.303  -1.594   9.208  1.00 82.47     0.044 A 
HETATM    4  C4    D T9001     -12.444  -2.699   9.131  1.00 82.50     0.088 A 
HETATM    5  C5    D T9001     -11.282  -2.617   8.276  1.00 84.12     0.055 A 
HETATM    6  C6    D T9001     -11.041  -1.400   7.527  1.00 83.53     0.021 A 
HETATM    7  N7    D T9001     -12.748  -3.800   9.869  1.00 81.78    -0.224 NA
HETATM    8  C8    D T9001     -11.901  -4.857   9.784  1.00 83.59     0.200 A 
HETATM    9  N9    D T9001     -10.780  -4.916   9.025  1.00 84.30    -0.205 NA
HETATM   10  C10   D T9001     -10.459  -3.798   8.264  1.00 85.59     0.166 A 
HETATM   11  N13   D T9001     -11.653   0.891   6.875  1.00 82.67    -0.099 NA
ENDROOT
BRANCH  10  12
HETATM   12  N14   D T9001      -9.275  -3.827   7.442  1.00 86.44    -0.227 NA
BRANCH  12  13
HETATM   13  C15   D T9001      -8.236  -2.856   7.416  1.00 87.38     0.084 A 
HETATM   14  C16   D T9001      -7.551  -2.523   6.202  1.00 88.13     0.033 A 
HETATM   15  C17   D T9001      -6.514  -1.563   6.183  1.00 88.88     0.087 A 
HETATM   16  C18   D T9001      -6.141  -0.917   7.392  1.00 88.55     0.151 A 
HETATM   17 CL     D T9001      -5.722  -1.205   4.686  1.00 89.26    -0.080 Cl
HETATM   18  C19   D T9001      -6.802  -1.224   8.615  1.00 87.62     0.032 A 
HETATM   19  F21   D T9001      -5.155  -0.005   7.394  1.00 88.92    -0.203 F 
HETATM   20  C20   D T9001      -7.845  -2.192   8.629  1.00 87.82     0.021 A 
ENDBRANCH  12  13
ENDBRANCH  10  12
BRANCH   2  21
HETATM   21  O11   D T9001     -13.883   0.741   8.511  1.00 85.44    -0.327 OA
HETATM   22  C12   D T9001     -15.226   0.621   8.028  1.00 84.41     0.181 C 
ENDBRANCH   2  21
TORSDOF 3
ENDMDL
