MODEL 1
REMARK VINA RESULT:    -7.514      0.000      0.000
REMARK INTER + INTRA:          -9.385
REMARK INTER:                  -8.832
REMARK INTRA:                  -0.553
REMARK UNBOUND:                -0.553
REMARK  3 active torsions:
REMARK  status: ('A' for Active; 'I' for Inactive)
REMARK    1  A    between atoms: C2_2  and  O11_20 
REMARK    2  A    between atoms: C10_10  and  N14_11 
REMARK    3  A    between atoms: N14_11  and  C15_12 
ROOT
HETATM    1  C1    D T9001      10.217  12.435  -2.081  1.00 83.47     0.092 A 
HETATM    2  C2    D T9001      11.008  11.867  -1.029  1.00 83.68     0.109 A 
HETATM    3  C3    D T9001      12.373  12.276  -0.860  1.00 82.47     0.044 A 
HETATM    4  C4    D T9001      12.980  13.224  -1.694  1.00 82.50     0.088 A 
HETATM    5  C5    D T9001      12.202  13.808  -2.763  1.00 84.12     0.055 A 
HETATM    6  C6    D T9001      10.823  13.398  -2.938  1.00 83.53     0.021 A 
HETATM    7  N7    D T9001      14.279  13.550  -1.456  1.00 81.78    -0.224 NA
HETATM    8  C8    D T9001      14.847  14.474  -2.273  1.00 83.59     0.200 A 
HETATM    9  N9    D T9001      14.236  15.099  -3.309  1.00 84.30    -0.205 NA
HETATM   10  C10   D T9001      12.909  14.773  -3.566  1.00 85.59     0.166 A 
HETATM   11  N13   D T9001       8.867  12.061  -2.278  1.00 82.67    -0.099 NA
ENDROOT
BRANCH  10  12
HETATM   12  N14   D T9001      12.229  15.416  -4.661  1.00 86.44    -0.227 NA
BRANCH  12  13
HETATM   13  C15   D T9001      11.738  16.751  -4.690  1.00 87.38     0.084 A 
HETATM   14  C16   D T9001      11.668  17.549  -3.501  1.00 88.13     0.033 A 
HETATM   15  C17   D T9001      11.173  18.872  -3.536  1.00 88.88     0.087 A 
HETATM   16  C18   D T9001      10.734  19.421  -4.769  1.00 88.55     0.151 A 
HETATM   17 CL     D T9001      11.108  19.787  -2.067  1.00 89.26    -0.080 Cl
HETATM   18  C19   D T9001      10.792  18.655  -5.969  1.00 87.62     0.032 A 
HETATM   19  F21   D T9001      10.257  20.676  -4.819  1.00 88.92    -0.203 F 
HETATM   20  C20   D T9001      11.292  17.323  -5.929  1.00 87.82     0.021 A 
ENDBRANCH  12  13
ENDBRANCH  10  12
BRANCH   2  21
HETATM   21  O11   D T9001      10.352  10.935  -0.228  1.00 85.44    -0.327 OA
HETATM   22  C12   D T9001      10.845  10.721   1.099  1.00 84.41     0.181 C 
ENDBRANCH   2  21
TORSDOF 3
ENDMDL
MODEL 2
REMARK VINA RESULT:    -7.259      5.704      8.310
REMARK INTER + INTRA:          -9.085
REMARK INTER:                  -8.593
REMARK INTRA:                  -0.491
REMARK UNBOUND:                -0.553
REMARK  3 active torsions:
REMARK  status: ('A' for Active; 'I' for Inactive)
REMARK    1  A    between atoms: C2_2  and  O11_20 
REMARK    2  A    between atoms: C10_10  and  N14_11 
REMARK    3  A    between atoms: N14_11  and  C15_12 
ROOT
HETATM    1  C1    D T9001      12.040  13.449  -2.121  1.00 83.47     0.092 A 
HETATM    2  C2    D T9001      10.739  12.848  -2.082  1.00 83.68     0.109 A 
HETATM    3  C3    D T9001      10.442  11.849  -1.095  1.00 82.47     0.044 A 
HETATM    4  C4    D T9001      11.386  11.426  -0.150  1.00 82.50     0.088 A 
HETATM    5  C5    D T9001      12.705  12.015  -0.173  1.00 84.12     0.055 A 
HETATM    6  C6    D T9001      13.009  13.025  -1.168  1.00 83.53     0.021 A 
HETATM    7  N7    D T9001      11.012  10.474   0.748  1.00 81.78    -0.224 NA
HETATM    8  C8    D T9001      11.940  10.081   1.658  1.00 83.59     0.200 A 
HETATM    9  N9    D T9001      13.209  10.549   1.749  1.00 84.30    -0.205 NA
HETATM   10  C10   D T9001      13.605  11.520   0.836  1.00 85.59     0.166 A 
HETATM   11  N13   D T9001      12.371  14.439  -3.076  1.00 82.67    -0.099 NA
ENDROOT
BRANCH  10  12
HETATM   12  N14   D T9001      14.947  12.038   0.903  1.00 86.44    -0.227 NA
BRANCH  12  13
HETATM   13  C15   D T9001      16.152  11.280   0.888  1.00 87.38     0.084 A 
HETATM   14  C16   D T9001      16.805  10.886   2.102  1.00 88.13     0.033 A 
HETATM   15  C17   D T9001      18.005  10.140   2.079  1.00 88.88     0.087 A 
HETATM   16  C18   D T9001      18.576   9.776   0.831  1.00 88.55     0.151 A 
HETATM   17 CL     D T9001      18.751   9.697   3.577  1.00 89.26    -0.080 Cl
HETATM   18  C19   D T9001      17.951  10.150  -0.393  1.00 87.62     0.032 A 
HETATM   19  F21   D T9001      19.719   9.069   0.791  1.00 88.92    -0.203 F 
HETATM   20  C20   D T9001      16.742  10.902  -0.364  1.00 87.82     0.021 A 
ENDBRANCH  12  13
ENDBRANCH  10  12
BRANCH   2  21
HETATM   21  O11   D T9001       9.841  13.311  -3.041  1.00 85.44    -0.327 OA
HETATM   22  C12   D T9001       8.447  13.317  -2.711  1.00 84.41     0.181 C 
ENDBRANCH   2  21
TORSDOF 3
ENDMDL
MODEL 3
REMARK VINA RESULT:    -7.166      1.362      2.855
REMARK INTER + INTRA:          -8.976
REMARK INTER:                  -8.503
REMARK INTRA:                  -0.472
REMARK UNBOUND:                -0.553
REMARK  3 active torsions:
REMARK  status: ('A' for Active; 'I' for Inactive)
REMARK    1  A    between atoms: C2_2  and  O11_20 
REMARK    2  A    between atoms: C10_10  and  N14_11 
REMARK    3  A    between atoms: N14_11  and  C15_12 
ROOT
HETATM    1  C1    D T9001      13.649  12.564  -0.245  1.00 83.47     0.092 A 
HETATM    2  C2    D T9001      12.698  11.654   0.322  1.00 83.68     0.109 A 
HETATM    3  C3    D T9001      11.369  11.583  -0.214  1.00 82.47     0.044 A 
HETATM    4  C4    D T9001      10.950  12.381  -1.288  1.00 82.50     0.088 A 
HETATM    5  C5    D T9001      11.892  13.308  -1.873  1.00 84.12     0.055 A 
HETATM    6  C6    D T9001      13.236  13.383  -1.335  1.00 83.53     0.021 A 
HETATM    7  N7    D T9001       9.671  12.243  -1.729  1.00 81.78    -0.224 NA
HETATM    8  C8    D T9001       9.287  13.021  -2.773  1.00 83.59     0.200 A 
HETATM    9  N9    D T9001      10.064  13.928  -3.413  1.00 84.30    -0.205 NA
HETATM   10  C10   D T9001      11.373  14.082  -2.971  1.00 85.59     0.166 A 
HETATM   11  N13   D T9001      14.970  12.661   0.252  1.00 82.67    -0.099 NA
ENDROOT
BRANCH  10  12
HETATM   12  N14   D T9001      12.226  15.039  -3.627  1.00 86.44    -0.227 NA
BRANCH  12  13
HETATM   13  C15   D T9001      11.844  16.315  -4.128  1.00 87.38     0.084 A 
HETATM   14  C16   D T9001      11.578  17.415  -3.249  1.00 88.13     0.033 A 
HETATM   15  C17   D T9001      11.191  18.678  -3.754  1.00 88.88     0.087 A 
HETATM   16  C18   D T9001      11.061  18.860  -5.156  1.00 88.55     0.151 A 
HETATM   17 CL     D T9001      10.878  19.970  -2.644  1.00 89.26    -0.080 Cl
HETATM   18  C19   D T9001      11.321  17.786  -6.056  1.00 87.62     0.032 A 
HETATM   19  F21   D T9001      10.692  20.053  -5.652  1.00 88.92    -0.203 F 
HETATM   20  C20   D T9001      11.710  16.517  -5.543  1.00 87.82     0.021 A 
ENDBRANCH  12  13
ENDBRANCH  10  12
BRANCH   2  21
HETATM   21  O11   D T9001      13.170  10.884   1.382  1.00 85.44    -0.327 OA
HETATM   22  C12   D T9001      12.436   9.707   1.739  1.00 84.41     0.181 C 
ENDBRANCH   2  21
TORSDOF 3
ENDMDL
MODEL 4
REMARK VINA RESULT:    -7.114      6.117      8.571
REMARK INTER + INTRA:          -8.915
REMARK INTER:                  -8.407
REMARK INTRA:                  -0.508
REMARK UNBOUND:                -0.553
REMARK  3 active torsions:
REMARK  status: ('A' for Active; 'I' for Inactive)
REMARK    1  A    between atoms: C2_2  and  O11_20 
REMARK    2  A    between atoms: C10_10  and  N14_11 
REMARK    3  A    between atoms: N14_11  and  C15_12 
ROOT
HETATM    1  C1    D T9001      11.622  11.476  -0.229  1.00 83.47     0.092 A 
HETATM    2  C2    D T9001      11.334  12.363  -1.318  1.00 83.68     0.109 A 
HETATM    3  C3    D T9001      12.340  13.274  -1.784  1.00 82.47     0.044 A 
HETATM    4  C4    D T9001      13.617  13.338  -1.210  1.00 82.50     0.088 A 
HETATM    5  C5    D T9001      13.928  12.456  -0.108  1.00 84.12     0.055 A 
HETATM    6  C6    D T9001      12.915  11.533   0.365  1.00 83.53     0.021 A 
HETATM    7  N7    D T9001      14.505  14.234  -1.719  1.00 81.78    -0.224 NA
HETATM    8  C8    D T9001      15.738  14.276  -1.152  1.00 83.59     0.200 A 
HETATM    9  N9    D T9001      16.162  13.509  -0.119  1.00 84.30    -0.205 NA
HETATM   10  C10   D T9001      15.263  12.591   0.414  1.00 85.59     0.166 A 
HETATM   11  N13   D T9001      10.659  10.561   0.257  1.00 82.67    -0.099 NA
ENDROOT
BRANCH  10  12
HETATM   12  N14   D T9001      15.680  11.761   1.515  1.00 86.44    -0.227 NA
BRANCH  12  13
HETATM   13  C15   D T9001      16.752  10.826   1.514  1.00 87.38     0.084 A 
HETATM   14  C16   D T9001      17.613  10.672   2.650  1.00 88.13     0.033 A 
HETATM   15  C17   D T9001      18.681   9.746   2.640  1.00 88.88     0.087 A 
HETATM   16  C18   D T9001      18.907   8.954   1.483  1.00 88.55     0.151 A 
HETATM   17 CL     D T9001      19.691   9.608   4.040  1.00 89.26    -0.080 Cl
HETATM   18  C19   D T9001      18.068   9.081   0.339  1.00 87.62     0.032 A 
HETATM   19  F21   D T9001      19.920   8.072   1.456  1.00 88.92    -0.203 F 
HETATM   20  C20   D T9001      16.995  10.015   0.354  1.00 87.82     0.021 A 
ENDBRANCH  12  13
ENDBRANCH  10  12
BRANCH   2  21
HETATM   21  O11   D T9001      10.052  12.252  -1.852  1.00 85.44    -0.327 OA
HETATM   22  C12   D T9001       9.626  13.244  -2.793  1.00 84.41     0.181 C 
ENDBRANCH   2  21
TORSDOF 3
ENDMDL
MODEL 5
REMARK VINA RESULT:    -7.022      4.382      7.112
REMARK INTER + INTRA:          -8.807
REMARK INTER:                  -8.231
REMARK INTRA:                  -0.576
REMARK UNBOUND:                -0.553
REMARK  3 active torsions:
REMARK  status: ('A' for Active; 'I' for Inactive)
REMARK    1  A    between atoms: C2_2  and  O11_20 
REMARK    2  A    between atoms: C10_10  and  N14_11 
REMARK    3  A    between atoms: N14_11  and  C15_12 
ROOT
HETATM    1  C1    D T9001      12.437  15.897  -3.974  1.00 83.47     0.092 A 
HETATM    2  C2    D T9001      12.546  15.707  -5.391  1.00 83.68     0.109 A 
HETATM    3  C3    D T9001      13.405  14.682  -5.911  1.00 82.47     0.044 A 
HETATM    4  C4    D T9001      14.160  13.844  -5.079  1.00 82.50     0.088 A 
HETATM    5  C5    D T9001      14.069  14.021  -3.647  1.00 84.12     0.055 A 
HETATM    6  C6    D T9001      13.201  15.054  -3.118  1.00 83.53     0.021 A 
HETATM    7  N7    D T9001      14.946  12.900  -5.663  1.00 81.78    -0.224 NA
HETATM    8  C8    D T9001      15.666  12.095  -4.839  1.00 83.59     0.200 A 
HETATM    9  N9    D T9001      15.674  12.151  -3.485  1.00 84.30    -0.205 NA
HETATM   10  C10   D T9001      14.877  13.113  -2.875  1.00 85.59     0.166 A 
HETATM   11  N13   D T9001      11.598  16.894  -3.422  1.00 82.67    -0.099 NA
ENDROOT
BRANCH  10  12
HETATM   12  N14   D T9001      14.864  13.202  -1.437  1.00 86.44    -0.227 NA
BRANCH  12  13
HETATM   13  C15   D T9001      14.069  12.429  -0.546  1.00 87.38     0.084 A 
HETATM   14  C16   D T9001      12.716  12.077  -0.862  1.00 88.13     0.033 A 
HETATM   15  C17   D T9001      11.930  11.314   0.031  1.00 88.88     0.087 A 
HETATM   16  C18   D T9001      12.488  10.892   1.266  1.00 88.55     0.151 A 
HETATM   17 CL     D T9001      10.300  10.923  -0.403  1.00 89.26    -0.080 Cl
HETATM   18  C19   D T9001      13.830  11.224   1.610  1.00 87.62     0.032 A 
HETATM   19  F21   D T9001      11.753  10.169   2.129  1.00 88.92    -0.203 F 
HETATM   20  C20   D T9001      14.618  11.992   0.706  1.00 87.82     0.021 A 
ENDBRANCH  12  13
ENDBRANCH  10  12
BRANCH   2  21
HETATM   21  O11   D T9001      11.770  16.564  -6.168  1.00 85.44    -0.327 OA
HETATM   22  C12   D T9001      12.429  17.346  -7.170  1.00 84.41     0.181 C 
ENDBRANCH   2  21
TORSDOF 3
ENDMDL
MODEL 6
REMARK VINA RESULT:    -6.887      4.151      5.962
REMARK INTER + INTRA:          -8.648
REMARK INTER:                  -8.085
REMARK INTRA:                  -0.562
REMARK UNBOUND:                -0.553
REMARK  3 active torsions:
REMARK  status: ('A' for Active; 'I' for Inactive)
REMARK    1  A    between atoms: C2_2  and  O11_20 
REMARK    2  A    between atoms: C10_10  and  N14_11 
REMARK    3  A    between atoms: N14_11  and  C15_12 
ROOT
HETATM    1  C1    D T9001      16.329  11.936   1.000  1.00 83.47     0.092 A 
HETATM    2  C2    D T9001      16.260  10.740   1.789  1.00 83.68     0.109 A 
HETATM    3  C3    D T9001      14.987  10.142   2.071  1.00 82.47     0.044 A 
HETATM    4  C4    D T9001      13.783  10.685   1.602  1.00 82.50     0.088 A 
HETATM    5  C5    D T9001      13.829  11.891   0.808  1.00 84.12     0.055 A 
HETATM    6  C6    D T9001      15.112  12.499   0.520  1.00 83.53     0.021 A 
HETATM    7  N7    D T9001      12.625  10.046   1.920  1.00 81.78    -0.224 NA
HETATM    8  C8    D T9001      11.470  10.586   1.451  1.00 83.59     0.200 A 
HETATM    9  N9    D T9001      11.368  11.708   0.698  1.00 84.30    -0.205 NA
HETATM   10  C10   D T9001      12.544  12.372   0.369  1.00 85.59     0.166 A 
HETATM   11  N13   D T9001      17.564  12.554   0.697  1.00 82.67    -0.099 NA
ENDROOT
BRANCH  10  12
HETATM   12  N14   D T9001      12.472  13.570  -0.429  1.00 86.44    -0.227 NA
BRANCH  12  13
HETATM   13  C15   D T9001      12.498  13.647  -1.849  1.00 87.38     0.084 A 
HETATM   14  C16   D T9001      13.730  13.777  -2.570  1.00 88.13     0.033 A 
HETATM   15  C17   D T9001      13.748  13.860  -3.981  1.00 88.88     0.087 A 
HETATM   16  C18   D T9001      12.524  13.818  -4.698  1.00 88.55     0.151 A 
HETATM   17 CL     D T9001      15.267  14.021  -4.797  1.00 89.26    -0.080 Cl
HETATM   18  C19   D T9001      11.282  13.688  -4.012  1.00 87.62     0.032 A 
HETATM   19  F21   D T9001      12.523  13.900  -6.040  1.00 88.92    -0.203 F 
HETATM   20  C20   D T9001      11.270  13.604  -2.591  1.00 87.82     0.021 A 
ENDBRANCH  12  13
ENDBRANCH  10  12
BRANCH   2  21
HETATM   21  O11   D T9001      17.487  10.244   2.224  1.00 85.44    -0.327 OA
HETATM   22  C12   D T9001      17.733  10.198   3.634  1.00 84.41     0.181 C 
ENDBRANCH   2  21
TORSDOF 3
ENDMDL
MODEL 7
REMARK VINA RESULT:    -6.873      4.850      6.786
REMARK INTER + INTRA:          -8.631
REMARK INTER:                  -8.097
REMARK INTRA:                  -0.534
REMARK UNBOUND:                -0.553
REMARK  3 active torsions:
REMARK  status: ('A' for Active; 'I' for Inactive)
REMARK    1  A    between atoms: C2_2  and  O11_20 
REMARK    2  A    between atoms: C10_10  and  N14_11 
REMARK    3  A    between atoms: N14_11  and  C15_12 
ROOT
HETATM    1  C1    D T9001      17.716  11.728   1.297  1.00 83.47     0.092 A 
HETATM    2  C2    D T9001      17.304  10.767   2.279  1.00 83.68     0.109 A 
HETATM    3  C3    D T9001      15.917  10.423   2.404  1.00 82.47     0.044 A 
HETATM    4  C4    D T9001      14.926  10.996   1.595  1.00 82.50     0.088 A 
HETATM    5  C5    D T9001      15.319  11.970   0.601  1.00 84.12     0.055 A 
HETATM    6  C6    D T9001      16.719  12.320   0.471  1.00 83.53     0.021 A 
HETATM    7  N7    D T9001      13.637  10.607   1.786  1.00 81.78    -0.224 NA
HETATM    8  C8    D T9001      12.694  11.171   0.989  1.00 83.59     0.200 A 
HETATM    9  N9    D T9001      12.921  12.091   0.021  1.00 84.30    -0.205 NA
HETATM   10  C10   D T9001      14.234  12.501  -0.183  1.00 85.59     0.166 A 
HETATM   11  N13   D T9001      19.074  12.091   1.140  1.00 82.67    -0.099 NA
ENDROOT
BRANCH  10  12
HETATM   12  N14   D T9001      14.512  13.480  -1.202  1.00 86.44    -0.227 NA
BRANCH  12  13
HETATM   13  C15   D T9001      14.684  13.234  -2.593  1.00 87.38     0.084 A 
HETATM   14  C16   D T9001      13.871  13.888  -3.576  1.00 88.13     0.033 A 
HETATM   15  C17   D T9001      14.042  13.633  -4.956  1.00 88.88     0.087 A 
HETATM   16  C18   D T9001      15.036  12.709  -5.377  1.00 88.55     0.151 A 
HETATM   17 CL     D T9001      13.028  14.449  -6.097  1.00 89.26    -0.080 Cl
HETATM   18  C19   D T9001      15.861  12.045  -4.425  1.00 87.62     0.032 A 
HETATM   19  F21   D T9001      15.209  12.453  -6.684  1.00 88.92    -0.203 F 
HETATM   20  C20   D T9001      15.684  12.305  -3.037  1.00 87.82     0.021 A 
ENDBRANCH  12  13
ENDBRANCH  10  12
BRANCH   2  21
HETATM   21  O11   D T9001      18.331  10.227   3.050  1.00 85.44    -0.327 OA
HETATM   22  C12   D T9001      18.039   9.876   4.408  1.00 84.41     0.181 C 
ENDBRANCH   2  21
TORSDOF 3
ENDMDL
MODEL 8
REMARK VINA RESULT:    -6.744      4.763      6.685
REMARK INTER + INTRA:          -8.480
REMARK INTER:                  -8.758
REMARK INTRA:                   0.278
REMARK UNBOUND:                -0.553
REMARK  3 active torsions:
REMARK  status: ('A' for Active; 'I' for Inactive)
REMARK    1  A    between atoms: C2_2  and  O11_20 
REMARK    2  A    between atoms: C10_10  and  N14_11 
REMARK    3  A    between atoms: N14_11  and  C15_12 
ROOT
HETATM    1  C1    D T9001      17.392  11.790   1.210  1.00 83.47     0.092 A 
HETATM    2  C2    D T9001      17.406  10.816   2.262  1.00 83.68     0.109 A 
HETATM    3  C3    D T9001      16.182  10.186   2.669  1.00 82.47     0.044 A 
HETATM    4  C4    D T9001      14.950  10.489   2.074  1.00 82.50     0.088 A 
HETATM    5  C5    D T9001      14.913  11.471   1.014  1.00 84.12     0.055 A 
HETATM    6  C6    D T9001      16.146  12.109   0.599  1.00 83.53     0.021 A 
HETATM    7  N7    D T9001      13.843   9.840   2.525  1.00 81.78    -0.224 NA
HETATM    8  C8    D T9001      12.660  10.144   1.932  1.00 83.59     0.200 A 
HETATM    9  N9    D T9001      12.482  11.040   0.932  1.00 84.30    -0.205 NA
HETATM   10  C10   D T9001      13.605  11.713   0.462  1.00 85.59     0.166 A 
HETATM   11  N13   D T9001      18.578  12.430   0.778  1.00 82.67    -0.099 NA
ENDROOT
BRANCH  10  12
HETATM   12  N14   D T9001      13.452  12.675  -0.599  1.00 86.44    -0.227 NA
BRANCH  12  13
HETATM   13  C15   D T9001      12.256  12.969  -1.313  1.00 87.38     0.084 A 
HETATM   14  C16   D T9001      11.119  12.097  -1.261  1.00 88.13     0.033 A 
HETATM   15  C17   D T9001       9.937  12.392  -1.979  1.00 88.88     0.087 A 
HETATM   16  C18   D T9001       9.876  13.571  -2.767  1.00 88.55     0.151 A 
HETATM   17 CL     D T9001       8.597  11.300  -1.882  1.00 89.26    -0.080 Cl
HETATM   18  C19   D T9001      10.987  14.459  -2.838  1.00 87.62     0.032 A 
HETATM   19  F21   D T9001       8.761  13.865  -3.458  1.00 88.92    -0.203 F 
HETATM   20  C20   D T9001      12.175  14.158  -2.114  1.00 87.82     0.021 A 
ENDBRANCH  12  13
ENDBRANCH  10  12
BRANCH   2  21
HETATM   21  O11   D T9001      18.657  10.552   2.813  1.00 85.44    -0.327 OA
HETATM   22  C12   D T9001      18.725   9.670   3.939  1.00 84.41     0.181 C 
ENDBRANCH   2  21
TORSDOF 3
ENDMDL
MODEL 9
REMARK VINA RESULT:    -6.627      2.171      2.624
REMARK INTER + INTRA:          -8.342
REMARK INTER:                  -7.866
REMARK INTRA:                  -0.477
REMARK UNBOUND:                -0.553
REMARK  3 active torsions:
REMARK  status: ('A' for Active; 'I' for Inactive)
REMARK    1  A    between atoms: C2_2  and  O11_20 
REMARK    2  A    between atoms: C10_10  and  N14_11 
REMARK    3  A    between atoms: N14_11  and  C15_12 
ROOT
HETATM    1  C1    D T9001      12.970  12.074   0.224  1.00 83.47     0.092 A 
HETATM    2  C2    D T9001      14.195  12.074   0.970  1.00 83.68     0.109 A 
HETATM    3  C3    D T9001      15.308  12.858   0.517  1.00 82.47     0.044 A 
HETATM    4  C4    D T9001      15.252  13.637  -0.646  1.00 82.50     0.088 A 
HETATM    5  C5    D T9001      14.029  13.649  -1.416  1.00 84.12     0.055 A 
HETATM    6  C6    D T9001      12.901  12.860  -0.962  1.00 83.53     0.021 A 
HETATM    7  N7    D T9001      16.358  14.348  -0.996  1.00 81.78    -0.224 NA
HETATM    8  C8    D T9001      16.281  15.100  -2.124  1.00 83.59     0.200 A 
HETATM    9  N9    D T9001      15.201  15.203  -2.936  1.00 84.30    -0.205 NA
HETATM   10  C10   D T9001      14.065  14.480  -2.592  1.00 85.59     0.166 A 
HETATM   11  N13   D T9001      11.849  11.318   0.639  1.00 82.67    -0.099 NA
ENDROOT
BRANCH  10  12
HETATM   12  N14   D T9001      12.899  14.565  -3.434  1.00 86.44    -0.227 NA
BRANCH  12  13
HETATM   13  C15   D T9001      12.430  15.719  -4.121  1.00 87.38     0.084 A 
HETATM   14  C16   D T9001      12.042  16.905  -3.416  1.00 88.13     0.033 A 
HETATM   15  C17   D T9001      11.570  18.045  -4.105  1.00 88.88     0.087 A 
HETATM   16  C18   D T9001      11.476  18.016  -5.521  1.00 88.55     0.151 A 
HETATM   17 CL     D T9001      11.111  19.448  -3.199  1.00 89.26    -0.080 Cl
HETATM   18  C19   D T9001      11.856  16.853  -6.252  1.00 87.62     0.032 A 
HETATM   19  F21   D T9001      11.026  19.090  -6.191  1.00 88.92    -0.203 F 
HETATM   20  C20   D T9001      12.330  15.707  -5.553  1.00 87.82     0.021 A 
ENDBRANCH  12  13
ENDBRANCH  10  12
BRANCH   2  21
HETATM   21  O11   D T9001      14.191  11.286   2.119  1.00 85.44    -0.327 OA
HETATM   22  C12   D T9001      15.130  10.208   2.198  1.00 84.41     0.181 C 
ENDBRANCH   2  21
TORSDOF 3
ENDMDL
