MODEL 1
REMARK VINA RESULT:    -7.632      0.000      0.000
REMARK INTER + INTRA:          -9.230
REMARK INTER:                  -8.970
REMARK INTRA:                  -0.260
REMARK UNBOUND:                -0.260
REMARK  3 active torsions:
REMARK  status: ('A' for Active; 'I' for Inactive)
REMARK    1  A    between atoms: C2_2  and  O11_20 
REMARK    2  A    between atoms: C10_10  and  N14_11 
REMARK    3  A    between atoms: N14_11  and  C15_12 
ROOT
HETATM    1  C1    D T9001      10.768   8.074  10.185  1.00 83.47     0.092 A 
HETATM    2  C2    D T9001      12.001   8.493   9.587  1.00 83.68     0.109 A 
HETATM    3  C3    D T9001      11.987   9.162   8.318  1.00 82.47     0.044 A 
HETATM    4  C4    D T9001      10.800   9.428   7.622  1.00 82.50     0.088 A 
HETATM    5  C5    D T9001       9.545   9.010   8.206  1.00 84.12     0.055 A 
HETATM    6  C6    D T9001       9.553   8.335   9.488  1.00 83.53     0.021 A 
HETATM    7  N7    D T9001      10.886  10.068   6.426  1.00 81.78    -0.224 NA
HETATM    8  C8    D T9001       9.724  10.320   5.772  1.00 83.59     0.200 A 
HETATM    9  N9    D T9001       8.483   9.986   6.201  1.00 84.30    -0.205 NA
HETATM   10  C10   D T9001       8.380   9.328   7.422  1.00 85.59     0.166 A 
HETATM   11  N13   D T9001      10.737   7.414  11.437  1.00 82.67    -0.099 NA
ENDROOT
BRANCH  10  12
HETATM   12  N14   D T9001       7.076   8.956   7.909  1.00 86.44    -0.227 NA
BRANCH  12  13
HETATM   13  C15   D T9001       6.023   8.368   7.153  1.00 87.38     0.084 A 
HETATM   14  C16   D T9001       5.375   9.080   6.091  1.00 88.13     0.033 A 
HETATM   15  C17   D T9001       4.324   8.492   5.350  1.00 88.88     0.087 A 
HETATM   16  C18   D T9001       3.902   7.173   5.665  1.00 88.55     0.151 A 
HETATM   17 CL     D T9001       3.575   9.401   4.081  1.00 89.26    -0.080 Cl
HETATM   18  C19   D T9001       4.528   6.439   6.713  1.00 87.62     0.032 A 
HETATM   19  F21   D T9001       2.903   6.600   4.972  1.00 88.92    -0.203 F 
HETATM   20  C20   D T9001       5.584   7.035   7.456  1.00 87.82     0.021 A 
ENDBRANCH  12  13
ENDBRANCH  10  12
BRANCH   2  21
HETATM   21  O11   D T9001      13.147   8.208  10.324  1.00 85.44    -0.327 OA
HETATM   22  C12   D T9001      14.019   7.179   9.842  1.00 84.41     0.181 C 
ENDBRANCH   2  21
TORSDOF 3
ENDMDL
MODEL 2
REMARK VINA RESULT:    -7.508      5.073      7.431
REMARK INTER + INTRA:          -9.085
REMARK INTER:                  -8.539
REMARK INTRA:                  -0.546
REMARK UNBOUND:                -0.260
REMARK  3 active torsions:
REMARK  status: ('A' for Active; 'I' for Inactive)
REMARK    1  A    between atoms: C2_2  and  O11_20 
REMARK    2  A    between atoms: C10_10  and  N14_11 
REMARK    3  A    between atoms: N14_11  and  C15_12 
ROOT
HETATM    1  C1    D T9001       5.025  13.104   2.280  1.00 83.47     0.092 A 
HETATM    2  C2    D T9001       5.791  13.146   1.068  1.00 83.68     0.109 A 
HETATM    3  C3    D T9001       7.052  12.466   0.996  1.00 82.47     0.044 A 
HETATM    4  C4    D T9001       7.581  11.749   2.078  1.00 82.50     0.088 A 
HETATM    5  C5    D T9001       6.827  11.696   3.311  1.00 84.12     0.055 A 
HETATM    6  C6    D T9001       5.552  12.381   3.388  1.00 83.53     0.021 A 
HETATM    7  N7    D T9001       8.783  11.136   1.916  1.00 81.78    -0.224 NA
HETATM    8  C8    D T9001       9.274  10.443   2.974  1.00 83.59     0.200 A 
HETATM    9  N9    D T9001       8.677  10.311   4.183  1.00 84.30    -0.205 NA
HETATM   10  C10   D T9001       7.447  10.936   4.364  1.00 85.59     0.166 A 
HETATM   11  N13   D T9001       3.776  13.759   2.391  1.00 82.67    -0.099 NA
ENDROOT
BRANCH  10  12
HETATM   12  N14   D T9001       6.783  10.818   5.637  1.00 86.44    -0.227 NA
BRANCH  12  13
HETATM   13  C15   D T9001       6.392   9.611   6.283  1.00 87.38     0.084 A 
HETATM   14  C16   D T9001       5.326   8.800   5.772  1.00 88.13     0.033 A 
HETATM   15  C17   D T9001       4.938   7.607   6.423  1.00 88.88     0.087 A 
HETATM   16  C18   D T9001       5.613   7.206   7.606  1.00 88.55     0.151 A 
HETATM   17 CL     D T9001       3.640   6.670   5.763  1.00 89.26    -0.080 Cl
HETATM   18  C19   D T9001       6.678   7.989   8.137  1.00 87.62     0.032 A 
HETATM   19  F21   D T9001       5.255   6.076   8.239  1.00 88.92    -0.203 F 
HETATM   20  C20   D T9001       7.065   9.189   7.479  1.00 87.82     0.021 A 
ENDBRANCH  12  13
ENDBRANCH  10  12
BRANCH   2  21
HETATM   21  O11   D T9001       5.215  13.868   0.026  1.00 85.44    -0.327 OA
HETATM   22  C12   D T9001       6.081  14.627  -0.826  1.00 84.41     0.181 C 
ENDBRANCH   2  21
TORSDOF 3
ENDMDL
MODEL 3
REMARK VINA RESULT:    -7.316      5.385      7.714
REMARK INTER + INTRA:          -8.859
REMARK INTER:                  -8.346
REMARK INTRA:                  -0.513
REMARK UNBOUND:                -0.260
REMARK  3 active torsions:
REMARK  status: ('A' for Active; 'I' for Inactive)
REMARK    1  A    between atoms: C2_2  and  O11_20 
REMARK    2  A    between atoms: C10_10  and  N14_11 
REMARK    3  A    between atoms: N14_11  and  C15_12 
ROOT
HETATM    1  C1    D T9001       6.580   9.602   6.051  1.00 83.47     0.092 A 
HETATM    2  C2    D T9001       5.500   8.690   6.290  1.00 83.68     0.109 A 
HETATM    3  C3    D T9001       4.317   8.757   5.481  1.00 82.47     0.044 A 
HETATM    4  C4    D T9001       4.166   9.693   4.448  1.00 82.50     0.088 A 
HETATM    5  C5    D T9001       5.242  10.624   4.193  1.00 84.12     0.055 A 
HETATM    6  C6    D T9001       6.439  10.560   5.007  1.00 83.53     0.021 A 
HETATM    7  N7    D T9001       3.009   9.680   3.734  1.00 81.78    -0.224 NA
HETATM    8  C8    D T9001       2.886  10.591   2.736  1.00 83.59     0.200 A 
HETATM    9  N9    D T9001       3.811  11.519   2.389  1.00 84.30    -0.205 NA
HETATM   10  C10   D T9001       4.999  11.545   3.113  1.00 85.59     0.166 A 
HETATM   11  N13   D T9001       7.765   9.567   6.824  1.00 82.67    -0.099 NA
ENDROOT
BRANCH  10  12
HETATM   12  N14   D T9001       6.004  12.519   2.773  1.00 86.44    -0.227 NA
BRANCH  12  13
HETATM   13  C15   D T9001       6.792  12.548   1.588  1.00 87.38     0.084 A 
HETATM   14  C16   D T9001       6.269  13.053   0.352  1.00 88.13     0.033 A 
HETATM   15  C17   D T9001       7.055  13.071  -0.822  1.00 88.88     0.087 A 
HETATM   16  C18   D T9001       8.386  12.579  -0.778  1.00 88.55     0.151 A 
HETATM   17 CL     D T9001       6.369  13.688  -2.288  1.00 89.26    -0.080 Cl
HETATM   18  C19   D T9001       8.936  12.073   0.434  1.00 87.62     0.032 A 
HETATM   19  F21   D T9001       9.147  12.586  -1.887  1.00 88.92    -0.203 F 
HETATM   20  C20   D T9001       8.141  12.056   1.614  1.00 87.82     0.021 A 
ENDBRANCH  12  13
ENDBRANCH  10  12
BRANCH   2  21
HETATM   21  O11   D T9001       5.707   7.781   7.323  1.00 85.44    -0.327 OA
HETATM   22  C12   D T9001       5.156   6.466   7.184  1.00 84.41     0.181 C 
ENDBRANCH   2  21
TORSDOF 3
ENDMDL
MODEL 4
REMARK VINA RESULT:    -7.253      4.703      7.738
REMARK INTER + INTRA:          -8.785
REMARK INTER:                  -8.359
REMARK INTRA:                  -0.426
REMARK UNBOUND:                -0.260
REMARK  3 active torsions:
REMARK  status: ('A' for Active; 'I' for Inactive)
REMARK    1  A    between atoms: C2_2  and  O11_20 
REMARK    2  A    between atoms: C10_10  and  N14_11 
REMARK    3  A    between atoms: N14_11  and  C15_12 
ROOT
HETATM    1  C1    D T9001       6.632  12.111   4.017  1.00 83.47     0.092 A 
HETATM    2  C2    D T9001       5.473  11.657   3.307  1.00 83.68     0.109 A 
HETATM    3  C3    D T9001       4.756  10.505   3.772  1.00 82.47     0.044 A 
HETATM    4  C4    D T9001       5.146   9.788   4.911  1.00 82.50     0.088 A 
HETATM    5  C5    D T9001       6.314  10.226   5.640  1.00 84.12     0.055 A 
HETATM    6  C6    D T9001       7.042  11.389   5.175  1.00 83.53     0.021 A 
HETATM    7  N7    D T9001       4.403   8.709   5.275  1.00 81.78    -0.224 NA
HETATM    8  C8    D T9001       4.796   8.032   6.385  1.00 83.59     0.200 A 
HETATM    9  N9    D T9001       5.866   8.331   7.159  1.00 84.30    -0.205 NA
HETATM   10  C10   D T9001       6.637   9.431   6.797  1.00 85.59     0.166 A 
HETATM   11  N13   D T9001       7.366  13.245   3.593  1.00 82.67    -0.099 NA
ENDROOT
BRANCH  10  12
HETATM   12  N14   D T9001       7.783   9.776   7.597  1.00 86.44    -0.227 NA
BRANCH  12  13
HETATM   13  C15   D T9001       9.124   9.347   7.391  1.00 87.38     0.084 A 
HETATM   14  C16   D T9001       9.749   8.397   8.265  1.00 88.13     0.033 A 
HETATM   15  C17   D T9001      11.084   7.981   8.059  1.00 88.88     0.087 A 
HETATM   16  C18   D T9001      11.820   8.515   6.968  1.00 88.55     0.151 A 
HETATM   17 CL     D T9001      11.789   6.835   9.149  1.00 89.26    -0.080 Cl
HETATM   18  C19   D T9001      11.227   9.458   6.081  1.00 87.62     0.032 A 
HETATM   19  F21   D T9001      13.092   8.132   6.759  1.00 88.92    -0.203 F 
HETATM   20  C20   D T9001       9.884   9.874   6.293  1.00 87.82     0.021 A 
ENDBRANCH  12  13
ENDBRANCH  10  12
BRANCH   2  21
HETATM   21  O11   D T9001       5.129  12.410   2.187  1.00 85.44    -0.327 OA
HETATM   22  C12   D T9001       3.937  13.201   2.246  1.00 84.41     0.181 C 
ENDBRANCH   2  21
TORSDOF 3
ENDMDL
MODEL 5
REMARK VINA RESULT:    -7.198      4.551      7.417
REMARK INTER + INTRA:          -8.721
REMARK INTER:                  -8.380
REMARK INTRA:                  -0.340
REMARK UNBOUND:                -0.260
REMARK  3 active torsions:
REMARK  status: ('A' for Active; 'I' for Inactive)
REMARK    1  A    between atoms: C2_2  and  O11_20 
REMARK    2  A    between atoms: C10_10  and  N14_11 
REMARK    3  A    between atoms: N14_11  and  C15_12 
ROOT
HETATM    1  C1    D T9001       4.554   8.150   6.062  1.00 83.47     0.092 A 
HETATM    2  C2    D T9001       4.359   9.061   4.973  1.00 83.68     0.109 A 
HETATM    3  C3    D T9001       5.328  10.088   4.719  1.00 82.47     0.044 A 
HETATM    4  C4    D T9001       6.478  10.245   5.504  1.00 82.50     0.088 A 
HETATM    5  C5    D T9001       6.693   9.339   6.610  1.00 84.12     0.055 A 
HETATM    6  C6    D T9001       5.717   8.300   6.870  1.00 83.53     0.021 A 
HETATM    7  N7    D T9001       7.341  11.247   5.186  1.00 81.78    -0.224 NA
HETATM    8  C8    D T9001       8.451  11.378   5.956  1.00 83.59     0.200 A 
HETATM    9  N9    D T9001       8.775  10.602   7.018  1.00 84.30    -0.205 NA
HETATM   10  C10   D T9001       7.901   9.575   7.357  1.00 85.59     0.166 A 
HETATM   11  N13   D T9001       3.623   7.121   6.345  1.00 82.67    -0.099 NA
ENDROOT
BRANCH  10  12
HETATM   12  N14   D T9001       8.214   8.731   8.482  1.00 86.44    -0.227 NA
BRANCH  12  13
HETATM   13  C15   D T9001       9.487   8.182   8.803  1.00 87.38     0.084 A 
HETATM   14  C16   D T9001       9.929   8.062  10.161  1.00 88.13     0.033 A 
HETATM   15  C17   D T9001      11.198   7.522  10.473  1.00 88.88     0.087 A 
HETATM   16  C18   D T9001      12.051   7.093   9.422  1.00 88.55     0.151 A 
HETATM   17 CL     D T9001      11.682   7.406  12.132  1.00 89.26    -0.080 Cl
HETATM   18  C19   D T9001      11.639   7.197   8.062  1.00 87.62     0.032 A 
HETATM   19  F21   D T9001      13.262   6.580   9.700  1.00 88.92    -0.203 F 
HETATM   20  C20   D T9001      10.362   7.741   7.754  1.00 87.82     0.021 A 
ENDBRANCH  12  13
ENDBRANCH  10  12
BRANCH   2  21
HETATM   21  O11   D T9001       3.203   8.855   4.225  1.00 85.44    -0.327 OA
HETATM   22  C12   D T9001       2.632   9.979   3.544  1.00 84.41     0.181 C 
ENDBRANCH   2  21
TORSDOF 3
ENDMDL
MODEL 6
REMARK VINA RESULT:    -7.183      4.877      7.328
REMARK INTER + INTRA:          -8.703
REMARK INTER:                  -8.153
REMARK INTRA:                  -0.550
REMARK UNBOUND:                -0.260
REMARK  3 active torsions:
REMARK  status: ('A' for Active; 'I' for Inactive)
REMARK    1  A    between atoms: C2_2  and  O11_20 
REMARK    2  A    between atoms: C10_10  and  N14_11 
REMARK    3  A    between atoms: N14_11  and  C15_12 
ROOT
HETATM    1  C1    D T9001       4.359   9.330   4.927  1.00 83.47     0.092 A 
HETATM    2  C2    D T9001       4.658   8.394   5.971  1.00 83.68     0.109 A 
HETATM    3  C3    D T9001       5.903   8.485   6.677  1.00 82.47     0.044 A 
HETATM    4  C4    D T9001       6.861   9.466   6.385  1.00 82.50     0.088 A 
HETATM    5  C5    D T9001       6.582  10.418   5.333  1.00 84.12     0.055 A 
HETATM    6  C6    D T9001       5.325  10.331   4.618  1.00 83.53     0.021 A 
HETATM    7  N7    D T9001       8.012   9.474   7.108  1.00 81.78    -0.224 NA
HETATM    8  C8    D T9001       8.924  10.435   6.813  1.00 83.59     0.200 A 
HETATM    9  N9    D T9001       8.793  11.386   5.857  1.00 84.30    -0.205 NA
HETATM   10  C10   D T9001       7.621  11.388   5.107  1.00 85.59     0.166 A 
HETATM   11  N13   D T9001       3.141   9.277   4.208  1.00 82.67    -0.099 NA
ENDROOT
BRANCH  10  12
HETATM   12  N14   D T9001       7.448  12.384   4.081  1.00 86.44    -0.227 NA
BRANCH  12  13
HETATM   13  C15   D T9001       7.831  12.272   2.715  1.00 87.38     0.084 A 
HETATM   14  C16   D T9001       9.148  12.626   2.274  1.00 88.13     0.033 A 
HETATM   15  C17   D T9001       9.517  12.519   0.913  1.00 88.88     0.087 A 
HETATM   16  C18   D T9001       8.567  12.054  -0.033  1.00 88.55     0.151 A 
HETATM   17 CL     D T9001      11.121  12.967   0.438  1.00 89.26    -0.080 Cl
HETATM   18  C19   D T9001       7.251  11.692   0.374  1.00 87.62     0.032 A 
HETATM   19  F21   D T9001       8.901  11.949  -1.331  1.00 88.92    -0.203 F 
HETATM   20  C20   D T9001       6.883  11.802   1.743  1.00 87.82     0.021 A 
ENDBRANCH  12  13
ENDBRANCH  10  12
BRANCH   2  21
HETATM   21  O11   D T9001       3.669   7.446   6.220  1.00 85.44    -0.327 OA
HETATM   22  C12   D T9001       4.073   6.085   6.412  1.00 84.41     0.181 C 
ENDBRANCH   2  21
TORSDOF 3
ENDMDL
MODEL 7
REMARK VINA RESULT:    -7.053      4.429      7.357
REMARK INTER + INTRA:          -8.550
REMARK INTER:                  -8.001
REMARK INTRA:                  -0.550
REMARK UNBOUND:                -0.260
REMARK  3 active torsions:
REMARK  status: ('A' for Active; 'I' for Inactive)
REMARK    1  A    between atoms: C2_2  and  O11_20 
REMARK    2  A    between atoms: C10_10  and  N14_11 
REMARK    3  A    between atoms: N14_11  and  C15_12 
ROOT
HETATM    1  C1    D T9001       6.665  10.826   5.470  1.00 83.47     0.092 A 
HETATM    2  C2    D T9001       5.532  10.255   4.802  1.00 83.68     0.109 A 
HETATM    3  C3    D T9001       4.978   9.016   5.268  1.00 82.47     0.044 A 
HETATM    4  C4    D T9001       5.506   8.324   6.366  1.00 82.50     0.088 A 
HETATM    5  C5    D T9001       6.650   8.880   7.053  1.00 84.12     0.055 A 
HETATM    6  C6    D T9001       7.213  10.132   6.587  1.00 83.53     0.021 A 
HETATM    7  N7    D T9001       4.913   7.157   6.735  1.00 81.78    -0.224 NA
HETATM    8  C8    D T9001       5.436   6.507   7.805  1.00 83.59     0.200 A 
HETATM    9  N9    D T9001       6.501   6.912   8.537  1.00 84.30    -0.205 NA
HETATM   10  C10   D T9001       7.120   8.103   8.170  1.00 85.59     0.166 A 
HETATM   11  N13   D T9001       7.239  12.047   5.045  1.00 82.67    -0.099 NA
ENDROOT
BRANCH  10  12
HETATM   12  N14   D T9001       8.256   8.563   8.926  1.00 86.44    -0.227 NA
BRANCH  12  13
HETATM   13  C15   D T9001       9.611   8.595   8.489  1.00 87.38     0.084 A 
HETATM   14  C16   D T9001      10.514   9.620   8.922  1.00 88.13     0.033 A 
HETATM   15  C17   D T9001      11.855   9.649   8.478  1.00 88.88     0.087 A 
HETATM   16  C18   D T9001      12.316   8.645   7.586  1.00 88.55     0.151 A 
HETATM   17 CL     D T9001      12.900  10.915   9.031  1.00 89.26    -0.080 Cl
HETATM   18  C19   D T9001      11.445   7.612   7.139  1.00 87.62     0.032 A 
HETATM   19  F21   D T9001      13.589   8.659   7.152  1.00 88.92    -0.203 F 
HETATM   20  C20   D T9001      10.095   7.587   7.588  1.00 87.82     0.021 A 
ENDBRANCH  12  13
ENDBRANCH  10  12
BRANCH   2  21
HETATM   21  O11   D T9001       5.048  10.987   3.721  1.00 85.44    -0.327 OA
HETATM   22  C12   D T9001       3.750  10.659   3.213  1.00 84.41     0.181 C 
ENDBRANCH   2  21
TORSDOF 3
ENDMDL
MODEL 8
REMARK VINA RESULT:    -7.023      5.326      7.857
REMARK INTER + INTRA:          -8.514
REMARK INTER:                  -8.752
REMARK INTRA:                   0.237
REMARK UNBOUND:                -0.260
REMARK  3 active torsions:
REMARK  status: ('A' for Active; 'I' for Inactive)
REMARK    1  A    between atoms: C2_2  and  O11_20 
REMARK    2  A    between atoms: C10_10  and  N14_11 
REMARK    3  A    between atoms: N14_11  and  C15_12 
ROOT
HETATM    1  C1    D T9001       7.663  13.525   1.814  1.00 83.47     0.092 A 
HETATM    2  C2    D T9001       6.669  13.856   0.837  1.00 83.68     0.109 A 
HETATM    3  C3    D T9001       5.367  13.258   0.912  1.00 82.47     0.044 A 
HETATM    4  C4    D T9001       5.017  12.345   1.915  1.00 82.50     0.088 A 
HETATM    5  C5    D T9001       6.006  11.994   2.909  1.00 84.12     0.055 A 
HETATM    6  C6    D T9001       7.322  12.596   2.839  1.00 83.53     0.021 A 
HETATM    7  N7    D T9001       3.759  11.830   1.905  1.00 81.78    -0.224 NA
HETATM    8  C8    D T9001       3.440  10.952   2.890  1.00 83.59     0.200 A 
HETATM    9  N9    D T9001       4.265  10.536   3.880  1.00 84.30    -0.205 NA
HETATM   10  C10   D T9001       5.557  11.052   3.902  1.00 85.59     0.166 A 
HETATM   11  N13   D T9001       8.958  14.095   1.778  1.00 82.67    -0.099 NA
ENDROOT
BRANCH  10  12
HETATM   12  N14   D T9001       6.461  10.631   4.940  1.00 86.44    -0.227 NA
BRANCH  12  13
HETATM   13  C15   D T9001       6.254   9.573   5.870  1.00 87.38     0.084 A 
HETATM   14  C16   D T9001       5.212   8.607   5.686  1.00 88.13     0.033 A 
HETATM   15  C17   D T9001       5.007   7.564   6.618  1.00 88.88     0.087 A 
HETATM   16  C18   D T9001       5.848   7.474   7.759  1.00 88.55     0.151 A 
HETATM   17 CL     D T9001       3.729   6.428   6.347  1.00 89.26    -0.080 Cl
HETATM   18  C19   D T9001       6.894   8.417   7.969  1.00 87.62     0.032 A 
HETATM   19  F21   D T9001       5.666   6.490   8.657  1.00 88.92    -0.203 F 
HETATM   20  C20   D T9001       7.096   9.465   7.028  1.00 87.82     0.021 A 
ENDBRANCH  12  13
ENDBRANCH  10  12
BRANCH   2  21
HETATM   21  O11   D T9001       7.069  14.771  -0.133  1.00 85.44    -0.327 OA
HETATM   22  C12   D T9001       7.133  14.327  -1.493  1.00 84.41     0.181 C 
ENDBRANCH   2  21
TORSDOF 3
ENDMDL
MODEL 9
REMARK VINA RESULT:    -6.978      3.854      5.969
REMARK INTER + INTRA:          -8.462
REMARK INTER:                  -7.874
REMARK INTRA:                  -0.588
REMARK UNBOUND:                -0.260
REMARK  3 active torsions:
REMARK  status: ('A' for Active; 'I' for Inactive)
REMARK    1  A    between atoms: C2_2  and  O11_20 
REMARK    2  A    between atoms: C10_10  and  N14_11 
REMARK    3  A    between atoms: N14_11  and  C15_12 
ROOT
HETATM    1  C1    D T9001       6.403  11.956   2.885  1.00 83.47     0.092 A 
HETATM    2  C2    D T9001       7.646  12.331   2.277  1.00 83.68     0.109 A 
HETATM    3  C3    D T9001       8.878  12.125   2.984  1.00 82.47     0.044 A 
HETATM    4  C4    D T9001       8.921  11.565   4.268  1.00 82.50     0.088 A 
HETATM    5  C5    D T9001       7.679  11.183   4.901  1.00 84.12     0.055 A 
HETATM    6  C6    D T9001       6.433  11.387   4.191  1.00 83.53     0.021 A 
HETATM    7  N7    D T9001      10.136  11.408   4.859  1.00 81.78    -0.224 NA
HETATM    8  C8    D T9001      10.155  10.859   6.100  1.00 83.59     0.200 A 
HETATM    9  N9    D T9001       9.072  10.457   6.807  1.00 84.30    -0.205 NA
HETATM   10  C10   D T9001       7.823  10.614   6.216  1.00 85.59     0.166 A 
HETATM   11  N13   D T9001       5.167  12.139   2.221  1.00 82.67    -0.099 NA
ENDROOT
BRANCH  10  12
HETATM   12  N14   D T9001       6.649  10.200   6.940  1.00 86.44    -0.227 NA
BRANCH  12  13
HETATM   13  C15   D T9001       6.072   8.898   6.950  1.00 87.38     0.084 A 
HETATM   14  C16   D T9001       5.031   8.534   6.035  1.00 88.13     0.033 A 
HETATM   15  C17   D T9001       4.457   7.242   6.055  1.00 88.88     0.087 A 
HETATM   16  C18   D T9001       4.919   6.289   7.000  1.00 88.55     0.151 A 
HETATM   17 CL     D T9001       3.198   6.860   4.929  1.00 89.26    -0.080 Cl
HETATM   18  C19   D T9001       5.954   6.619   7.921  1.00 87.62     0.032 A 
HETATM   19  F21   D T9001       4.382   5.057   7.035  1.00 88.92    -0.203 F 
HETATM   20  C20   D T9001       6.528   7.921   7.898  1.00 87.82     0.021 A 
ENDBRANCH  12  13
ENDBRANCH  10  12
BRANCH   2  21
HETATM   21  O11   D T9001       7.543  12.877   1.001  1.00 85.44    -0.327 OA
HETATM   22  C12   D T9001       8.146  12.168  -0.087  1.00 84.41     0.181 C 
ENDBRANCH   2  21
TORSDOF 3
ENDMDL
