MODEL 1
REMARK VINA RESULT:    -7.747      0.000      0.000
REMARK INTER + INTRA:          -9.672
REMARK INTER:                  -9.105
REMARK INTRA:                  -0.567
REMARK UNBOUND:                -0.567
REMARK  3 active torsions:
REMARK  status: ('A' for Active; 'I' for Inactive)
REMARK    1  A    between atoms: C2_2  and  O11_20 
REMARK    2  A    between atoms: C10_10  and  N14_11 
REMARK    3  A    between atoms: N14_11  and  C15_12 
ROOT
HETATM    1  C1    D T9001      -4.929   0.580 -13.088  1.00 83.47     0.092 A 
HETATM    2  C2    D T9001      -6.294   0.474 -12.664  1.00 83.68     0.109 A 
HETATM    3  C3    D T9001      -6.801  -0.785 -12.199  1.00 82.47     0.044 A 
HETATM    4  C4    D T9001      -6.006  -1.938 -12.137  1.00 82.50     0.088 A 
HETATM    5  C5    D T9001      -4.628  -1.853 -12.562  1.00 84.12     0.055 A 
HETATM    6  C6    D T9001      -4.111  -0.584 -13.034  1.00 83.53     0.021 A 
HETATM    7  N7    D T9001      -6.575  -3.086 -11.680  1.00 81.78    -0.224 NA
HETATM    8  C8    D T9001      -5.786  -4.189 -11.624  1.00 83.59     0.200 A 
HETATM    9  N9    D T9001      -4.483  -4.251 -11.990  1.00 84.30    -0.205 NA
HETATM   10  C10   D T9001      -3.890  -3.085 -12.462  1.00 85.59     0.166 A 
HETATM   11  N13   D T9001      -4.390   1.803 -13.552  1.00 82.67    -0.099 NA
ENDROOT
BRANCH  10  12
HETATM   12  N14   D T9001      -2.506  -3.116 -12.861  1.00 86.44    -0.227 NA
BRANCH  12  13
HETATM   13  C15   D T9001      -1.386  -3.373 -12.021  1.00 87.38     0.084 A 
HETATM   14  C16   D T9001      -0.893  -2.385 -11.107  1.00 88.13     0.033 A 
HETATM   15  C17   D T9001       0.225  -2.645 -10.280  1.00 88.88     0.087 A 
HETATM   16  C18   D T9001       0.873  -3.906 -10.360  1.00 88.55     0.151 A 
HETATM   17 CL     D T9001       0.778  -1.412  -9.198  1.00 89.26    -0.080 Cl
HETATM   18  C19   D T9001       0.407  -4.909 -11.257  1.00 87.62     0.032 A 
HETATM   19  F21   D T9001       1.939  -4.168  -9.584  1.00 88.92    -0.203 F 
HETATM   20  C20   D T9001      -0.718  -4.642 -12.087  1.00 87.82     0.021 A 
ENDBRANCH  12  13
ENDBRANCH  10  12
BRANCH   2  21
HETATM   21  O11   D T9001      -7.035   1.651 -12.742  1.00 85.44    -0.327 OA
HETATM   22  C12   D T9001      -7.470   2.255 -11.520  1.00 84.41     0.181 C 
ENDBRANCH   2  21
TORSDOF 3
ENDMDL
MODEL 2
REMARK VINA RESULT:    -7.197      3.744      4.840
REMARK INTER + INTRA:          -9.026
REMARK INTER:                  -8.434
REMARK INTRA:                  -0.592
REMARK UNBOUND:                -0.567
REMARK  3 active torsions:
REMARK  status: ('A' for Active; 'I' for Inactive)
REMARK    1  A    between atoms: C2_2  and  O11_20 
REMARK    2  A    between atoms: C10_10  and  N14_11 
REMARK    3  A    between atoms: N14_11  and  C15_12 
ROOT
HETATM    1  C1    D T9001      -0.346   2.570 -10.748  1.00 83.47     0.092 A 
HETATM    2  C2    D T9001      -0.586   3.629 -11.685  1.00 83.68     0.109 A 
HETATM    3  C3    D T9001      -1.620   3.490 -12.670  1.00 82.47     0.044 A 
HETATM    4  C4    D T9001      -2.423   2.344 -12.759  1.00 82.50     0.088 A 
HETATM    5  C5    D T9001      -2.196   1.265 -11.826  1.00 84.12     0.055 A 
HETATM    6  C6    D T9001      -1.153   1.399 -10.830  1.00 83.53     0.021 A 
HETATM    7  N7    D T9001      -3.380   2.305 -13.725  1.00 81.78    -0.224 NA
HETATM    8  C8    D T9001      -4.148   1.188 -13.790  1.00 83.59     0.200 A 
HETATM    9  N9    D T9001      -4.045   0.105 -12.983  1.00 84.30    -0.205 NA
HETATM   10  C10   D T9001      -3.068   0.131 -11.993  1.00 85.59     0.166 A 
HETATM   11  N13   D T9001       0.662   2.669  -9.761  1.00 82.67    -0.099 NA
ENDROOT
BRANCH  10  12
HETATM   12  N14   D T9001      -2.929  -1.004 -11.117  1.00 86.44    -0.227 NA
BRANCH  12  13
HETATM   13  C15   D T9001      -2.180  -2.187 -11.372  1.00 87.38     0.084 A 
HETATM   14  C16   D T9001      -0.926  -2.433 -10.724  1.00 88.13     0.033 A 
HETATM   15  C17   D T9001      -0.183  -3.608 -10.987  1.00 88.88     0.087 A 
HETATM   16  C18   D T9001      -0.687  -4.559 -11.913  1.00 88.55     0.151 A 
HETATM   17 CL     D T9001       1.328  -3.849 -10.178  1.00 89.26    -0.080 Cl
HETATM   18  C19   D T9001      -1.931  -4.344 -12.572  1.00 87.62     0.032 A 
HETATM   19  F21   D T9001       0.008  -5.678 -12.177  1.00 88.92    -0.203 F 
HETATM   20  C20   D T9001      -2.674  -3.160 -12.305  1.00 87.82     0.021 A 
ENDBRANCH  12  13
ENDBRANCH  10  12
BRANCH   2  21
HETATM   21  O11   D T9001       0.237   4.744 -11.547  1.00 85.44    -0.327 OA
HETATM   22  C12   D T9001      -0.374   5.995 -11.214  1.00 84.41     0.181 C 
ENDBRANCH   2  21
TORSDOF 3
ENDMDL
MODEL 3
REMARK VINA RESULT:    -7.184      2.112      2.679
REMARK INTER + INTRA:          -9.011
REMARK INTER:                  -8.437
REMARK INTRA:                  -0.575
REMARK UNBOUND:                -0.567
REMARK  3 active torsions:
REMARK  status: ('A' for Active; 'I' for Inactive)
REMARK    1  A    between atoms: C2_2  and  O11_20 
REMARK    2  A    between atoms: C10_10  and  N14_11 
REMARK    3  A    between atoms: N14_11  and  C15_12 
ROOT
HETATM    1  C1    D T9001      -5.380  -1.318 -11.711  1.00 83.47     0.092 A 
HETATM    2  C2    D T9001      -6.354  -2.371 -11.694  1.00 83.68     0.109 A 
HETATM    3  C3    D T9001      -5.937  -3.731 -11.881  1.00 82.47     0.044 A 
HETATM    4  C4    D T9001      -4.596  -4.084 -12.083  1.00 82.50     0.088 A 
HETATM    5  C5    D T9001      -3.599  -3.038 -12.107  1.00 84.12     0.055 A 
HETATM    6  C6    D T9001      -4.014  -1.663 -11.919  1.00 83.53     0.021 A 
HETATM    7  N7    D T9001      -4.296  -5.401 -12.250  1.00 81.78    -0.224 NA
HETATM    8  C8    D T9001      -2.991  -5.720 -12.440  1.00 83.59     0.200 A 
HETATM    9  N9    D T9001      -1.958  -4.845 -12.484  1.00 84.30    -0.205 NA
HETATM   10  C10   D T9001      -2.250  -3.495 -12.318  1.00 85.59     0.166 A 
HETATM   11  N13   D T9001      -5.750   0.035 -11.528  1.00 82.67    -0.099 NA
ENDROOT
BRANCH  10  12
HETATM   12  N14   D T9001      -1.176  -2.536 -12.361  1.00 86.44    -0.227 NA
BRANCH  12  13
HETATM   13  C15   D T9001      -0.239  -2.264 -11.326  1.00 87.38     0.084 A 
HETATM   14  C16   D T9001      -0.429  -1.177 -10.410  1.00 88.13     0.033 A 
HETATM   15  C17   D T9001       0.509  -0.908  -9.387  1.00 88.88     0.087 A 
HETATM   16  C18   D T9001       1.663  -1.726  -9.267  1.00 88.55     0.151 A 
HETATM   17 CL     D T9001       0.229   0.420  -8.313  1.00 89.26    -0.080 Cl
HETATM   18  C19   D T9001       1.880  -2.814 -10.160  1.00 87.62     0.032 A 
HETATM   19  F21   D T9001       2.567  -1.482  -8.303  1.00 88.92    -0.203 F 
HETATM   20  C20   D T9001       0.933  -3.081 -11.188  1.00 87.82     0.021 A 
ENDBRANCH  12  13
ENDBRANCH  10  12
BRANCH   2  21
HETATM   21  O11   D T9001      -7.669  -1.963 -11.485  1.00 85.44    -0.327 OA
HETATM   22  C12   D T9001      -8.582  -2.042 -12.585  1.00 84.41     0.181 C 
ENDBRANCH   2  21
TORSDOF 3
ENDMDL
MODEL 4
REMARK VINA RESULT:    -7.057      4.162      5.108
REMARK INTER + INTRA:          -8.862
REMARK INTER:                  -8.313
REMARK INTRA:                  -0.549
REMARK UNBOUND:                -0.567
REMARK  3 active torsions:
REMARK  status: ('A' for Active; 'I' for Inactive)
REMARK    1  A    between atoms: C2_2  and  O11_20 
REMARK    2  A    between atoms: C10_10  and  N14_11 
REMARK    3  A    between atoms: N14_11  and  C15_12 
ROOT
HETATM    1  C1    D T9001      -1.089   2.615 -12.143  1.00 83.47     0.092 A 
HETATM    2  C2    D T9001      -1.408   3.401 -10.987  1.00 83.68     0.109 A 
HETATM    3  C3    D T9001      -1.365   2.801  -9.683  1.00 82.47     0.044 A 
HETATM    4  C4    D T9001      -1.019   1.458  -9.486  1.00 82.50     0.088 A 
HETATM    5  C5    D T9001      -0.696   0.648 -10.638  1.00 84.12     0.055 A 
HETATM    6  C6    D T9001      -0.738   1.248 -11.957  1.00 83.53     0.021 A 
HETATM    7  N7    D T9001      -1.005   0.979  -8.213  1.00 81.78    -0.224 NA
HETATM    8  C8    D T9001      -0.663  -0.324  -8.044  1.00 83.59     0.200 A 
HETATM    9  N9    D T9001      -0.339  -1.193  -9.032  1.00 84.30    -0.205 NA
HETATM   10  C10   D T9001      -0.352  -0.717 -10.339  1.00 85.59     0.166 A 
HETATM   11  N13   D T9001      -1.116   3.169 -13.445  1.00 82.67    -0.099 NA
ENDROOT
BRANCH  10  12
HETATM   12  N14   D T9001      -0.014  -1.615 -11.414  1.00 86.44    -0.227 NA
BRANCH  12  13
HETATM   13  C15   D T9001      -0.671  -2.834 -11.740  1.00 87.38     0.084 A 
HETATM   14  C16   D T9001      -2.052  -2.862 -12.123  1.00 88.13     0.033 A 
HETATM   15  C17   D T9001      -2.701  -4.078 -12.441  1.00 88.88     0.087 A 
HETATM   16  C18   D T9001      -1.972  -5.294 -12.374  1.00 88.55     0.151 A 
HETATM   17 CL     D T9001      -4.371  -4.050 -12.893  1.00 89.26    -0.080 Cl
HETATM   18  C19   D T9001      -0.598  -5.301 -11.998  1.00 87.62     0.032 A 
HETATM   19  F21   D T9001      -2.574  -6.459 -12.668  1.00 88.92    -0.203 F 
HETATM   20  C20   D T9001       0.050  -4.074 -11.679  1.00 87.82     0.021 A 
ENDBRANCH  12  13
ENDBRANCH  10  12
BRANCH   2  21
HETATM   21  O11   D T9001      -1.739   4.729 -11.241  1.00 85.44    -0.327 OA
HETATM   22  C12   D T9001      -2.735   5.345 -10.417  1.00 84.41     0.181 C 
ENDBRANCH   2  21
TORSDOF 3
ENDMDL
MODEL 5
REMARK VINA RESULT:    -7.045      4.628      6.824
REMARK INTER + INTRA:          -8.847
REMARK INTER:                  -8.273
REMARK INTRA:                  -0.574
REMARK UNBOUND:                -0.567
REMARK  3 active torsions:
REMARK  status: ('A' for Active; 'I' for Inactive)
REMARK    1  A    between atoms: C2_2  and  O11_20 
REMARK    2  A    between atoms: C10_10  and  N14_11 
REMARK    3  A    between atoms: N14_11  and  C15_12 
ROOT
HETATM    1  C1    D T9001      -2.343  -2.801 -11.856  1.00 83.47     0.092 A 
HETATM    2  C2    D T9001      -1.627  -4.007 -12.155  1.00 83.68     0.109 A 
HETATM    3  C3    D T9001      -0.332  -4.230 -11.578  1.00 82.47     0.044 A 
HETATM    4  C4    D T9001       0.275  -3.305 -10.717  1.00 82.50     0.088 A 
HETATM    5  C5    D T9001      -0.429  -2.083 -10.404  1.00 84.12     0.055 A 
HETATM    6  C6    D T9001      -1.736  -1.852 -10.985  1.00 83.53     0.021 A 
HETATM    7  N7    D T9001       1.504  -3.605 -10.217  1.00 81.78    -0.224 NA
HETATM    8  C8    D T9001       2.072  -2.697  -9.382  1.00 83.59     0.200 A 
HETATM    9  N9    D T9001       1.527  -1.516  -9.006  1.00 84.30    -0.205 NA
HETATM   10  C10   D T9001       0.272  -1.195  -9.512  1.00 85.59     0.166 A 
HETATM   11  N13   D T9001      -3.622  -2.544 -12.403  1.00 82.67    -0.099 NA
ENDROOT
BRANCH  10  12
HETATM   12  N14   D T9001      -0.337   0.054  -9.135  1.00 86.44    -0.227 NA
BRANCH  12  13
HETATM   13  C15   D T9001      -0.091   1.329  -9.717  1.00 87.38     0.084 A 
HETATM   14  C16   D T9001      -0.570   1.659 -11.027  1.00 88.13     0.033 A 
HETATM   15  C17   D T9001      -0.317   2.926 -11.603  1.00 88.88     0.087 A 
HETATM   16  C18   D T9001       0.429   3.887 -10.871  1.00 88.55     0.151 A 
HETATM   17 CL     D T9001      -0.916   3.266 -13.191  1.00 89.26    -0.080 Cl
HETATM   18  C19   D T9001       0.917   3.591  -9.566  1.00 87.62     0.032 A 
HETATM   19  F21   D T9001       0.682   5.095 -11.404  1.00 88.92    -0.203 F 
HETATM   20  C20   D T9001       0.659   2.315  -8.992  1.00 87.82     0.021 A 
ENDBRANCH  12  13
ENDBRANCH  10  12
BRANCH   2  21
HETATM   21  O11   D T9001      -2.279  -4.890 -13.011  1.00 85.44    -0.327 OA
HETATM   22  C12   D T9001      -2.869  -6.065 -12.444  1.00 84.41     0.181 C 
ENDBRANCH   2  21
TORSDOF 3
ENDMDL
MODEL 6
REMARK VINA RESULT:    -7.010      4.306      6.009
REMARK INTER + INTRA:          -8.807
REMARK INTER:                  -8.244
REMARK INTRA:                  -0.563
REMARK UNBOUND:                -0.567
REMARK  3 active torsions:
REMARK  status: ('A' for Active; 'I' for Inactive)
REMARK    1  A    between atoms: C2_2  and  O11_20 
REMARK    2  A    between atoms: C10_10  and  N14_11 
REMARK    3  A    between atoms: N14_11  and  C15_12 
ROOT
HETATM    1  C1    D T9001      -3.885  -2.246 -12.319  1.00 83.47     0.092 A 
HETATM    2  C2    D T9001      -3.476  -3.547 -12.760  1.00 83.68     0.109 A 
HETATM    3  C3    D T9001      -2.138  -4.000 -12.502  1.00 82.47     0.044 A 
HETATM    4  C4    D T9001      -1.197  -3.214 -11.824  1.00 82.50     0.088 A 
HETATM    5  C5    D T9001      -1.589  -1.899 -11.372  1.00 84.12     0.055 A 
HETATM    6  C6    D T9001      -2.938  -1.435 -11.631  1.00 83.53     0.021 A 
HETATM    7  N7    D T9001       0.045  -3.729 -11.624  1.00 81.78    -0.224 NA
HETATM    8  C8    D T9001       0.940  -2.952 -10.961  1.00 83.59     0.200 A 
HETATM    9  N9    D T9001       0.707  -1.706 -10.485  1.00 84.30    -0.205 NA
HETATM   10  C10   D T9001      -0.558  -1.165 -10.685  1.00 85.59     0.166 A 
HETATM   11  N13   D T9001      -5.194  -1.763 -12.551  1.00 82.67    -0.099 NA
ENDROOT
BRANCH  10  12
HETATM   12  N14   D T9001      -0.840   0.159 -10.193  1.00 86.44    -0.227 NA
BRANCH  12  13
HETATM   13  C15   D T9001      -0.479   1.389 -10.811  1.00 87.38     0.084 A 
HETATM   14  C16   D T9001       0.129   2.452 -10.066  1.00 88.13     0.033 A 
HETATM   15  C17   D T9001       0.480   3.675 -10.684  1.00 88.88     0.087 A 
HETATM   16  C18   D T9001       0.221   3.854 -12.069  1.00 88.55     0.151 A 
HETATM   17 CL     D T9001       1.208   4.923  -9.733  1.00 89.26    -0.080 Cl
HETATM   18  C19   D T9001      -0.382   2.817 -12.837  1.00 87.62     0.032 A 
HETATM   19  F21   D T9001       0.543   5.011 -12.672  1.00 88.92    -0.203 F 
HETATM   20  C20   D T9001      -0.733   1.589 -12.209  1.00 87.82     0.021 A 
ENDBRANCH  12  13
ENDBRANCH  10  12
BRANCH   2  21
HETATM   21  O11   D T9001      -4.452  -4.286 -13.424  1.00 85.44    -0.327 OA
HETATM   22  C12   D T9001      -4.057  -5.048 -14.570  1.00 84.41     0.181 C 
ENDBRANCH   2  21
TORSDOF 3
ENDMDL
MODEL 7
REMARK VINA RESULT:    -6.808      3.339      4.263
REMARK INTER + INTRA:          -8.569
REMARK INTER:                  -7.991
REMARK INTRA:                  -0.578
REMARK UNBOUND:                -0.567
REMARK  3 active torsions:
REMARK  status: ('A' for Active; 'I' for Inactive)
REMARK    1  A    between atoms: C2_2  and  O11_20 
REMARK    2  A    between atoms: C10_10  and  N14_11 
REMARK    3  A    between atoms: N14_11  and  C15_12 
ROOT
HETATM    1  C1    D T9001      -4.479   1.110 -11.488  1.00 83.47     0.092 A 
HETATM    2  C2    D T9001      -4.826   1.900 -10.343  1.00 83.68     0.109 A 
HETATM    3  C3    D T9001      -3.864   2.103  -9.298  1.00 82.47     0.044 A 
HETATM    4  C4    D T9001      -2.575   1.554  -9.347  1.00 82.50     0.088 A 
HETATM    5  C5    D T9001      -2.207   0.752 -10.491  1.00 84.12     0.055 A 
HETATM    6  C6    D T9001      -3.174   0.543 -11.549  1.00 83.53     0.021 A 
HETATM    7  N7    D T9001      -1.732   1.803  -8.310  1.00 81.78    -0.224 NA
HETATM    8  C8    D T9001      -0.487   1.265  -8.380  1.00 83.59     0.200 A 
HETATM    9  N9    D T9001      -0.011   0.496  -9.389  1.00 84.30    -0.205 NA
HETATM   10  C10   D T9001      -0.865   0.231 -10.455  1.00 85.59     0.166 A 
HETATM   11  N13   D T9001      -5.398   0.888 -12.540  1.00 82.67    -0.099 NA
ENDROOT
BRANCH  10  12
HETATM   12  N14   D T9001      -0.392  -0.584 -11.544  1.00 86.44    -0.227 NA
BRANCH  12  13
HETATM   13  C15   D T9001      -0.392  -2.005 -11.604  1.00 87.38     0.084 A 
HETATM   14  C16   D T9001      -1.495  -2.732 -12.161  1.00 88.13     0.033 A 
HETATM   15  C17   D T9001      -1.492  -4.145 -12.212  1.00 88.88     0.087 A 
HETATM   16  C18   D T9001      -0.377  -4.858 -11.697  1.00 88.55     0.151 A 
HETATM   17 CL     D T9001      -2.853  -4.968 -12.892  1.00 89.26    -0.080 Cl
HETATM   18  C19   D T9001       0.735  -4.166 -11.137  1.00 87.62     0.032 A 
HETATM   19  F21   D T9001      -0.359  -6.201 -11.733  1.00 88.92    -0.203 F 
HETATM   20  C20   D T9001       0.727  -2.743 -11.089  1.00 87.82     0.021 A 
ENDBRANCH  12  13
ENDBRANCH  10  12
BRANCH   2  21
HETATM   21  O11   D T9001      -6.116   2.424 -10.350  1.00 85.44    -0.327 OA
HETATM   22  C12   D T9001      -6.649   2.919  -9.117  1.00 84.41     0.181 C 
ENDBRANCH   2  21
TORSDOF 3
ENDMDL
MODEL 8
REMARK VINA RESULT:    -6.778      4.264      7.125
REMARK INTER + INTRA:          -8.534
REMARK INTER:                  -8.164
REMARK INTRA:                  -0.369
REMARK UNBOUND:                -0.567
REMARK  3 active torsions:
REMARK  status: ('A' for Active; 'I' for Inactive)
REMARK    1  A    between atoms: C2_2  and  O11_20 
REMARK    2  A    between atoms: C10_10  and  N14_11 
REMARK    3  A    between atoms: N14_11  and  C15_12 
ROOT
HETATM    1  C1    D T9001       0.369  -2.928 -10.783  1.00 83.47     0.092 A 
HETATM    2  C2    D T9001       1.193  -2.538  -9.677  1.00 83.68     0.109 A 
HETATM    3  C3    D T9001       0.922  -1.311  -8.983  1.00 82.47     0.044 A 
HETATM    4  C4    D T9001      -0.132  -0.461  -9.345  1.00 82.50     0.088 A 
HETATM    5  C5    D T9001      -0.973  -0.835 -10.459  1.00 84.12     0.055 A 
HETATM    6  C6    D T9001      -0.704  -2.073 -11.163  1.00 83.53     0.021 A 
HETATM    7  N7    D T9001      -0.312   0.680  -8.627  1.00 81.78    -0.224 NA
HETATM    8  C8    D T9001      -1.341   1.486  -8.992  1.00 83.59     0.200 A 
HETATM    9  N9    D T9001      -2.203   1.259 -10.012  1.00 84.30    -0.205 NA
HETATM   10  C10   D T9001      -2.029   0.097 -10.756  1.00 85.59     0.166 A 
HETATM   11  N13   D T9001       0.601  -4.131 -11.491  1.00 82.67    -0.099 NA
ENDROOT
BRANCH  10  12
HETATM   12  N14   D T9001      -2.927  -0.175 -11.849  1.00 86.44    -0.227 NA
BRANCH  12  13
HETATM   13  C15   D T9001      -3.860  -1.246 -11.935  1.00 87.38     0.084 A 
HETATM   14  C16   D T9001      -3.690  -2.315 -12.875  1.00 88.13     0.033 A 
HETATM   15  C17   D T9001      -4.625  -3.373 -12.959  1.00 88.88     0.087 A 
HETATM   16  C18   D T9001      -5.754  -3.375 -12.099  1.00 88.55     0.151 A 
HETATM   17 CL     D T9001      -4.369  -4.634 -14.117  1.00 89.26    -0.080 Cl
HETATM   18  C19   D T9001      -5.951  -2.329 -11.153  1.00 87.62     0.032 A 
HETATM   19  F21   D T9001      -6.654  -4.371 -12.169  1.00 88.92    -0.203 F 
HETATM   20  C20   D T9001      -5.008  -1.266 -11.073  1.00 87.82     0.021 A 
ENDBRANCH  12  13
ENDBRANCH  10  12
BRANCH   2  21
HETATM   21  O11   D T9001       2.221  -3.422  -9.358  1.00 85.44    -0.327 OA
HETATM   22  C12   D T9001       3.334  -2.919  -8.612  1.00 84.41     0.181 C 
ENDBRANCH   2  21
TORSDOF 3
ENDMDL
MODEL 9
REMARK VINA RESULT:    -6.625      4.225      5.996
REMARK INTER + INTRA:          -8.354
REMARK INTER:                  -7.761
REMARK INTRA:                  -0.593
REMARK UNBOUND:                -0.567
REMARK  3 active torsions:
REMARK  status: ('A' for Active; 'I' for Inactive)
REMARK    1  A    between atoms: C2_2  and  O11_20 
REMARK    2  A    between atoms: C10_10  and  N14_11 
REMARK    3  A    between atoms: N14_11  and  C15_12 
ROOT
HETATM    1  C1    D T9001      -1.632  -2.479 -11.563  1.00 83.47     0.092 A 
HETATM    2  C2    D T9001      -2.497  -3.351 -12.302  1.00 83.68     0.109 A 
HETATM    3  C3    D T9001      -3.689  -2.829 -12.907  1.00 82.47     0.044 A 
HETATM    4  C4    D T9001      -4.052  -1.479 -12.806  1.00 82.50     0.088 A 
HETATM    5  C5    D T9001      -3.195  -0.584 -12.064  1.00 84.12     0.055 A 
HETATM    6  C6    D T9001      -1.990  -1.106 -11.450  1.00 83.53     0.021 A 
HETATM    7  N7    D T9001      -5.200  -1.076 -13.415  1.00 81.78    -0.224 NA
HETATM    8  C8    D T9001      -5.530   0.237 -13.308  1.00 83.59     0.200 A 
HETATM    9  N9    D T9001      -4.821   1.182 -12.644  1.00 84.30    -0.205 NA
HETATM   10  C10   D T9001      -3.647   0.783 -12.015  1.00 85.59     0.166 A 
HETATM   11  N13   D T9001      -0.446  -2.954 -10.954  1.00 82.67    -0.099 NA
ENDROOT
BRANCH  10  12
HETATM   12  N14   D T9001      -2.869   1.761 -11.299  1.00 86.44    -0.227 NA
BRANCH  12  13
HETATM   13  C15   D T9001      -1.701   2.425 -11.767  1.00 87.38     0.084 A 
HETATM   14  C16   D T9001      -0.682   2.874 -10.864  1.00 88.13     0.033 A 
HETATM   15  C17   D T9001       0.474   3.539 -11.335  1.00 88.88     0.087 A 
HETATM   16  C18   D T9001       0.626   3.769 -12.728  1.00 88.55     0.151 A 
HETATM   17 CL     D T9001       1.669   4.062 -10.197  1.00 89.26    -0.080 Cl
HETATM   18  C19   D T9001      -0.367   3.335 -13.651  1.00 87.62     0.032 A 
HETATM   19  F21   D T9001       1.717   4.404 -13.192  1.00 88.92    -0.203 F 
HETATM   20  C20   D T9001      -1.529   2.666 -13.172  1.00 87.82     0.021 A 
ENDBRANCH  12  13
ENDBRANCH  10  12
BRANCH   2  21
HETATM   21  O11   D T9001      -2.085  -4.679 -12.374  1.00 85.44    -0.327 OA
HETATM   22  C12   D T9001      -3.092  -5.696 -12.422  1.00 84.41     0.181 C 
ENDBRANCH   2  21
TORSDOF 3
ENDMDL
