MODEL 1
REMARK VINA RESULT:    -7.718      0.000      0.000
REMARK INTER + INTRA:          -9.609
REMARK INTER:                  -9.072
REMARK INTRA:                  -0.538
REMARK UNBOUND:                -0.538
REMARK  3 active torsions:
REMARK  status: ('A' for Active; 'I' for Inactive)
REMARK    1  A    between atoms: C2_2  and  O11_20 
REMARK    2  A    between atoms: C10_10  and  N14_11 
REMARK    3  A    between atoms: N14_11  and  C15_12 
ROOT
HETATM    1  C1    D T9001       2.258  11.996   1.015  1.00 83.47     0.092 A 
HETATM    2  C2    D T9001       1.071  11.235   0.757  1.00 83.68     0.109 A 
HETATM    3  C3    D T9001       0.955   9.898   1.267  1.00 82.47     0.044 A 
HETATM    4  C4    D T9001       1.970   9.293   2.020  1.00 82.50     0.088 A 
HETATM    5  C5    D T9001       3.177  10.041   2.288  1.00 84.12     0.055 A 
HETATM    6  C6    D T9001       3.298  11.391   1.776  1.00 83.53     0.021 A 
HETATM    7  N7    D T9001       1.769   8.022   2.463  1.00 81.78    -0.224 NA
HETATM    8  C8    D T9001       2.764   7.455   3.193  1.00 83.59     0.200 A 
HETATM    9  N9    D T9001       3.941   8.041   3.518  1.00 84.30    -0.205 NA
HETATM   10  C10   D T9001       4.161   9.339   3.071  1.00 85.59     0.166 A 
HETATM   11  N13   D T9001       2.410  13.317   0.533  1.00 82.67    -0.099 NA
ENDROOT
BRANCH  10  12
HETATM   12  N14   D T9001       5.403   9.991   3.395  1.00 86.44    -0.227 NA
BRANCH  12  13
HETATM   13  C15   D T9001       6.705   9.594   2.979  1.00 87.38     0.084 A 
HETATM   14  C16   D T9001       7.596   8.902   3.862  1.00 88.13     0.033 A 
HETATM   15  C17   D T9001       8.891   8.516   3.444  1.00 88.88     0.087 A 
HETATM   16  C18   D T9001       9.316   8.823   2.123  1.00 88.55     0.151 A 
HETATM   17 CL     D T9001       9.925   7.686   4.556  1.00 89.26    -0.080 Cl
HETATM   18  C19   D T9001       8.454   9.507   1.221  1.00 87.62     0.032 A 
HETATM   19  F21   D T9001      10.545   8.466   1.711  1.00 88.92    -0.203 F 
HETATM   20  C20   D T9001       7.153   9.894   1.648  1.00 87.82     0.021 A 
ENDBRANCH  12  13
ENDBRANCH  10  12
BRANCH   2  21
HETATM   21  O11   D T9001       0.094  11.887   0.010  1.00 85.44    -0.327 OA
HETATM   22  C12   D T9001      -1.273  11.731   0.404  1.00 84.41     0.181 C 
ENDBRANCH   2  21
TORSDOF 3
ENDMDL
MODEL 2
REMARK VINA RESULT:    -7.363      1.624      3.273
REMARK INTER + INTRA:          -9.192
REMARK INTER:                  -8.687
REMARK INTRA:                  -0.505
REMARK UNBOUND:                -0.538
REMARK  3 active torsions:
REMARK  status: ('A' for Active; 'I' for Inactive)
REMARK    1  A    between atoms: C2_2  and  O11_20 
REMARK    2  A    between atoms: C10_10  and  N14_11 
REMARK    3  A    between atoms: N14_11  and  C15_12 
ROOT
HETATM    1  C1    D T9001       2.368   9.959   1.870  1.00 83.47     0.092 A 
HETATM    2  C2    D T9001       1.479  10.500   0.884  1.00 83.68     0.109 A 
HETATM    3  C3    D T9001       1.858  11.672   0.147  1.00 82.47     0.044 A 
HETATM    4  C4    D T9001       3.081  12.324   0.354  1.00 82.50     0.088 A 
HETATM    5  C5    D T9001       3.991  11.798   1.346  1.00 84.12     0.055 A 
HETATM    6  C6    D T9001       3.612  10.614   2.092  1.00 83.53     0.021 A 
HETATM    7  N7    D T9001       3.354  13.428  -0.394  1.00 81.78    -0.224 NA
HETATM    8  C8    D T9001       4.546  14.042  -0.180  1.00 83.59     0.200 A 
HETATM    9  N9    D T9001       5.488  13.656   0.714  1.00 84.30    -0.205 NA
HETATM   10  C10   D T9001       5.221  12.531   1.486  1.00 85.59     0.166 A 
HETATM   11  N13   D T9001       2.033   8.803   2.615  1.00 82.67    -0.099 NA
ENDROOT
BRANCH  10  12
HETATM   12  N14   D T9001       6.200  12.094   2.448  1.00 86.44    -0.227 NA
BRANCH  12  13
HETATM   13  C15   D T9001       6.942  10.880   2.414  1.00 87.38     0.084 A 
HETATM   14  C16   D T9001       6.962   9.981   3.531  1.00 88.13     0.033 A 
HETATM   15  C17   D T9001       7.707   8.781   3.492  1.00 88.88     0.087 A 
HETATM   16  C18   D T9001       8.452   8.460   2.326  1.00 88.55     0.151 A 
HETATM   17 CL     D T9001       7.697   7.736   4.872  1.00 89.26    -0.080 Cl
HETATM   18  C19   D T9001       8.451   9.330   1.199  1.00 87.62     0.032 A 
HETATM   19  F21   D T9001       9.169   7.323   2.274  1.00 88.92    -0.203 F 
HETATM   20  C20   D T9001       7.701  10.538   1.244  1.00 87.82     0.021 A 
ENDBRANCH  12  13
ENDBRANCH  10  12
BRANCH   2  21
HETATM   21  O11   D T9001       0.282   9.809   0.717  1.00 85.44    -0.327 OA
HETATM   22  C12   D T9001      -0.881  10.555   0.340  1.00 84.41     0.181 C 
ENDBRANCH   2  21
TORSDOF 3
ENDMDL
MODEL 3
REMARK VINA RESULT:    -7.346      4.124      6.690
REMARK INTER + INTRA:          -9.172
REMARK INTER:                  -8.804
REMARK INTRA:                  -0.368
REMARK UNBOUND:                -0.538
REMARK  3 active torsions:
REMARK  status: ('A' for Active; 'I' for Inactive)
REMARK    1  A    between atoms: C2_2  and  O11_20 
REMARK    2  A    between atoms: C10_10  and  N14_11 
REMARK    3  A    between atoms: N14_11  and  C15_12 
ROOT
HETATM    1  C1    D T9001       7.270  12.351   1.908  1.00 83.47     0.092 A 
HETATM    2  C2    D T9001       8.608  12.015   1.519  1.00 83.68     0.109 A 
HETATM    3  C3    D T9001       9.153  10.734   1.870  1.00 82.47     0.044 A 
HETATM    4  C4    D T9001       8.422   9.780   2.590  1.00 82.50     0.088 A 
HETATM    5  C5    D T9001       7.072  10.099   2.995  1.00 84.12     0.055 A 
HETATM    6  C6    D T9001       6.517  11.391   2.642  1.00 83.53     0.021 A 
HETATM    7  N7    D T9001       9.022   8.593   2.875  1.00 81.78    -0.224 NA
HETATM    8  C8    D T9001       8.295   7.681   3.570  1.00 83.59     0.200 A 
HETATM    9  N9    D T9001       7.024   7.849   4.009  1.00 84.30    -0.205 NA
HETATM   10  C10   D T9001       6.399   9.058   3.726  1.00 85.59     0.166 A 
HETATM   11  N13   D T9001       6.695  13.601   1.579  1.00 82.67    -0.099 NA
ENDROOT
BRANCH  10  12
HETATM   12  N14   D T9001       5.049   9.271   4.180  1.00 86.44    -0.227 NA
BRANCH  12  13
HETATM   13  C15   D T9001       3.863   9.161   3.401  1.00 87.38     0.084 A 
HETATM   14  C16   D T9001       3.375  10.258   2.618  1.00 88.13     0.033 A 
HETATM   15  C17   D T9001       2.193  10.142   1.852  1.00 88.88     0.087 A 
HETATM   16  C18   D T9001       1.473   8.917   1.859  1.00 88.55     0.151 A 
HETATM   17 CL     D T9001       1.649  11.502   0.928  1.00 89.26    -0.080 Cl
HETATM   18  C19   D T9001       1.933   7.809   2.624  1.00 87.62     0.032 A 
HETATM   19  F21   D T9001       0.346   8.792   1.138  1.00 88.92    -0.203 F 
HETATM   20  C20   D T9001       3.123   7.930   3.395  1.00 87.82     0.021 A 
ENDBRANCH  12  13
ENDBRANCH  10  12
BRANCH   2  21
HETATM   21  O11   D T9001       9.285  12.997   0.802  1.00 85.44    -0.327 OA
HETATM   22  C12   D T9001      10.623  13.320   1.199  1.00 84.41     0.181 C 
ENDBRANCH   2  21
TORSDOF 3
ENDMDL
MODEL 4
REMARK VINA RESULT:    -7.271      4.578      8.001
REMARK INTER + INTRA:          -9.084
REMARK INTER:                  -8.733
REMARK INTRA:                  -0.351
REMARK UNBOUND:                -0.538
REMARK  3 active torsions:
REMARK  status: ('A' for Active; 'I' for Inactive)
REMARK    1  A    between atoms: C2_2  and  O11_20 
REMARK    2  A    between atoms: C10_10  and  N14_11 
REMARK    3  A    between atoms: N14_11  and  C15_12 
ROOT
HETATM    1  C1    D T9001       8.557   7.282   4.819  1.00 83.47     0.092 A 
HETATM    2  C2    D T9001       9.753   7.315   4.030  1.00 83.68     0.109 A 
HETATM    3  C3    D T9001       9.798   8.106   2.833  1.00 82.47     0.044 A 
HETATM    4  C4    D T9001       8.703   8.861   2.393  1.00 82.50     0.088 A 
HETATM    5  C5    D T9001       7.485   8.839   3.171  1.00 84.12     0.055 A 
HETATM    6  C6    D T9001       7.436   8.042   4.381  1.00 83.53     0.021 A 
HETATM    7  N7    D T9001       8.839   9.582   1.247  1.00 81.78    -0.224 NA
HETATM    8  C8    D T9001       7.768  10.309   0.840  1.00 83.59     0.200 A 
HETATM    9  N9    D T9001       6.572  10.380   1.472  1.00 84.30    -0.205 NA
HETATM   10  C10   D T9001       6.417   9.647   2.644  1.00 85.59     0.166 A 
HETATM   11  N13   D T9001       8.474   6.517   6.007  1.00 82.67    -0.099 NA
ENDROOT
BRANCH  10  12
HETATM   12  N14   D T9001       5.157   9.696   3.340  1.00 86.44    -0.227 NA
BRANCH  12  13
HETATM   13  C15   D T9001       3.866   9.497   2.774  1.00 87.38     0.084 A 
HETATM   14  C16   D T9001       3.255  10.485   1.934  1.00 88.13     0.033 A 
HETATM   15  C17   D T9001       1.970  10.283   1.381  1.00 88.88     0.087 A 
HETATM   16  C18   D T9001       1.269   9.080   1.666  1.00 88.55     0.151 A 
HETATM   17 CL     D T9001       1.281  11.512   0.376  1.00 89.26    -0.080 Cl
HETATM   18  C19   D T9001       1.849   8.079   2.495  1.00 87.62     0.032 A 
HETATM   19  F21   D T9001       0.045   8.874   1.151  1.00 88.92    -0.203 F 
HETATM   20  C20   D T9001       3.143   8.288   3.050  1.00 87.82     0.021 A 
ENDBRANCH  12  13
ENDBRANCH  10  12
BRANCH   2  21
HETATM   21  O11   D T9001      10.810   6.551   4.517  1.00 85.44    -0.327 OA
HETATM   22  C12   D T9001      11.980   6.418   3.701  1.00 84.41     0.181 C 
ENDBRANCH   2  21
TORSDOF 3
ENDMDL
MODEL 5
REMARK VINA RESULT:    -7.263      2.663      3.012
REMARK INTER + INTRA:          -9.074
REMARK INTER:                  -8.992
REMARK INTRA:                  -0.082
REMARK UNBOUND:                -0.538
REMARK  3 active torsions:
REMARK  status: ('A' for Active; 'I' for Inactive)
REMARK    1  A    between atoms: C2_2  and  O11_20 
REMARK    2  A    between atoms: C10_10  and  N14_11 
REMARK    3  A    between atoms: N14_11  and  C15_12 
ROOT
HETATM    1  C1    D T9001       1.547  11.308   0.692  1.00 83.47     0.092 A 
HETATM    2  C2    D T9001       0.504  10.326   0.758  1.00 83.68     0.109 A 
HETATM    3  C3    D T9001       0.697   9.130   1.527  1.00 82.47     0.044 A 
HETATM    4  C4    D T9001       1.883   8.874   2.229  1.00 82.50     0.088 A 
HETATM    5  C5    D T9001       2.949   9.848   2.173  1.00 84.12     0.055 A 
HETATM    6  C6    D T9001       2.758  11.058   1.398  1.00 83.53     0.021 A 
HETATM    7  N7    D T9001       1.974   7.712   2.932  1.00 81.78    -0.224 NA
HETATM    8  C8    D T9001       3.129   7.485   3.608  1.00 83.59     0.200 A 
HETATM    9  N9    D T9001       4.203   8.311   3.642  1.00 84.30    -0.205 NA
HETATM   10  C10   D T9001       4.125   9.500   2.926  1.00 85.59     0.166 A 
HETATM   11  N13   D T9001       1.394  12.501  -0.053  1.00 82.67    -0.099 NA
ENDROOT
BRANCH  10  12
HETATM   12  N14   D T9001       5.249  10.400   2.938  1.00 86.44    -0.227 NA
BRANCH  12  13
HETATM   13  C15   D T9001       5.972  10.871   1.806  1.00 87.38     0.084 A 
HETATM   14  C16   D T9001       5.874  12.232   1.367  1.00 88.13     0.033 A 
HETATM   15  C17   D T9001       6.589  12.691   0.237  1.00 88.88     0.087 A 
HETATM   16  C18   D T9001       7.418  11.786  -0.478  1.00 88.55     0.151 A 
HETATM   17 CL     D T9001       6.428  14.344  -0.249  1.00 89.26    -0.080 Cl
HETATM   18  C19   D T9001       7.539  10.429  -0.065  1.00 87.62     0.032 A 
HETATM   19  F21   D T9001       8.103  12.206  -1.556  1.00 88.92    -0.203 F 
HETATM   20  C20   D T9001       6.817   9.971   1.071  1.00 87.82     0.021 A 
ENDBRANCH  12  13
ENDBRANCH  10  12
BRANCH   2  21
HETATM   21  O11   D T9001      -0.652  10.635   0.047  1.00 85.44    -0.327 OA
HETATM   22  C12   D T9001      -1.634  11.462   0.681  1.00 84.41     0.181 C 
ENDBRANCH   2  21
TORSDOF 3
ENDMDL
MODEL 6
REMARK VINA RESULT:    -7.110      4.514      6.087
REMARK INTER + INTRA:          -8.894
REMARK INTER:                  -8.336
REMARK INTRA:                  -0.559
REMARK UNBOUND:                -0.538
REMARK  3 active torsions:
REMARK  status: ('A' for Active; 'I' for Inactive)
REMARK    1  A    between atoms: C2_2  and  O11_20 
REMARK    2  A    between atoms: C10_10  and  N14_11 
REMARK    3  A    between atoms: N14_11  and  C15_12 
ROOT
HETATM    1  C1    D T9001       5.459  10.103   3.175  1.00 83.47     0.092 A 
HETATM    2  C2    D T9001       4.421   9.138   3.388  1.00 83.68     0.109 A 
HETATM    3  C3    D T9001       3.169   9.272   2.698  1.00 82.47     0.044 A 
HETATM    4  C4    D T9001       2.912  10.325   1.810  1.00 82.50     0.088 A 
HETATM    5  C5    D T9001       3.944  11.312   1.584  1.00 84.12     0.055 A 
HETATM    6  C6    D T9001       5.210  11.180   2.278  1.00 83.53     0.021 A 
HETATM    7  N7    D T9001       1.696  10.369   1.201  1.00 81.78    -0.224 NA
HETATM    8  C8    D T9001       1.469  11.395   0.342  1.00 83.59     0.200 A 
HETATM    9  N9    D T9001       2.344  12.383   0.039  1.00 84.30    -0.205 NA
HETATM   10  C10   D T9001       3.590  12.353   0.655  1.00 85.59     0.166 A 
HETATM   11  N13   D T9001       6.708  10.004   3.834  1.00 82.67    -0.099 NA
ENDROOT
BRANCH  10  12
HETATM   12  N14   D T9001       4.545  13.390   0.357  1.00 86.44    -0.227 NA
BRANCH  12  13
HETATM   13  C15   D T9001       5.407  13.451  -0.773  1.00 87.38     0.084 A 
HETATM   14  C16   D T9001       5.166  14.363  -1.852  1.00 88.13     0.033 A 
HETATM   15  C17   D T9001       6.023  14.413  -2.975  1.00 88.88     0.087 A 
HETATM   16  C18   D T9001       7.143  13.542  -3.037  1.00 88.55     0.151 A 
HETATM   17 CL     D T9001       5.680  15.533  -4.250  1.00 89.26    -0.080 Cl
HETATM   18  C19   D T9001       7.412  12.626  -1.980  1.00 87.62     0.032 A 
HETATM   19  F21   D T9001       7.967  13.575  -4.099  1.00 88.92    -0.203 F 
HETATM   20  C20   D T9001       6.545  12.579  -0.853  1.00 87.82     0.021 A 
ENDBRANCH  12  13
ENDBRANCH  10  12
BRANCH   2  21
HETATM   21  O11   D T9001       4.732   8.112   4.275  1.00 85.44    -0.327 OA
HETATM   22  C12   D T9001       4.022   6.875   4.153  1.00 84.41     0.181 C 
ENDBRANCH   2  21
TORSDOF 3
ENDMDL
MODEL 7
REMARK VINA RESULT:    -7.089      1.822      3.459
REMARK INTER + INTRA:          -8.869
REMARK INTER:                  -8.606
REMARK INTRA:                  -0.263
REMARK UNBOUND:                -0.538
REMARK  3 active torsions:
REMARK  status: ('A' for Active; 'I' for Inactive)
REMARK    1  A    between atoms: C2_2  and  O11_20 
REMARK    2  A    between atoms: C10_10  and  N14_11 
REMARK    3  A    between atoms: N14_11  and  C15_12 
ROOT
HETATM    1  C1    D T9001       2.610   9.114   2.417  1.00 83.47     0.092 A 
HETATM    2  C2    D T9001       2.313  10.241   1.582  1.00 83.68     0.109 A 
HETATM    3  C3    D T9001       3.305  11.257   1.374  1.00 82.47     0.044 A 
HETATM    4  C4    D T9001       4.575  11.196   1.964  1.00 82.50     0.088 A 
HETATM    5  C5    D T9001       4.894  10.071   2.813  1.00 84.12     0.055 A 
HETATM    6  C6    D T9001       3.896   9.042   3.024  1.00 83.53     0.021 A 
HETATM    7  N7    D T9001       5.450  12.206   1.708  1.00 81.78    -0.224 NA
HETATM    8  C8    D T9001       6.676  12.126   2.286  1.00 83.59     0.200 A 
HETATM    9  N9    D T9001       7.105  11.131   3.099  1.00 84.30    -0.205 NA
HETATM   10  C10   D T9001       6.221  10.094   3.371  1.00 85.59     0.166 A 
HETATM   11  N13   D T9001       1.661   8.090   2.644  1.00 82.67    -0.099 NA
ENDROOT
BRANCH  10  12
HETATM   12  N14   D T9001       6.644   9.021   4.234  1.00 86.44    -0.227 NA
BRANCH  12  13
HETATM   13  C15   D T9001       7.838   8.256   4.115  1.00 87.38     0.084 A 
HETATM   14  C16   D T9001       8.660   8.325   2.942  1.00 88.13     0.033 A 
HETATM   15  C17   D T9001       9.841   7.558   2.828  1.00 88.88     0.087 A 
HETATM   16  C18   D T9001      10.220   6.699   3.895  1.00 88.55     0.151 A 
HETATM   17 CL     D T9001      10.791   7.679   1.387  1.00 89.26    -0.080 Cl
HETATM   18  C19   D T9001       9.427   6.609   5.073  1.00 87.62     0.032 A 
HETATM   19  F21   D T9001      11.339   5.960   3.801  1.00 88.92    -0.203 F 
HETATM   20  C20   D T9001       8.238   7.383   5.183  1.00 87.82     0.021 A 
ENDBRANCH  12  13
ENDBRANCH  10  12
BRANCH   2  21
HETATM   21  O11   D T9001       1.040  10.247   1.018  1.00 85.44    -0.327 OA
HETATM   22  C12   D T9001       0.504  11.498   0.574  1.00 84.41     0.181 C 
ENDBRANCH   2  21
TORSDOF 3
ENDMDL
MODEL 8
REMARK VINA RESULT:    -7.085      4.362      5.783
REMARK INTER + INTRA:          -8.866
REMARK INTER:                  -8.801
REMARK INTRA:                  -0.064
REMARK UNBOUND:                -0.538
REMARK  3 active torsions:
REMARK  status: ('A' for Active; 'I' for Inactive)
REMARK    1  A    between atoms: C2_2  and  O11_20 
REMARK    2  A    between atoms: C10_10  and  N14_11 
REMARK    3  A    between atoms: N14_11  and  C15_12 
ROOT
HETATM    1  C1    D T9001       7.252  13.086  -1.685  1.00 83.47     0.092 A 
HETATM    2  C2    D T9001       6.344  13.857  -2.483  1.00 83.68     0.109 A 
HETATM    3  C3    D T9001       4.992  14.052  -2.039  1.00 82.47     0.044 A 
HETATM    4  C4    D T9001       4.512  13.512  -0.839  1.00 82.50     0.088 A 
HETATM    5  C5    D T9001       5.409  12.728  -0.022  1.00 84.12     0.055 A 
HETATM    6  C6    D T9001       6.775  12.528  -0.465  1.00 83.53     0.021 A 
HETATM    7  N7    D T9001       3.216  13.752  -0.501  1.00 81.78    -0.224 NA
HETATM    8  C8    D T9001       2.772  13.222   0.667  1.00 83.59     0.200 A 
HETATM    9  N9    D T9001       3.503  12.472   1.526  1.00 84.30    -0.205 NA
HETATM   10  C10   D T9001       4.828  12.217   1.192  1.00 85.59     0.166 A 
HETATM   11  N13   D T9001       8.592  12.873  -2.085  1.00 82.67    -0.099 NA
ENDROOT
BRANCH  10  12
HETATM   12  N14   D T9001       5.634  11.420   2.082  1.00 86.44    -0.227 NA
BRANCH  12  13
HETATM   13  C15   D T9001       5.228  10.242   2.769  1.00 87.38     0.084 A 
HETATM   14  C16   D T9001       3.935   9.659   2.559  1.00 88.13     0.033 A 
HETATM   15  C17   D T9001       3.537   8.492   3.250  1.00 88.88     0.087 A 
HETATM   16  C18   D T9001       4.432   7.888   4.173  1.00 88.55     0.151 A 
HETATM   17 CL     D T9001       1.962   7.835   2.959  1.00 89.26    -0.080 Cl
HETATM   18  C19   D T9001       5.723   8.441   4.402  1.00 87.62     0.032 A 
HETATM   19  F21   D T9001       4.067   6.779   4.840  1.00 88.92    -0.203 F 
HETATM   20  C20   D T9001       6.120   9.616   3.704  1.00 87.82     0.021 A 
ENDBRANCH  12  13
ENDBRANCH  10  12
BRANCH   2  21
HETATM   21  O11   D T9001       6.876  14.374  -3.661  1.00 85.44    -0.327 OA
HETATM   22  C12   D T9001       6.046  15.225  -4.459  1.00 84.41     0.181 C 
ENDBRANCH   2  21
TORSDOF 3
ENDMDL
