MODEL 1
REMARK VINA RESULT:    -7.768      0.000      0.000
REMARK INTER + INTRA:          -9.658
REMARK INTER:                  -9.130
REMARK INTRA:                  -0.528
REMARK UNBOUND:                -0.528
REMARK  3 active torsions:
REMARK  status: ('A' for Active; 'I' for Inactive)
REMARK    1  A    between atoms: C2_2  and  O11_20 
REMARK    2  A    between atoms: C10_10  and  N14_11 
REMARK    3  A    between atoms: N14_11  and  C15_12 
ROOT
HETATM    1  C1    D T9001       3.144   4.361   9.968  1.00 83.47     0.092 A 
HETATM    2  C2    D T9001       3.744   5.658  10.096  1.00 83.68     0.109 A 
HETATM    3  C3    D T9001       2.912   6.819  10.231  1.00 82.47     0.044 A 
HETATM    4  C4    D T9001       1.512   6.742  10.243  1.00 82.50     0.088 A 
HETATM    5  C5    D T9001       0.887   5.446  10.113  1.00 84.12     0.055 A 
HETATM    6  C6    D T9001       1.722   4.269   9.977  1.00 83.53     0.021 A 
HETATM    7  N7    D T9001       0.807   7.898  10.376  1.00 81.78    -0.224 NA
HETATM    8  C8    D T9001      -0.546   7.800  10.391  1.00 83.59     0.200 A 
HETATM    9  N9    D T9001      -1.260   6.655  10.279  1.00 84.30    -0.205 NA
HETATM   10  C10   D T9001      -0.552   5.465  10.139  1.00 85.59     0.166 A 
HETATM   11  N13   D T9001       3.929   3.192   9.836  1.00 82.67    -0.099 NA
ENDROOT
BRANCH  10  12
HETATM   12  N14   D T9001      -1.279   4.228  10.016  1.00 86.44    -0.227 NA
BRANCH  12  13
HETATM   13  C15   D T9001      -1.773   3.423  11.080  1.00 87.38     0.084 A 
HETATM   14  C16   D T9001      -3.145   3.009  11.133  1.00 88.13     0.033 A 
HETATM   15  C17   D T9001      -3.631   2.216  12.197  1.00 88.88     0.087 A 
HETATM   16  C18   D T9001      -2.744   1.824  13.235  1.00 88.55     0.151 A 
HETATM   17 CL     D T9001      -5.298   1.751  12.210  1.00 89.26    -0.080 Cl
HETATM   18  C19   D T9001      -1.376   2.216  13.210  1.00 87.62     0.032 A 
HETATM   19  F21   D T9001      -3.189   1.072  14.256  1.00 88.92    -0.203 F 
HETATM   20  C20   D T9001      -0.892   3.015  12.138  1.00 87.82     0.021 A 
ENDBRANCH  12  13
ENDBRANCH  10  12
BRANCH   2  21
HETATM   21  O11   D T9001       5.136   5.674  10.083  1.00 85.44    -0.327 OA
HETATM   22  C12   D T9001       5.819   5.898  11.321  1.00 84.41     0.181 C 
ENDBRANCH   2  21
TORSDOF 3
ENDMDL
MODEL 2
REMARK VINA RESULT:    -7.589      1.292      1.602
REMARK INTER + INTRA:          -9.448
REMARK INTER:                  -8.901
REMARK INTRA:                  -0.547
REMARK UNBOUND:                -0.528
REMARK  3 active torsions:
REMARK  status: ('A' for Active; 'I' for Inactive)
REMARK    1  A    between atoms: C2_2  and  O11_20 
REMARK    2  A    between atoms: C10_10  and  N14_11 
REMARK    3  A    between atoms: N14_11  and  C15_12 
ROOT
HETATM    1  C1    D T9001       3.228   4.347   9.844  1.00 83.47     0.092 A 
HETATM    2  C2    D T9001       3.792   5.655  10.021  1.00 83.68     0.109 A 
HETATM    3  C3    D T9001       2.928   6.786  10.198  1.00 82.47     0.044 A 
HETATM    4  C4    D T9001       1.531   6.670  10.205  1.00 82.50     0.088 A 
HETATM    5  C5    D T9001       0.942   5.362  10.025  1.00 84.12     0.055 A 
HETATM    6  C6    D T9001       1.810   4.215   9.847  1.00 83.53     0.021 A 
HETATM    7  N7    D T9001       0.794   7.800  10.380  1.00 81.78    -0.224 NA
HETATM    8  C8    D T9001      -0.556   7.663  10.389  1.00 83.59     0.200 A 
HETATM    9  N9    D T9001      -1.238   6.504  10.232  1.00 84.30    -0.205 NA
HETATM   10  C10   D T9001      -0.497   5.341  10.049  1.00 85.59     0.166 A 
HETATM   11  N13   D T9001       4.046   3.206   9.670  1.00 82.67    -0.099 NA
ENDROOT
BRANCH  10  12
HETATM   12  N14   D T9001      -1.189   4.089   9.878  1.00 86.44    -0.227 NA
BRANCH  12  13
HETATM   13  C15   D T9001      -1.577   3.185  10.906  1.00 87.38     0.084 A 
HETATM   14  C16   D T9001      -0.679   2.183  11.401  1.00 88.13     0.033 A 
HETATM   15  C17   D T9001      -1.073   1.283  12.417  1.00 88.88     0.087 A 
HETATM   16  C18   D T9001      -2.383   1.373  12.958  1.00 88.55     0.151 A 
HETATM   17 CL     D T9001       0.052   0.090  12.971  1.00 89.26    -0.080 Cl
HETATM   18  C19   D T9001      -3.298   2.360  12.491  1.00 87.62     0.032 A 
HETATM   19  F21   D T9001      -2.776   0.524  13.923  1.00 88.92    -0.203 F 
HETATM   20  C20   D T9001      -2.897   3.262  11.466  1.00 87.82     0.021 A 
ENDBRANCH  12  13
ENDBRANCH  10  12
BRANCH   2  21
HETATM   21  O11   D T9001       5.183   5.710  10.011  1.00 85.44    -0.327 OA
HETATM   22  C12   D T9001       5.849   6.119  11.211  1.00 84.41     0.181 C 
ENDBRANCH   2  21
TORSDOF 3
ENDMDL
MODEL 3
REMARK VINA RESULT:    -7.583      4.356      7.196
REMARK INTER + INTRA:          -9.440
REMARK INTER:                  -9.216
REMARK INTRA:                  -0.224
REMARK UNBOUND:                -0.528
REMARK  3 active torsions:
REMARK  status: ('A' for Active; 'I' for Inactive)
REMARK    1  A    between atoms: C2_2  and  O11_20 
REMARK    2  A    between atoms: C10_10  and  N14_11 
REMARK    3  A    between atoms: N14_11  and  C15_12 
ROOT
HETATM    1  C1    D T9001      -2.174   1.219  12.775  1.00 83.47     0.092 A 
HETATM    2  C2    D T9001      -3.582   1.459  12.899  1.00 83.68     0.109 A 
HETATM    3  C3    D T9001      -4.198   2.508  12.138  1.00 82.47     0.044 A 
HETATM    4  C4    D T9001      -3.470   3.326  11.262  1.00 82.50     0.088 A 
HETATM    5  C5    D T9001      -2.049   3.103  11.124  1.00 84.12     0.055 A 
HETATM    6  C6    D T9001      -1.422   2.044  11.889  1.00 83.53     0.021 A 
HETATM    7  N7    D T9001      -4.141   4.294  10.582  1.00 81.78    -0.224 NA
HETATM    8  C8    D T9001      -3.418   5.070   9.735  1.00 83.59     0.200 A 
HETATM    9  N9    D T9001      -2.087   4.972   9.510  1.00 84.30    -0.205 NA
HETATM   10  C10   D T9001      -1.387   3.987  10.201  1.00 85.59     0.166 A 
HETATM   11  N13   D T9001      -1.530   0.193  13.506  1.00 82.67    -0.099 NA
ENDROOT
BRANCH  10  12
HETATM   12  N14   D T9001       0.031   3.855   9.986  1.00 86.44    -0.227 NA
BRANCH  12  13
HETATM   13  C15   D T9001       0.958   4.911   9.761  1.00 87.38     0.084 A 
HETATM   14  C16   D T9001       0.731   6.230  10.274  1.00 88.13     0.033 A 
HETATM   15  C17   D T9001       1.653   7.276  10.039  1.00 88.88     0.087 A 
HETATM   16  C18   D T9001       2.824   7.016   9.280  1.00 88.55     0.151 A 
HETATM   17 CL     D T9001       1.324   8.850  10.680  1.00 89.26    -0.080 Cl
HETATM   18  C19   D T9001       3.079   5.715   8.758  1.00 87.62     0.032 A 
HETATM   19  F21   D T9001       3.710   7.999   9.044  1.00 88.92    -0.203 F 
HETATM   20  C20   D T9001       2.148   4.667   8.996  1.00 87.82     0.021 A 
ENDBRANCH  12  13
ENDBRANCH  10  12
BRANCH   2  21
HETATM   21  O11   D T9001      -4.255   0.615  13.779  1.00 85.44    -0.327 OA
HETATM   22  C12   D T9001      -5.370  -0.131  13.277  1.00 84.41     0.181 C 
ENDBRANCH   2  21
TORSDOF 3
ENDMDL
MODEL 4
REMARK VINA RESULT:    -7.566      4.528      7.308
REMARK INTER + INTRA:          -9.421
REMARK INTER:                  -9.150
REMARK INTRA:                  -0.271
REMARK UNBOUND:                -0.528
REMARK  3 active torsions:
REMARK  status: ('A' for Active; 'I' for Inactive)
REMARK    1  A    between atoms: C2_2  and  O11_20 
REMARK    2  A    between atoms: C10_10  and  N14_11 
REMARK    3  A    between atoms: N14_11  and  C15_12 
ROOT
HETATM    1  C1    D T9001      -2.192   1.300  12.683  1.00 83.47     0.092 A 
HETATM    2  C2    D T9001      -3.599   1.561  12.781  1.00 83.68     0.109 A 
HETATM    3  C3    D T9001      -4.182   2.624  12.014  1.00 82.47     0.044 A 
HETATM    4  C4    D T9001      -3.425   3.434  11.158  1.00 82.50     0.088 A 
HETATM    5  C5    D T9001      -2.005   3.190  11.046  1.00 84.12     0.055 A 
HETATM    6  C6    D T9001      -1.410   2.118  11.818  1.00 83.53     0.021 A 
HETATM    7  N7    D T9001      -4.067   4.418  10.471  1.00 81.78    -0.224 NA
HETATM    8  C8    D T9001      -3.315   5.187   9.643  1.00 83.59     0.200 A 
HETATM    9  N9    D T9001      -1.981   5.069   9.444  1.00 84.30    -0.205 NA
HETATM   10  C10   D T9001      -1.311   4.070  10.142  1.00 85.59     0.166 A 
HETATM   11  N13   D T9001      -1.579   0.259  13.421  1.00 82.67    -0.099 NA
ENDROOT
BRANCH  10  12
HETATM   12  N14   D T9001       0.109   3.917   9.956  1.00 86.44    -0.227 NA
BRANCH  12  13
HETATM   13  C15   D T9001       1.054   4.958   9.737  1.00 87.38     0.084 A 
HETATM   14  C16   D T9001       2.165   4.788   8.847  1.00 88.13     0.033 A 
HETATM   15  C17   D T9001       3.104   5.824   8.639  1.00 88.88     0.087 A 
HETATM   16  C18   D T9001       2.944   7.056   9.326  1.00 88.55     0.151 A 
HETATM   17 CL     D T9001       4.428   5.558   7.557  1.00 89.26    -0.080 Cl
HETATM   18  C19   D T9001       1.850   7.259  10.215  1.00 87.62     0.032 A 
HETATM   19  F21   D T9001       3.829   8.051   9.144  1.00 88.92    -0.203 F 
HETATM   20  C20   D T9001       0.909   6.212  10.421  1.00 87.82     0.021 A 
ENDBRANCH  12  13
ENDBRANCH  10  12
BRANCH   2  21
HETATM   21  O11   D T9001      -4.302   0.722  13.642  1.00 85.44    -0.327 OA
HETATM   22  C12   D T9001      -5.433   0.016  13.119  1.00 84.41     0.181 C 
ENDBRANCH   2  21
TORSDOF 3
ENDMDL
MODEL 5
REMARK VINA RESULT:    -7.415      2.198      2.519
REMARK INTER + INTRA:          -9.243
REMARK INTER:                  -8.966
REMARK INTRA:                  -0.276
REMARK UNBOUND:                -0.528
REMARK  3 active torsions:
REMARK  status: ('A' for Active; 'I' for Inactive)
REMARK    1  A    between atoms: C2_2  and  O11_20 
REMARK    2  A    between atoms: C10_10  and  N14_11 
REMARK    3  A    between atoms: N14_11  and  C15_12 
ROOT
HETATM    1  C1    D T9001       4.011   5.832   8.504  1.00 83.47     0.092 A 
HETATM    2  C2    D T9001       4.214   7.220   8.202  1.00 83.68     0.109 A 
HETATM    3  C3    D T9001       3.291   8.201   8.696  1.00 82.47     0.044 A 
HETATM    4  C4    D T9001       2.177   7.857   9.474  1.00 82.50     0.088 A 
HETATM    5  C5    D T9001       1.952   6.465   9.788  1.00 84.12     0.055 A 
HETATM    6  C6    D T9001       2.881   5.470   9.292  1.00 83.53     0.021 A 
HETATM    7  N7    D T9001       1.358   8.857   9.898  1.00 81.78    -0.224 NA
HETATM    8  C8    D T9001       0.289   8.504  10.655  1.00 83.59     0.200 A 
HETATM    9  N9    D T9001      -0.041   7.243  11.022  1.00 84.30    -0.205 NA
HETATM   10  C10   D T9001       0.786   6.210  10.593  1.00 85.59     0.166 A 
HETATM   11  N13   D T9001       4.899   4.835   8.038  1.00 82.67    -0.099 NA
ENDROOT
BRANCH  10  12
HETATM   12  N14   D T9001       0.465   4.855  10.964  1.00 86.44    -0.227 NA
BRANCH  12  13
HETATM   13  C15   D T9001      -0.835   4.282  11.042  1.00 87.38     0.084 A 
HETATM   14  C16   D T9001      -1.901   4.721  10.189  1.00 88.13     0.033 A 
HETATM   15  C17   D T9001      -3.192   4.152  10.277  1.00 88.88     0.087 A 
HETATM   16  C18   D T9001      -3.439   3.128  11.229  1.00 88.55     0.151 A 
HETATM   17 CL     D T9001      -4.440   4.726   9.224  1.00 89.26    -0.080 Cl
HETATM   18  C19   D T9001      -2.401   2.668  12.089  1.00 87.62     0.032 A 
HETATM   19  F21   D T9001      -4.661   2.578  11.329  1.00 88.92    -0.203 F 
HETATM   20  C20   D T9001      -1.104   3.245  11.998  1.00 87.82     0.021 A 
ENDBRANCH  12  13
ENDBRANCH  10  12
BRANCH   2  21
HETATM   21  O11   D T9001       5.339   7.502   7.430  1.00 85.44    -0.327 OA
HETATM   22  C12   D T9001       5.165   8.303   6.256  1.00 84.41     0.181 C 
ENDBRANCH   2  21
TORSDOF 3
ENDMDL
MODEL 6
REMARK VINA RESULT:    -7.278      4.448      7.522
REMARK INTER + INTRA:          -9.082
REMARK INTER:                  -8.643
REMARK INTRA:                  -0.439
REMARK UNBOUND:                -0.528
REMARK  3 active torsions:
REMARK  status: ('A' for Active; 'I' for Inactive)
REMARK    1  A    between atoms: C2_2  and  O11_20 
REMARK    2  A    between atoms: C10_10  and  N14_11 
REMARK    3  A    between atoms: N14_11  and  C15_12 
ROOT
HETATM    1  C1    D T9001      -3.999   2.062  12.084  1.00 83.47     0.092 A 
HETATM    2  C2    D T9001      -3.669   1.017  13.010  1.00 83.68     0.109 A 
HETATM    3  C3    D T9001      -2.296   0.655  13.217  1.00 82.47     0.044 A 
HETATM    4  C4    D T9001      -1.243   1.288  12.542  1.00 82.50     0.088 A 
HETATM    5  C5    D T9001      -1.554   2.340  11.602  1.00 84.12     0.055 A 
HETATM    6  C6    D T9001      -2.939   2.711  11.389  1.00 83.53     0.021 A 
HETATM    7  N7    D T9001       0.026   0.876  12.805  1.00 81.78    -0.224 NA
HETATM    8  C8    D T9001       1.031   1.505  12.144  1.00 83.59     0.200 A 
HETATM    9  N9    D T9001       0.883   2.502  11.240  1.00 84.30    -0.205 NA
HETATM   10  C10   D T9001      -0.410   2.932  10.959  1.00 85.59     0.166 A 
HETATM   11  N13   D T9001      -5.340   2.450  11.853  1.00 82.67    -0.099 NA
ENDROOT
BRANCH  10  12
HETATM   12  N14   D T9001      -0.604   3.990  10.001  1.00 86.44    -0.227 NA
BRANCH  12  13
HETATM   13  C15   D T9001      -0.090   5.314  10.083  1.00 87.38     0.084 A 
HETATM   14  C16   D T9001       1.290   5.601   9.820  1.00 88.13     0.033 A 
HETATM   15  C17   D T9001       1.796   6.918   9.911  1.00 88.88     0.087 A 
HETATM   16  C18   D T9001       0.920   7.976  10.270  1.00 88.55     0.151 A 
HETATM   17 CL     D T9001       3.472   7.202   9.587  1.00 89.26    -0.080 Cl
HETATM   18  C19   D T9001      -0.456   7.726  10.535  1.00 87.62     0.032 A 
HETATM   19  F21   D T9001       1.384   9.235  10.364  1.00 88.92    -0.203 F 
HETATM   20  C20   D T9001      -0.960   6.398  10.444  1.00 87.82     0.021 A 
ENDBRANCH  12  13
ENDBRANCH  10  12
BRANCH   2  21
HETATM   21  O11   D T9001      -4.753   0.429  13.656  1.00 85.44    -0.327 OA
HETATM   22  C12   D T9001      -4.522  -0.206  14.918  1.00 84.41     0.181 C 
ENDBRANCH   2  21
TORSDOF 3
ENDMDL
MODEL 7
REMARK VINA RESULT:    -7.001      1.495      2.027
REMARK INTER + INTRA:          -8.756
REMARK INTER:                  -8.866
REMARK INTRA:                   0.109
REMARK UNBOUND:                -0.528
REMARK  3 active torsions:
REMARK  status: ('A' for Active; 'I' for Inactive)
REMARK    1  A    between atoms: C2_2  and  O11_20 
REMARK    2  A    between atoms: C10_10  and  N14_11 
REMARK    3  A    between atoms: N14_11  and  C15_12 
ROOT
HETATM    1  C1    D T9001       2.773   4.069  10.129  1.00 83.47     0.092 A 
HETATM    2  C2    D T9001       2.698   5.440   9.714  1.00 83.68     0.109 A 
HETATM    3  C3    D T9001       1.434   6.120   9.721  1.00 82.47     0.044 A 
HETATM    4  C4    D T9001       0.247   5.491  10.121  1.00 82.50     0.088 A 
HETATM    5  C5    D T9001       0.300   4.109  10.539  1.00 84.12     0.055 A 
HETATM    6  C6    D T9001       1.574   3.418  10.536  1.00 83.53     0.021 A 
HETATM    7  N7    D T9001      -0.903   6.217  10.094  1.00 81.78    -0.224 NA
HETATM    8  C8    D T9001      -2.040   5.591  10.490  1.00 83.59     0.200 A 
HETATM    9  N9    D T9001      -2.135   4.305  10.904  1.00 84.30    -0.205 NA
HETATM   10  C10   D T9001      -0.967   3.550  10.934  1.00 85.59     0.166 A 
HETATM   11  N13   D T9001       4.000   3.365  10.140  1.00 82.67    -0.099 NA
ENDROOT
BRANCH  10  12
HETATM   12  N14   D T9001      -1.031   2.178  11.368  1.00 86.44    -0.227 NA
BRANCH  12  13
HETATM   13  C15   D T9001      -2.056   1.583  12.155  1.00 87.38     0.084 A 
HETATM   14  C16   D T9001      -3.440   1.890  11.940  1.00 88.13     0.033 A 
HETATM   15  C17   D T9001      -4.453   1.301  12.731  1.00 88.88     0.087 A 
HETATM   16  C18   D T9001      -4.093   0.389  13.758  1.00 88.55     0.151 A 
HETATM   17 CL     D T9001      -6.107   1.714  12.428  1.00 89.26    -0.080 Cl
HETATM   18  C19   D T9001      -2.728   0.061  13.995  1.00 87.62     0.032 A 
HETATM   19  F21   D T9001      -5.043  -0.178  14.522  1.00 88.92    -0.203 F 
HETATM   20  C20   D T9001      -1.712   0.658  13.198  1.00 87.82     0.021 A 
ENDBRANCH  12  13
ENDBRANCH  10  12
BRANCH   2  21
HETATM   21  O11   D T9001       3.908   6.015   9.333  1.00 85.44    -0.327 OA
HETATM   22  C12   D T9001       4.216   6.072   7.936  1.00 84.41     0.181 C 
ENDBRANCH   2  21
TORSDOF 3
ENDMDL
MODEL 8
REMARK VINA RESULT:    -6.541      4.592      6.898
REMARK INTER + INTRA:          -8.216
REMARK INTER:                  -7.869
REMARK INTRA:                  -0.346
REMARK UNBOUND:                -0.528
REMARK  3 active torsions:
REMARK  status: ('A' for Active; 'I' for Inactive)
REMARK    1  A    between atoms: C2_2  and  O11_20 
REMARK    2  A    between atoms: C10_10  and  N14_11 
REMARK    3  A    between atoms: N14_11  and  C15_12 
ROOT
HETATM    1  C1    D T9001      -1.767   4.167  10.513  1.00 83.47     0.092 A 
HETATM    2  C2    D T9001      -3.157   4.334  10.824  1.00 83.68     0.109 A 
HETATM    3  C3    D T9001      -3.814   3.390  11.682  1.00 82.47     0.044 A 
HETATM    4  C4    D T9001      -3.146   2.290  12.238  1.00 82.50     0.088 A 
HETATM    5  C5    D T9001      -1.746   2.102  11.935  1.00 84.12     0.055 A 
HETATM    6  C6    D T9001      -1.077   3.052  11.070  1.00 83.53     0.021 A 
HETATM    7  N7    D T9001      -3.853   1.449  13.041  1.00 81.78    -0.224 NA
HETATM    8  C8    D T9001      -3.186   0.394  13.574  1.00 83.59     0.200 A 
HETATM    9  N9    D T9001      -1.880   0.099  13.373  1.00 84.30    -0.205 NA
HETATM   10  C10   D T9001      -1.145   0.948  12.553  1.00 85.59     0.166 A 
HETATM   11  N13   D T9001      -1.082   5.077   9.674  1.00 82.67    -0.099 NA
ENDROOT
BRANCH  10  12
HETATM   12  N14   D T9001       0.247   0.663  12.317  1.00 86.44    -0.227 NA
BRANCH  12  13
HETATM   13  C15   D T9001       1.234   0.376  13.301  1.00 87.38     0.084 A 
HETATM   14  C16   D T9001       2.214   1.348  13.687  1.00 88.13     0.033 A 
HETATM   15  C17   D T9001       3.196   1.053  14.659  1.00 88.88     0.087 A 
HETATM   16  C18   D T9001       3.212  -0.232  15.265  1.00 88.55     0.151 A 
HETATM   17 CL     D T9001       4.357   2.265  15.082  1.00 89.26    -0.080 Cl
HETATM   18  C19   D T9001       2.251  -1.219  14.906  1.00 87.62     0.032 A 
HETATM   19  F21   D T9001       4.141  -0.531  16.189  1.00 88.92    -0.203 F 
HETATM   20  C20   D T9001       1.266  -0.917  13.925  1.00 87.82     0.021 A 
ENDBRANCH  12  13
ENDBRANCH  10  12
BRANCH   2  21
HETATM   21  O11   D T9001      -3.767   5.445  10.249  1.00 85.44    -0.327 OA
HETATM   22  C12   D T9001      -4.583   5.241   9.090  1.00 84.41     0.181 C 
ENDBRANCH   2  21
TORSDOF 3
ENDMDL
MODEL 9
REMARK VINA RESULT:    -6.490      4.669      7.654
REMARK INTER + INTRA:          -8.156
REMARK INTER:                  -7.676
REMARK INTRA:                  -0.480
REMARK UNBOUND:                -0.528
REMARK  3 active torsions:
REMARK  status: ('A' for Active; 'I' for Inactive)
REMARK    1  A    between atoms: C2_2  and  O11_20 
REMARK    2  A    between atoms: C10_10  and  N14_11 
REMARK    3  A    between atoms: N14_11  and  C15_12 
ROOT
HETATM    1  C1    D T9001      -3.407   3.583  10.594  1.00 83.47     0.092 A 
HETATM    2  C2    D T9001      -3.643   2.703  11.702  1.00 83.68     0.109 A 
HETATM    3  C3    D T9001      -2.542   2.027  12.325  1.00 82.47     0.044 A 
HETATM    4  C4    D T9001      -1.219   2.191  11.891  1.00 82.50     0.088 A 
HETATM    5  C5    D T9001      -0.958   3.071  10.775  1.00 84.12     0.055 A 
HETATM    6  C6    D T9001      -2.067   3.756  10.142  1.00 83.53     0.021 A 
HETATM    7  N7    D T9001      -0.240   1.509  12.545  1.00 81.78    -0.224 NA
HETATM    8  C8    D T9001       1.034   1.686  12.112  1.00 83.59     0.200 A 
HETATM    9  N9    D T9001       1.419   2.476  11.082  1.00 84.30    -0.205 NA
HETATM   10  C10   D T9001       0.428   3.178  10.402  1.00 85.59     0.166 A 
HETATM   11  N13   D T9001      -4.465   4.269   9.955  1.00 82.67    -0.099 NA
ENDROOT
BRANCH  10  12
HETATM   12  N14   D T9001       0.802   4.027   9.301  1.00 86.44    -0.227 NA
BRANCH  12  13
HETATM   13  C15   D T9001       1.894   4.939   9.264  1.00 87.38     0.084 A 
HETATM   14  C16   D T9001       3.140   4.593   8.644  1.00 88.13     0.033 A 
HETATM   15  C17   D T9001       4.222   5.501   8.618  1.00 88.88     0.087 A 
HETATM   16  C18   D T9001       4.073   6.780   9.217  1.00 88.55     0.151 A 
HETATM   17 CL     D T9001       5.704   5.026   7.860  1.00 89.26    -0.080 Cl
HETATM   18  C19   D T9001       2.848   7.155   9.837  1.00 87.62     0.032 A 
HETATM   19  F21   D T9001       5.093   7.655   9.204  1.00 88.92    -0.203 F 
HETATM   20  C20   D T9001       1.762   6.237   9.863  1.00 87.82     0.021 A 
ENDBRANCH  12  13
ENDBRANCH  10  12
BRANCH   2  21
HETATM   21  O11   D T9001      -4.974   2.583  12.093  1.00 85.44    -0.327 OA
HETATM   22  C12   D T9001      -5.450   1.286  12.473  1.00 84.41     0.181 C 
ENDBRANCH   2  21
TORSDOF 3
ENDMDL
