MODEL 1
REMARK VINA RESULT:    -8.076      0.000      0.000
REMARK INTER + INTRA:         -10.052
REMARK INTER:                  -9.492
REMARK INTRA:                  -0.560
REMARK UNBOUND:                -0.560
REMARK  3 active torsions:
REMARK  status: ('A' for Active; 'I' for Inactive)
REMARK    1  A    between atoms: C2_2  and  O11_20 
REMARK    2  A    between atoms: C10_10  and  N14_11 
REMARK    3  A    between atoms: N14_11  and  C15_12 
ROOT
HETATM    1  C1    D T9001       3.618  16.507  -2.318  1.00 83.47     0.092 A 
HETATM    2  C2    D T9001       4.716  16.986  -1.530  1.00 83.68     0.109 A 
HETATM    3  C3    D T9001       5.000  16.380  -0.260  1.00 82.47     0.044 A 
HETATM    4  C4    D T9001       4.238  15.323   0.254  1.00 82.50     0.088 A 
HETATM    5  C5    D T9001       3.125  14.827  -0.523  1.00 84.12     0.055 A 
HETATM    6  C6    D T9001       2.834  15.434  -1.807  1.00 83.53     0.021 A 
HETATM    7  N7    D T9001       4.585  14.812   1.467  1.00 81.78    -0.224 NA
HETATM    8  C8    D T9001       3.836  13.785   1.943  1.00 83.59     0.200 A 
HETATM    9  N9    D T9001       2.771  13.225   1.322  1.00 84.30    -0.205 NA
HETATM   10  C10   D T9001       2.404  13.739   0.084  1.00 85.59     0.166 A 
HETATM   11  N13   D T9001       3.307  17.075  -3.576  1.00 82.67    -0.099 NA
ENDROOT
BRANCH  10  12
HETATM   12  N14   D T9001       1.274  13.169  -0.604  1.00 86.44    -0.227 NA
BRANCH  12  13
HETATM   13  C15   D T9001      -0.088  13.557  -0.467  1.00 87.38     0.084 A 
HETATM   14  C16   D T9001      -1.027  13.391  -1.538  1.00 88.13     0.033 A 
HETATM   15  C17   D T9001      -2.377  13.784  -1.397  1.00 88.88     0.087 A 
HETATM   16  C18   D T9001      -2.813  14.357  -0.172  1.00 88.55     0.151 A 
HETATM   17 CL     D T9001      -3.463  13.564  -2.726  1.00 89.26    -0.080 Cl
HETATM   18  C19   D T9001      -1.906  14.534   0.912  1.00 87.62     0.032 A 
HETATM   19  F21   D T9001      -4.092  14.740  -0.023  1.00 88.92    -0.203 F 
HETATM   20  C20   D T9001      -0.547  14.137   0.764  1.00 87.82     0.021 A 
ENDBRANCH  12  13
ENDBRANCH  10  12
BRANCH   2  21
HETATM   21  O11   D T9001       5.441  18.034  -2.091  1.00 85.44    -0.327 OA
HETATM   22  C12   D T9001       6.780  17.772  -2.523  1.00 84.41     0.181 C 
ENDBRANCH   2  21
TORSDOF 3
ENDMDL
MODEL 2
REMARK VINA RESULT:    -7.884      2.487      3.211
REMARK INTER + INTRA:          -9.827
REMARK INTER:                  -9.465
REMARK INTRA:                  -0.362
REMARK UNBOUND:                -0.560
REMARK  3 active torsions:
REMARK  status: ('A' for Active; 'I' for Inactive)
REMARK    1  A    between atoms: C2_2  and  O11_20 
REMARK    2  A    between atoms: C10_10  and  N14_11 
REMARK    3  A    between atoms: N14_11  and  C15_12 
ROOT
HETATM    1  C1    D T9001       5.407  14.798   0.978  1.00 83.47     0.092 A 
HETATM    2  C2    D T9001       6.033  14.109   2.069  1.00 83.68     0.109 A 
HETATM    3  C3    D T9001       5.312  13.090   2.777  1.00 82.47     0.044 A 
HETATM    4  C4    D T9001       3.999  12.731   2.445  1.00 82.50     0.088 A 
HETATM    5  C5    D T9001       3.348  13.415   1.351  1.00 84.12     0.055 A 
HETATM    6  C6    D T9001       4.072  14.445   0.631  1.00 83.53     0.021 A 
HETATM    7  N7    D T9001       3.397  11.752   3.173  1.00 81.78    -0.224 NA
HETATM    8  C8    D T9001       2.127  11.417   2.831  1.00 83.59     0.200 A 
HETATM    9  N9    D T9001       1.402  11.974   1.832  1.00 84.30    -0.205 NA
HETATM   10  C10   D T9001       2.004  12.978   1.081  1.00 85.59     0.166 A 
HETATM   11  N13   D T9001       6.084  15.806   0.253  1.00 82.67    -0.099 NA
ENDROOT
BRANCH  10  12
HETATM   12  N14   D T9001       1.260  13.595   0.013  1.00 86.44    -0.227 NA
BRANCH  12  13
HETATM   13  C15   D T9001      -0.136  13.872  -0.001  1.00 87.38     0.084 A 
HETATM   14  C16   D T9001      -0.955  13.537  -1.129  1.00 88.13     0.033 A 
HETATM   15  C17   D T9001      -2.340  13.820  -1.139  1.00 88.88     0.087 A 
HETATM   16  C18   D T9001      -2.931  14.451  -0.011  1.00 88.55     0.151 A 
HETATM   17 CL     D T9001      -3.278  13.397  -2.530  1.00 89.26    -0.080 Cl
HETATM   18  C19   D T9001      -2.145  14.795   1.125  1.00 87.62     0.032 A 
HETATM   19  F21   D T9001      -4.245  14.731  -0.006  1.00 88.92    -0.203 F 
HETATM   20  C20   D T9001      -0.750  14.508   1.130  1.00 87.82     0.021 A 
ENDBRANCH  12  13
ENDBRANCH  10  12
BRANCH   2  21
HETATM   21  O11   D T9001       7.339  14.502   2.352  1.00 85.44    -0.327 OA
HETATM   22  C12   D T9001       8.155  13.620   3.128  1.00 84.41     0.181 C 
ENDBRANCH   2  21
TORSDOF 3
ENDMDL
MODEL 3
REMARK VINA RESULT:    -7.821      2.081      3.412
REMARK INTER + INTRA:          -9.753
REMARK INTER:                  -9.237
REMARK INTRA:                  -0.516
REMARK UNBOUND:                -0.560
REMARK  3 active torsions:
REMARK  status: ('A' for Active; 'I' for Inactive)
REMARK    1  A    between atoms: C2_2  and  O11_20 
REMARK    2  A    between atoms: C10_10  and  N14_11 
REMARK    3  A    between atoms: N14_11  and  C15_12 
ROOT
HETATM    1  C1    D T9001       5.100  13.488   2.024  1.00 83.47     0.092 A 
HETATM    2  C2    D T9001       6.102  14.455   1.683  1.00 83.68     0.109 A 
HETATM    3  C3    D T9001       5.895  15.334   0.568  1.00 82.47     0.044 A 
HETATM    4  C4    D T9001       4.737  15.288  -0.219  1.00 82.50     0.088 A 
HETATM    5  C5    D T9001       3.715  14.318   0.105  1.00 84.12     0.055 A 
HETATM    6  C6    D T9001       3.919  13.428   1.232  1.00 83.53     0.021 A 
HETATM    7  N7    D T9001       4.629  16.162  -1.256  1.00 81.78    -0.224 NA
HETATM    8  C8    D T9001       3.496  16.103  -2.001  1.00 83.59     0.200 A 
HETATM    9  N9    D T9001       2.464  15.248  -1.809  1.00 84.30    -0.205 NA
HETATM   10  C10   D T9001       2.561  14.347  -0.755  1.00 85.59     0.166 A 
HETATM   11  N13   D T9001       5.265  12.606   3.117  1.00 82.67    -0.099 NA
ENDROOT
BRANCH  10  12
HETATM   12  N14   D T9001       1.483  13.421  -0.523  1.00 86.44    -0.227 NA
BRANCH  12  13
HETATM   13  C15   D T9001       0.107  13.744  -0.356  1.00 87.38     0.084 A 
HETATM   14  C16   D T9001      -0.847  13.522  -1.403  1.00 88.13     0.033 A 
HETATM   15  C17   D T9001      -2.211  13.850  -1.233  1.00 88.88     0.087 A 
HETATM   16  C18   D T9001      -2.646  14.414  -0.002  1.00 88.55     0.151 A 
HETATM   17 CL     D T9001      -3.317  13.564  -2.533  1.00 89.26    -0.080 Cl
HETATM   18  C19   D T9001      -1.723  14.644   1.058  1.00 87.62     0.032 A 
HETATM   19  F21   D T9001      -3.938  14.735   0.174  1.00 88.92    -0.203 F 
HETATM   20  C20   D T9001      -0.350  14.313   0.880  1.00 87.82     0.021 A 
ENDBRANCH  12  13
ENDBRANCH  10  12
BRANCH   2  21
HETATM   21  O11   D T9001       7.229  14.460   2.500  1.00 85.44    -0.327 OA
HETATM   22  C12   D T9001       8.466  13.999   1.946  1.00 84.41     0.181 C 
ENDBRANCH   2  21
TORSDOF 3
ENDMDL
MODEL 4
REMARK VINA RESULT:    -7.540      4.180      5.957
REMARK INTER + INTRA:          -9.422
REMARK INTER:                  -8.860
REMARK INTRA:                  -0.563
REMARK UNBOUND:                -0.560
REMARK  3 active torsions:
REMARK  status: ('A' for Active; 'I' for Inactive)
REMARK    1  A    between atoms: C2_2  and  O11_20 
REMARK    2  A    between atoms: C10_10  and  N14_11 
REMARK    3  A    between atoms: N14_11  and  C15_12 
ROOT
HETATM    1  C1    D T9001       2.823  17.752  -3.132  1.00 83.47     0.092 A 
HETATM    2  C2    D T9001       1.464  18.174  -3.308  1.00 83.68     0.109 A 
HETATM    3  C3    D T9001       0.391  17.272  -3.004  1.00 82.47     0.044 A 
HETATM    4  C4    D T9001       0.615  15.971  -2.533  1.00 82.50     0.088 A 
HETATM    5  C5    D T9001       1.977  15.524  -2.350  1.00 84.12     0.055 A 
HETATM    6  C6    D T9001       3.065  16.432  -2.655  1.00 83.53     0.021 A 
HETATM    7  N7    D T9001      -0.466  15.188  -2.270  1.00 81.78    -0.224 NA
HETATM    8  C8    D T9001      -0.226  13.934  -1.809  1.00 83.59     0.200 A 
HETATM    9  N9    D T9001       0.995  13.389  -1.593  1.00 84.30    -0.205 NA
HETATM   10  C10   D T9001       2.109  14.177  -1.860  1.00 85.59     0.166 A 
HETATM   11  N13   D T9001       3.908  18.612  -3.418  1.00 82.67    -0.099 NA
ENDROOT
BRANCH  10  12
HETATM   12  N14   D T9001       3.423  13.628  -1.644  1.00 86.44    -0.227 NA
BRANCH  12  13
HETATM   13  C15   D T9001       4.174  13.674  -0.436  1.00 87.38     0.084 A 
HETATM   14  C16   D T9001       5.605  13.578  -0.440  1.00 88.13     0.033 A 
HETATM   15  C17   D T9001       6.346  13.618   0.763  1.00 88.88     0.087 A 
HETATM   16  C18   D T9001       5.660  13.754   2.000  1.00 88.55     0.151 A 
HETATM   17 CL     D T9001       8.071  13.493   0.697  1.00 89.26    -0.080 Cl
HETATM   18  C19   D T9001       4.240  13.854   2.038  1.00 87.62     0.032 A 
HETATM   19  F21   D T9001       6.348  13.790   3.153  1.00 88.92    -0.203 F 
HETATM   20  C20   D T9001       3.499  13.812   0.823  1.00 87.82     0.021 A 
ENDBRANCH  12  13
ENDBRANCH  10  12
BRANCH   2  21
HETATM   21  O11   D T9001       1.300  19.476  -3.774  1.00 85.44    -0.327 OA
HETATM   22  C12   D T9001       0.491  20.371  -3.004  1.00 84.41     0.181 C 
ENDBRANCH   2  21
TORSDOF 3
ENDMDL
MODEL 5
REMARK VINA RESULT:    -7.521      3.701      5.125
REMARK INTER + INTRA:          -9.400
REMARK INTER:                  -8.801
REMARK INTRA:                  -0.599
REMARK UNBOUND:                -0.560
REMARK  3 active torsions:
REMARK  status: ('A' for Active; 'I' for Inactive)
REMARK    1  A    between atoms: C2_2  and  O11_20 
REMARK    2  A    between atoms: C10_10  and  N14_11 
REMARK    3  A    between atoms: N14_11  and  C15_12 
ROOT
HETATM    1  C1    D T9001       5.124  14.098   0.230  1.00 83.47     0.092 A 
HETATM    2  C2    D T9001       4.881  13.732   1.594  1.00 83.68     0.109 A 
HETATM    3  C3    D T9001       3.548  13.410   2.019  1.00 82.47     0.044 A 
HETATM    4  C4    D T9001       2.454  13.437   1.145  1.00 82.50     0.088 A 
HETATM    5  C5    D T9001       2.677  13.806  -0.235  1.00 84.12     0.055 A 
HETATM    6  C6    D T9001       4.021  14.132  -0.670  1.00 83.53     0.021 A 
HETATM    7  N7    D T9001       1.228  13.114   1.639  1.00 81.78    -0.224 NA
HETATM    8  C8    D T9001       0.184  13.142   0.772  1.00 83.59     0.200 A 
HETATM    9  N9    D T9001       0.251  13.468  -0.540  1.00 84.30    -0.205 NA
HETATM   10  C10   D T9001       1.497  13.803  -1.058  1.00 85.59     0.166 A 
HETATM   11  N13   D T9001       6.423  14.420  -0.230  1.00 82.67    -0.099 NA
ENDROOT
BRANCH  10  12
HETATM   12  N14   D T9001       1.604  14.158  -2.450  1.00 86.44    -0.227 NA
BRANCH  12  13
HETATM   13  C15   D T9001       1.604  15.473  -2.994  1.00 87.38     0.084 A 
HETATM   14  C16   D T9001       2.692  15.953  -3.795  1.00 88.13     0.033 A 
HETATM   15  C17   D T9001       2.689  17.262  -4.327  1.00 88.88     0.087 A 
HETATM   16  C18   D T9001       1.588  18.120  -4.062  1.00 88.55     0.151 A 
HETATM   17 CL     D T9001       4.033  17.788  -5.282  1.00 89.26    -0.080 Cl
HETATM   18  C19   D T9001       0.490  17.673  -3.273  1.00 87.62     0.032 A 
HETATM   19  F21   D T9001       1.571  19.369  -4.557  1.00 88.92    -0.203 F 
HETATM   20  C20   D T9001       0.499  16.353  -2.738  1.00 87.82     0.021 A 
ENDBRANCH  12  13
ENDBRANCH  10  12
BRANCH   2  21
HETATM   21  O11   D T9001       6.003  13.718   2.418  1.00 85.44    -0.327 OA
HETATM   22  C12   D T9001       6.170  12.612   3.312  1.00 84.41     0.181 C 
ENDBRANCH   2  21
TORSDOF 3
ENDMDL
MODEL 6
REMARK VINA RESULT:    -7.473      5.199      7.587
REMARK INTER + INTRA:          -9.343
REMARK INTER:                  -8.774
REMARK INTRA:                  -0.569
REMARK UNBOUND:                -0.560
REMARK  3 active torsions:
REMARK  status: ('A' for Active; 'I' for Inactive)
REMARK    1  A    between atoms: C2_2  and  O11_20 
REMARK    2  A    between atoms: C10_10  and  N14_11 
REMARK    3  A    between atoms: N14_11  and  C15_12 
ROOT
HETATM    1  C1    D T9001       1.887  14.480  -0.931  1.00 83.47     0.092 A 
HETATM    2  C2    D T9001       0.761  13.593  -0.975  1.00 83.68     0.109 A 
HETATM    3  C3    D T9001       0.605  12.588   0.038  1.00 82.47     0.044 A 
HETATM    4  C4    D T9001       1.520  12.431   1.087  1.00 82.50     0.088 A 
HETATM    5  C5    D T9001       2.664  13.313   1.149  1.00 84.12     0.055 A 
HETATM    6  C6    D T9001       2.826  14.331   0.129  1.00 83.53     0.021 A 
HETATM    7  N7    D T9001       1.288  11.451   2.001  1.00 81.78    -0.224 NA
HETATM    8  C8    D T9001       2.184  11.320   3.012  1.00 83.59     0.200 A 
HETATM    9  N9    D T9001       3.294  12.075   3.190  1.00 84.30    -0.205 NA
HETATM   10  C10   D T9001       3.546  13.079   2.262  1.00 85.59     0.166 A 
HETATM   11  N13   D T9001       2.076  15.485  -1.908  1.00 82.67    -0.099 NA
ENDROOT
BRANCH  10  12
HETATM   12  N14   D T9001       4.719  13.900   2.419  1.00 86.44    -0.227 NA
BRANCH  12  13
HETATM   13  C15   D T9001       6.061  13.528   2.126  1.00 87.38     0.084 A 
HETATM   14  C16   D T9001       6.908  12.934   3.119  1.00 88.13     0.033 A 
HETATM   15  C17   D T9001       8.242  12.572   2.824  1.00 88.88     0.087 A 
HETATM   16  C18   D T9001       8.755  12.804   1.519  1.00 88.55     0.151 A 
HETATM   17 CL     D T9001       9.219  11.862   4.064  1.00 89.26    -0.080 Cl
HETATM   18  C19   D T9001       7.939  13.390   0.510  1.00 87.62     0.032 A 
HETATM   19  F21   D T9001      10.022  12.469   1.222  1.00 88.92    -0.203 F 
HETATM   20  C20   D T9001       6.596  13.753   0.813  1.00 87.82     0.021 A 
ENDBRANCH  12  13
ENDBRANCH  10  12
BRANCH   2  21
HETATM   21  O11   D T9001      -0.117  13.796  -2.035  1.00 85.44    -0.327 OA
HETATM   22  C12   D T9001      -1.483  14.099  -1.731  1.00 84.41     0.181 C 
ENDBRANCH   2  21
TORSDOF 3
ENDMDL
MODEL 7
REMARK VINA RESULT:    -7.415      3.580      4.999
REMARK INTER + INTRA:          -9.276
REMARK INTER:                  -8.708
REMARK INTRA:                  -0.567
REMARK UNBOUND:                -0.560
REMARK  3 active torsions:
REMARK  status: ('A' for Active; 'I' for Inactive)
REMARK    1  A    between atoms: C2_2  and  O11_20 
REMARK    2  A    between atoms: C10_10  and  N14_11 
REMARK    3  A    between atoms: N14_11  and  C15_12 
ROOT
HETATM    1  C1    D T9001       4.873  15.991  -5.081  1.00 83.47     0.092 A 
HETATM    2  C2    D T9001       4.645  17.317  -5.579  1.00 83.68     0.109 A 
HETATM    3  C3    D T9001       3.451  18.022  -5.209  1.00 82.47     0.044 A 
HETATM    4  C4    D T9001       2.480  17.464  -4.368  1.00 82.50     0.088 A 
HETATM    5  C5    D T9001       2.689  16.128  -3.857  1.00 84.12     0.055 A 
HETATM    6  C6    D T9001       3.893  15.411  -4.226  1.00 83.53     0.021 A 
HETATM    7  N7    D T9001       1.381  18.210  -4.072  1.00 81.78    -0.224 NA
HETATM    8  C8    D T9001       0.456  17.651  -3.251  1.00 83.59     0.200 A 
HETATM    9  N9    D T9001       0.525  16.415  -2.703  1.00 84.30    -0.205 NA
HETATM   10  C10   D T9001       1.641  15.640  -2.999  1.00 85.59     0.166 A 
HETATM   11  N13   D T9001       6.038  15.264  -5.419  1.00 82.67    -0.099 NA
ENDROOT
BRANCH  10  12
HETATM   12  N14   D T9001       1.745  14.319  -2.436  1.00 86.44    -0.227 NA
BRANCH  12  13
HETATM   13  C15   D T9001       2.107  13.991  -1.099  1.00 87.38     0.084 A 
HETATM   14  C16   D T9001       1.390  13.001  -0.350  1.00 88.13     0.033 A 
HETATM   15  C17   D T9001       1.749  12.684   0.979  1.00 88.88     0.087 A 
HETATM   16  C18   D T9001       2.841  13.362   1.587  1.00 88.55     0.151 A 
HETATM   17 CL     D T9001       0.845  11.483   1.836  1.00 89.26    -0.080 Cl
HETATM   18  C19   D T9001       3.575  14.349   0.869  1.00 87.62     0.032 A 
HETATM   19  F21   D T9001       3.194  13.076   2.851  1.00 88.92    -0.203 F 
HETATM   20  C20   D T9001       3.207  14.665  -0.470  1.00 87.82     0.021 A 
ENDBRANCH  12  13
ENDBRANCH  10  12
BRANCH   2  21
HETATM   21  O11   D T9001       5.644  17.823  -6.406  1.00 85.44    -0.327 OA
HETATM   22  C12   D T9001       5.329  18.045  -7.785  1.00 84.41     0.181 C 
ENDBRANCH   2  21
TORSDOF 3
ENDMDL
MODEL 8
REMARK VINA RESULT:    -7.318      4.445      7.220
REMARK INTER + INTRA:          -9.162
REMARK INTER:                  -8.671
REMARK INTRA:                  -0.491
REMARK UNBOUND:                -0.560
REMARK  3 active torsions:
REMARK  status: ('A' for Active; 'I' for Inactive)
REMARK    1  A    between atoms: C2_2  and  O11_20 
REMARK    2  A    between atoms: C10_10  and  N14_11 
REMARK    3  A    between atoms: N14_11  and  C15_12 
ROOT
HETATM    1  C1    D T9001       0.717  13.339   0.538  1.00 83.47     0.092 A 
HETATM    2  C2    D T9001      -0.300  14.188  -0.010  1.00 83.68     0.109 A 
HETATM    3  C3    D T9001       0.003  15.031  -1.132  1.00 82.47     0.044 A 
HETATM    4  C4    D T9001       1.271  15.063  -1.726  1.00 82.50     0.088 A 
HETATM    5  C5    D T9001       2.312  14.216  -1.188  1.00 84.12     0.055 A 
HETATM    6  C6    D T9001       2.012  13.362  -0.055  1.00 83.53     0.021 A 
HETATM    7  N7    D T9001       1.463  15.893  -2.787  1.00 81.78    -0.224 NA
HETATM    8  C8    D T9001       2.698  15.903  -3.350  1.00 83.59     0.200 A 
HETATM    9  N9    D T9001       3.759  15.165  -2.949  1.00 84.30    -0.205 NA
HETATM   10  C10   D T9001       3.578  14.314  -1.864  1.00 85.59     0.166 A 
HETATM   11  N13   D T9001       0.459  12.491   1.641  1.00 82.67    -0.099 NA
ENDROOT
BRANCH  10  12
HETATM   12  N14   D T9001       4.687  13.515  -1.408  1.00 86.44    -0.227 NA
BRANCH  12  13
HETATM   13  C15   D T9001       5.534  13.793  -0.299  1.00 87.38     0.084 A 
HETATM   14  C16   D T9001       5.352  13.140   0.965  1.00 88.13     0.033 A 
HETATM   15  C17   D T9001       6.192  13.424   2.064  1.00 88.88     0.087 A 
HETATM   16  C18   D T9001       7.237  14.376   1.917  1.00 88.55     0.151 A 
HETATM   17 CL     D T9001       5.922  12.608   3.567  1.00 89.26    -0.080 Cl
HETATM   18  C19   D T9001       7.445  15.040   0.674  1.00 87.62     0.032 A 
HETATM   19  F21   D T9001       8.042  14.661   2.953  1.00 88.92    -0.203 F 
HETATM   20  C20   D T9001       6.595  14.751  -0.430  1.00 87.82     0.021 A 
ENDBRANCH  12  13
ENDBRANCH  10  12
BRANCH   2  21
HETATM   21  O11   D T9001      -1.541  14.113   0.617  1.00 85.44    -0.327 OA
HETATM   22  C12   D T9001      -2.713  14.132  -0.205  1.00 84.41     0.181 C 
ENDBRANCH   2  21
TORSDOF 3
ENDMDL
MODEL 9
REMARK VINA RESULT:    -7.103      1.676      2.096
REMARK INTER + INTRA:          -8.909
REMARK INTER:                  -8.308
REMARK INTRA:                  -0.601
REMARK UNBOUND:                -0.560
REMARK  3 active torsions:
REMARK  status: ('A' for Active; 'I' for Inactive)
REMARK    1  A    between atoms: C2_2  and  O11_20 
REMARK    2  A    between atoms: C10_10  and  N14_11 
REMARK    3  A    between atoms: N14_11  and  C15_12 
ROOT
HETATM    1  C1    D T9001       3.971  16.391  -3.540  1.00 83.47     0.092 A 
HETATM    2  C2    D T9001       5.045  17.215  -3.068  1.00 83.68     0.109 A 
HETATM    3  C3    D T9001       5.531  17.055  -1.728  1.00 82.47     0.044 A 
HETATM    4  C4    D T9001       4.995  16.111  -0.842  1.00 82.50     0.088 A 
HETATM    5  C5    D T9001       3.910  15.271  -1.297  1.00 84.12     0.055 A 
HETATM    6  C6    D T9001       3.414  15.429  -2.650  1.00 83.53     0.021 A 
HETATM    7  N7    D T9001       5.523  16.030   0.409  1.00 81.78    -0.224 NA
HETATM    8  C8    D T9001       4.991  15.105   1.248  1.00 83.59     0.200 A 
HETATM    9  N9    D T9001       3.977  14.258   0.953  1.00 84.30    -0.205 NA
HETATM   10  C10   D T9001       3.425  14.331  -0.321  1.00 85.59     0.166 A 
HETATM   11  N13   D T9001       3.464  16.516  -4.855  1.00 82.67    -0.099 NA
ENDROOT
BRANCH  10  12
HETATM   12  N14   D T9001       2.343  13.445  -0.667  1.00 86.44    -0.227 NA
BRANCH  12  13
HETATM   13  C15   D T9001       0.952  13.713  -0.535  1.00 87.38     0.084 A 
HETATM   14  C16   D T9001       0.392  14.179   0.700  1.00 88.13     0.033 A 
HETATM   15  C17   D T9001      -0.991  14.437   0.828  1.00 88.88     0.087 A 
HETATM   16  C18   D T9001      -1.845  14.229  -0.289  1.00 88.55     0.151 A 
HETATM   17 CL     D T9001      -1.610  14.995   2.345  1.00 89.26    -0.080 Cl
HETATM   18  C19   D T9001      -1.321  13.769  -1.530  1.00 87.62     0.032 A 
HETATM   19  F21   D T9001      -3.164  14.466  -0.184  1.00 88.92    -0.203 F 
HETATM   20  C20   D T9001       0.074  13.509  -1.652  1.00 87.82     0.021 A 
ENDBRANCH  12  13
ENDBRANCH  10  12
BRANCH   2  21
HETATM   21  O11   D T9001       5.543  18.132  -3.990  1.00 85.44    -0.327 OA
HETATM   22  C12   D T9001       6.861  17.921  -4.506  1.00 84.41     0.181 C 
ENDBRANCH   2  21
TORSDOF 3
ENDMDL
