MODEL 1
REMARK VINA RESULT:    -7.472      0.000      0.000
REMARK INTER + INTRA:          -9.271
REMARK INTER:                  -8.782
REMARK INTRA:                  -0.489
REMARK UNBOUND:                -0.489
REMARK  3 active torsions:
REMARK  status: ('A' for Active; 'I' for Inactive)
REMARK    1  A    between atoms: C2_2  and  O11_20 
REMARK    2  A    between atoms: C10_10  and  N14_11 
REMARK    3  A    between atoms: N14_11  and  C15_12 
ROOT
HETATM    1  C1    D T9001      -1.014  -1.048  10.407  1.00 83.47     0.092 A 
HETATM    2  C2    D T9001      -0.993  -2.480  10.355  1.00 83.68     0.109 A 
HETATM    3  C3    D T9001      -1.964  -3.181   9.565  1.00 82.47     0.044 A 
HETATM    4  C4    D T9001      -2.950  -2.515   8.825  1.00 82.50     0.088 A 
HETATM    5  C5    D T9001      -2.992  -1.070   8.865  1.00 84.12     0.055 A 
HETATM    6  C6    D T9001      -2.014  -0.358   9.662  1.00 83.53     0.021 A 
HETATM    7  N7    D T9001      -3.826  -3.264   8.103  1.00 81.78    -0.224 NA
HETATM    8  C8    D T9001      -4.772  -2.599   7.391  1.00 83.59     0.200 A 
HETATM    9  N9    D T9001      -4.924  -1.255   7.338  1.00 84.30    -0.205 NA
HETATM   10  C10   D T9001      -4.037  -0.476   8.073  1.00 85.59     0.166 A 
HETATM   11  N13   D T9001      -0.074  -0.319  11.173  1.00 82.67    -0.099 NA
ENDROOT
BRANCH  10  12
HETATM   12  N14   D T9001      -4.171   0.958   8.042  1.00 86.44    -0.227 NA
BRANCH  12  13
HETATM   13  C15   D T9001      -3.236   1.887   7.506  1.00 87.38     0.084 A 
HETATM   14  C16   D T9001      -3.051   3.185   8.085  1.00 88.13     0.033 A 
HETATM   15  C17   D T9001      -2.125   4.105   7.543  1.00 88.88     0.087 A 
HETATM   16  C18   D T9001      -1.364   3.737   6.402  1.00 88.55     0.151 A 
HETATM   17 CL     D T9001      -1.948   5.659   8.283  1.00 89.26    -0.080 Cl
HETATM   18  C19   D T9001      -1.522   2.454   5.804  1.00 87.62     0.032 A 
HETATM   19  F21   D T9001      -0.480   4.600   5.871  1.00 88.92    -0.203 F 
HETATM   20  C20   D T9001      -2.457   1.532   6.353  1.00 87.82     0.021 A 
ENDBRANCH  12  13
ENDBRANCH  10  12
BRANCH   2  21
HETATM   21  O11   D T9001       0.011  -3.088  11.104  1.00 85.44    -0.327 OA
HETATM   22  C12   D T9001      -0.046  -4.508  11.282  1.00 84.41     0.181 C 
ENDBRANCH   2  21
TORSDOF 3
ENDMDL
MODEL 2
REMARK VINA RESULT:    -7.394      2.469      3.630
REMARK INTER + INTRA:          -9.179
REMARK INTER:                  -8.584
REMARK INTRA:                  -0.595
REMARK UNBOUND:                -0.489
REMARK  3 active torsions:
REMARK  status: ('A' for Active; 'I' for Inactive)
REMARK    1  A    between atoms: C2_2  and  O11_20 
REMARK    2  A    between atoms: C10_10  and  N14_11 
REMARK    3  A    between atoms: N14_11  and  C15_12 
ROOT
HETATM    1  C1    D T9001      -2.209  -0.487   9.687  1.00 83.47     0.092 A 
HETATM    2  C2    D T9001      -3.119  -1.367   9.014  1.00 83.68     0.109 A 
HETATM    3  C3    D T9001      -3.911  -0.876   7.924  1.00 82.47     0.044 A 
HETATM    4  C4    D T9001      -3.834   0.450   7.478  1.00 82.50     0.088 A 
HETATM    5  C5    D T9001      -2.925   1.356   8.144  1.00 84.12     0.055 A 
HETATM    6  C6    D T9001      -2.122   0.865   9.246  1.00 83.53     0.021 A 
HETATM    7  N7    D T9001      -4.624   0.824   6.435  1.00 81.78    -0.224 NA
HETATM    8  C8    D T9001      -4.530   2.112   6.017  1.00 83.59     0.200 A 
HETATM    9  N9    D T9001      -3.724   3.061   6.548  1.00 84.30    -0.205 NA
HETATM   10  C10   D T9001      -2.913   2.695   7.616  1.00 85.59     0.166 A 
HETATM   11  N13   D T9001      -1.408  -0.932  10.765  1.00 82.67    -0.099 NA
ENDROOT
BRANCH  10  12
HETATM   12  N14   D T9001      -2.044   3.680   8.207  1.00 86.44    -0.227 NA
BRANCH  12  13
HETATM   13  C15   D T9001      -0.778   4.100   7.713  1.00 87.38     0.084 A 
HETATM   14  C16   D T9001       0.373   3.248   7.777  1.00 88.13     0.033 A 
HETATM   15  C17   D T9001       1.630   3.674   7.290  1.00 88.88     0.087 A 
HETATM   16  C18   D T9001       1.756   4.972   6.730  1.00 88.55     0.151 A 
HETATM   17 CL     D T9001       2.984   2.602   7.398  1.00 89.26    -0.080 Cl
HETATM   18  C19   D T9001       0.632   5.843   6.649  1.00 87.62     0.032 A 
HETATM   19  F21   D T9001       2.944   5.396   6.265  1.00 88.92    -0.203 F 
HETATM   20  C20   D T9001      -0.631   5.410   7.141  1.00 87.82     0.021 A 
ENDBRANCH  12  13
ENDBRANCH  10  12
BRANCH   2  21
HETATM   21  O11   D T9001      -3.150  -2.673   9.495  1.00 85.44    -0.327 OA
HETATM   22  C12   D T9001      -2.593  -3.707   8.676  1.00 84.41     0.181 C 
ENDBRANCH   2  21
TORSDOF 3
ENDMDL
MODEL 3
REMARK VINA RESULT:    -7.297      1.718      2.147
REMARK INTER + INTRA:          -9.065
REMARK INTER:                  -8.480
REMARK INTRA:                  -0.585
REMARK UNBOUND:                -0.489
REMARK  3 active torsions:
REMARK  status: ('A' for Active; 'I' for Inactive)
REMARK    1  A    between atoms: C2_2  and  O11_20 
REMARK    2  A    between atoms: C10_10  and  N14_11 
REMARK    3  A    between atoms: N14_11  and  C15_12 
ROOT
HETATM    1  C1    D T9001       0.175  -0.526   9.342  1.00 83.47     0.092 A 
HETATM    2  C2    D T9001      -0.499  -1.646   9.931  1.00 83.68     0.109 A 
HETATM    3  C3    D T9001      -1.881  -1.886   9.631  1.00 82.47     0.044 A 
HETATM    4  C4    D T9001      -2.616  -1.060   8.770  1.00 82.50     0.088 A 
HETATM    5  C5    D T9001      -1.957   0.077   8.167  1.00 84.12     0.055 A 
HETATM    6  C6    D T9001      -0.561   0.324   8.467  1.00 83.53     0.021 A 
HETATM    7  N7    D T9001      -3.921  -1.368   8.544  1.00 81.78    -0.224 NA
HETATM    8  C8    D T9001      -4.614  -0.557   7.704  1.00 83.59     0.200 A 
HETATM    9  N9    D T9001      -4.122   0.535   7.073  1.00 84.30    -0.205 NA
HETATM   10  C10   D T9001      -2.790   0.865   7.297  1.00 85.59     0.166 A 
HETATM   11  N13   D T9001       1.538  -0.256   9.610  1.00 82.67    -0.099 NA
ENDROOT
BRANCH  10  12
HETATM   12  N14   D T9001      -2.234   2.022   6.643  1.00 86.44    -0.227 NA
BRANCH  12  13
HETATM   13  C15   D T9001      -1.932   3.274   7.247  1.00 87.38     0.084 A 
HETATM   14  C16   D T9001      -2.790   3.857   8.237  1.00 88.13     0.033 A 
HETATM   15  C17   D T9001      -2.486   5.104   8.828  1.00 88.88     0.087 A 
HETATM   16  C18   D T9001      -1.311   5.795   8.433  1.00 88.55     0.151 A 
HETATM   17 CL     D T9001      -3.562   5.759  10.015  1.00 89.26    -0.080 Cl
HETATM   18  C19   D T9001      -0.436   5.243   7.454  1.00 87.62     0.032 A 
HETATM   19  F21   D T9001      -1.008   6.984   8.982  1.00 88.92    -0.203 F 
HETATM   20  C20   D T9001      -0.746   3.987   6.861  1.00 87.82     0.021 A 
ENDBRANCH  12  13
ENDBRANCH  10  12
BRANCH   2  21
HETATM   21  O11   D T9001       0.281  -2.435  10.774  1.00 85.44    -0.327 OA
HETATM   22  C12   D T9001      -0.226  -3.718  11.155  1.00 84.41     0.181 C 
ENDBRANCH   2  21
TORSDOF 3
ENDMDL
MODEL 4
REMARK VINA RESULT:    -7.239      2.050      2.566
REMARK INTER + INTRA:          -8.997
REMARK INTER:                  -8.630
REMARK INTRA:                  -0.367
REMARK UNBOUND:                -0.489
REMARK  3 active torsions:
REMARK  status: ('A' for Active; 'I' for Inactive)
REMARK    1  A    between atoms: C2_2  and  O11_20 
REMARK    2  A    between atoms: C10_10  and  N14_11 
REMARK    3  A    between atoms: N14_11  and  C15_12 
ROOT
HETATM    1  C1    D T9001       0.465  -1.725   9.435  1.00 83.47     0.092 A 
HETATM    2  C2    D T9001      -0.422  -2.784   9.818  1.00 83.68     0.109 A 
HETATM    3  C3    D T9001      -1.831  -2.654   9.587  1.00 82.47     0.044 A 
HETATM    4  C4    D T9001      -2.391  -1.516   8.992  1.00 82.50     0.088 A 
HETATM    5  C5    D T9001      -1.516  -0.433   8.601  1.00 84.12     0.055 A 
HETATM    6  C6    D T9001      -0.092  -0.560   8.832  1.00 83.53     0.021 A 
HETATM    7  N7    D T9001      -3.739  -1.483   8.811  1.00 81.78    -0.224 NA
HETATM    8  C8    D T9001      -4.261  -0.373   8.230  1.00 83.59     0.200 A 
HETATM    9  N9    D T9001      -3.560   0.709   7.817  1.00 84.30    -0.205 NA
HETATM   10  C10   D T9001      -2.181   0.692   7.997  1.00 85.59     0.166 A 
HETATM   11  N13   D T9001       1.862  -1.815   9.644  1.00 82.67    -0.099 NA
ENDROOT
BRANCH  10  12
HETATM   12  N14   D T9001      -1.404   1.827   7.571  1.00 86.44    -0.227 NA
BRANCH  12  13
HETATM   13  C15   D T9001      -1.444   3.138   8.123  1.00 87.38     0.084 A 
HETATM   14  C16   D T9001      -0.261   3.783   8.614  1.00 88.13     0.033 A 
HETATM   15  C17   D T9001      -0.311   5.083   9.167  1.00 88.88     0.087 A 
HETATM   16  C18   D T9001      -1.554   5.763   9.239  1.00 88.55     0.151 A 
HETATM   17 CL     D T9001       1.150   5.808   9.748  1.00 89.26    -0.080 Cl
HETATM   18  C19   D T9001      -2.747   5.152   8.758  1.00 87.62     0.032 A 
HETATM   19  F21   D T9001      -1.621   6.998   9.765  1.00 88.92    -0.203 F 
HETATM   20  C20   D T9001      -2.694   3.843   8.203  1.00 87.82     0.021 A 
ENDBRANCH  12  13
ENDBRANCH  10  12
BRANCH   2  21
HETATM   21  O11   D T9001       0.190  -3.892  10.399  1.00 85.44    -0.327 OA
HETATM   22  C12   D T9001       0.006  -4.105  11.802  1.00 84.41     0.181 C 
ENDBRANCH   2  21
TORSDOF 3
ENDMDL
MODEL 5
REMARK VINA RESULT:    -7.203      2.274      3.488
REMARK INTER + INTRA:          -8.954
REMARK INTER:                  -8.354
REMARK INTRA:                  -0.600
REMARK UNBOUND:                -0.489
REMARK  3 active torsions:
REMARK  status: ('A' for Active; 'I' for Inactive)
REMARK    1  A    between atoms: C2_2  and  O11_20 
REMARK    2  A    between atoms: C10_10  and  N14_11 
REMARK    3  A    between atoms: N14_11  and  C15_12 
ROOT
HETATM    1  C1    D T9001      -1.208  -0.357   8.615  1.00 83.47     0.092 A 
HETATM    2  C2    D T9001      -2.457  -1.040   8.783  1.00 83.68     0.109 A 
HETATM    3  C3    D T9001      -3.621  -0.584   8.079  1.00 82.47     0.044 A 
HETATM    4  C4    D T9001      -3.590   0.520   7.217  1.00 82.50     0.088 A 
HETATM    5  C5    D T9001      -2.342   1.226   7.035  1.00 84.12     0.055 A 
HETATM    6  C6    D T9001      -1.164   0.770   7.743  1.00 83.53     0.021 A 
HETATM    7  N7    D T9001      -4.744   0.878   6.591  1.00 81.78    -0.224 NA
HETATM    8  C8    D T9001      -4.692   1.948   5.757  1.00 83.59     0.200 A 
HETATM    9  N9    D T9001      -3.594   2.695   5.495  1.00 84.30    -0.205 NA
HETATM   10  C10   D T9001      -2.408   2.344   6.130  1.00 85.59     0.166 A 
HETATM   11  N13   D T9001      -0.037  -0.776   9.290  1.00 82.67    -0.099 NA
ENDROOT
BRANCH  10  12
HETATM   12  N14   D T9001      -1.220   3.119   5.876  1.00 86.44    -0.227 NA
BRANCH  12  13
HETATM   13  C15   D T9001      -0.740   4.214   6.648  1.00 87.38     0.084 A 
HETATM   14  C16   D T9001      -1.496   4.748   7.744  1.00 88.13     0.033 A 
HETATM   15  C17   D T9001      -1.016   5.840   8.502  1.00 88.88     0.087 A 
HETATM   16  C18   D T9001       0.237   6.420   8.173  1.00 88.55     0.151 A 
HETATM   17 CL     D T9001      -1.974   6.444   9.810  1.00 89.26    -0.080 Cl
HETATM   18  C19   D T9001       1.013   5.911   7.092  1.00 87.62     0.032 A 
HETATM   19  F21   D T9001       0.708   7.461   8.881  1.00 88.92    -0.203 F 
HETATM   20  C20   D T9001       0.526   4.813   6.330  1.00 87.82     0.021 A 
ENDBRANCH  12  13
ENDBRANCH  10  12
BRANCH   2  21
HETATM   21  O11   D T9001      -2.427  -2.132   9.647  1.00 85.44    -0.327 OA
HETATM   22  C12   D T9001      -2.552  -3.442   9.082  1.00 84.41     0.181 C 
ENDBRANCH   2  21
TORSDOF 3
ENDMDL
MODEL 6
REMARK VINA RESULT:    -7.185      3.785      6.371
REMARK INTER + INTRA:          -8.934
REMARK INTER:                  -8.503
REMARK INTRA:                  -0.431
REMARK UNBOUND:                -0.489
REMARK  3 active torsions:
REMARK  status: ('A' for Active; 'I' for Inactive)
REMARK    1  A    between atoms: C2_2  and  O11_20 
REMARK    2  A    between atoms: C10_10  and  N14_11 
REMARK    3  A    between atoms: N14_11  and  C15_12 
ROOT
HETATM    1  C1    D T9001      -0.814   4.008   9.269  1.00 83.47     0.092 A 
HETATM    2  C2    D T9001      -0.854   4.961   8.198  1.00 83.68     0.109 A 
HETATM    3  C3    D T9001      -1.719   4.738   7.076  1.00 82.47     0.044 A 
HETATM    4  C4    D T9001      -2.544   3.610   6.978  1.00 82.50     0.088 A 
HETATM    5  C5    D T9001      -2.518   2.634   8.044  1.00 84.12     0.055 A 
HETATM    6  C6    D T9001      -1.646   2.854   9.180  1.00 83.53     0.021 A 
HETATM    7  N7    D T9001      -3.333   3.486   5.876  1.00 81.78    -0.224 NA
HETATM    8  C8    D T9001      -4.127   2.387   5.803  1.00 83.59     0.200 A 
HETATM    9  N9    D T9001      -4.202   1.400   6.726  1.00 84.30    -0.205 NA
HETATM   10  C10   D T9001      -3.400   1.512   7.856  1.00 85.59     0.166 A 
HETATM   11  N13   D T9001       0.024   4.191  10.394  1.00 82.67    -0.099 NA
ENDROOT
BRANCH  10  12
HETATM   12  N14   D T9001      -3.453   0.479   8.859  1.00 86.44    -0.227 NA
BRANCH  12  13
HETATM   13  C15   D T9001      -2.623  -0.675   8.933  1.00 87.38     0.084 A 
HETATM   14  C16   D T9001      -1.194  -0.577   8.863  1.00 88.13     0.033 A 
HETATM   15  C17   D T9001      -0.376  -1.727   8.931  1.00 88.88     0.087 A 
HETATM   16  C18   D T9001      -0.980  -3.005   9.068  1.00 88.55     0.151 A 
HETATM   17 CL     D T9001       1.343  -1.547   8.838  1.00 89.26    -0.080 Cl
HETATM   18  C19   D T9001      -2.396  -3.136   9.143  1.00 87.62     0.032 A 
HETATM   19  F21   D T9001      -0.218  -4.111   9.131  1.00 88.92    -0.203 F 
HETATM   20  C20   D T9001      -3.216  -1.975   9.074  1.00 87.82     0.021 A 
ENDBRANCH  12  13
ENDBRANCH  10  12
BRANCH   2  21
HETATM   21  O11   D T9001      -0.018   6.064   8.352  1.00 85.44    -0.327 OA
HETATM   22  C12   D T9001       0.940   6.332   7.322  1.00 84.41     0.181 C 
ENDBRANCH   2  21
TORSDOF 3
ENDMDL
MODEL 7
REMARK VINA RESULT:    -7.088      2.963      4.087
REMARK INTER + INTRA:          -8.820
REMARK INTER:                  -8.493
REMARK INTRA:                  -0.327
REMARK UNBOUND:                -0.489
REMARK  3 active torsions:
REMARK  status: ('A' for Active; 'I' for Inactive)
REMARK    1  A    between atoms: C2_2  and  O11_20 
REMARK    2  A    between atoms: C10_10  and  N14_11 
REMARK    3  A    between atoms: N14_11  and  C15_12 
ROOT
HETATM    1  C1    D T9001      -1.598  -2.210   9.523  1.00 83.47     0.092 A 
HETATM    2  C2    D T9001      -0.252  -2.703   9.462  1.00 83.68     0.109 A 
HETATM    3  C3    D T9001       0.819  -1.813   9.117  1.00 82.47     0.044 A 
HETATM    4  C4    D T9001       0.605  -0.457   8.834  1.00 82.50     0.088 A 
HETATM    5  C5    D T9001      -0.744   0.060   8.887  1.00 84.12     0.055 A 
HETATM    6  C6    D T9001      -1.829  -0.834   9.234  1.00 83.53     0.021 A 
HETATM    7  N7    D T9001       1.683   0.310   8.519  1.00 81.78    -0.224 NA
HETATM    8  C8    D T9001       1.455   1.622   8.252  1.00 83.59     0.200 A 
HETATM    9  N9    D T9001       0.248   2.235   8.266  1.00 84.30    -0.205 NA
HETATM   10  C10   D T9001      -0.864   1.462   8.583  1.00 85.59     0.166 A 
HETATM   11  N13   D T9001      -2.681  -3.055   9.861  1.00 82.67    -0.099 NA
ENDROOT
BRANCH  10  12
HETATM   12  N14   D T9001      -2.165   2.082   8.606  1.00 86.44    -0.227 NA
BRANCH  12  13
HETATM   13  C15   D T9001      -3.110   2.108   7.543  1.00 87.38     0.084 A 
HETATM   14  C16   D T9001      -3.721   0.908   7.051  1.00 88.13     0.033 A 
HETATM   15  C17   D T9001      -4.654   0.941   5.991  1.00 88.88     0.087 A 
HETATM   16  C18   D T9001      -4.993   2.186   5.398  1.00 88.55     0.151 A 
HETATM   17 CL     D T9001      -5.355  -0.542   5.437  1.00 89.26    -0.080 Cl
HETATM   18  C19   D T9001      -4.406   3.397   5.865  1.00 87.62     0.032 A 
HETATM   19  F21   D T9001      -5.876   2.237   4.387  1.00 88.92    -0.203 F 
HETATM   20  C20   D T9001      -3.466   3.359   6.933  1.00 87.82     0.021 A 
ENDBRANCH  12  13
ENDBRANCH  10  12
BRANCH   2  21
HETATM   21  O11   D T9001      -0.099  -4.055   9.758  1.00 85.44    -0.327 OA
HETATM   22  C12   D T9001       0.268  -4.415  11.094  1.00 84.41     0.181 C 
ENDBRANCH   2  21
TORSDOF 3
ENDMDL
MODEL 8
REMARK VINA RESULT:    -7.065      4.134      6.701
REMARK INTER + INTRA:          -8.792
REMARK INTER:                  -8.566
REMARK INTRA:                  -0.226
REMARK UNBOUND:                -0.489
REMARK  3 active torsions:
REMARK  status: ('A' for Active; 'I' for Inactive)
REMARK    1  A    between atoms: C2_2  and  O11_20 
REMARK    2  A    between atoms: C10_10  and  N14_11 
REMARK    3  A    between atoms: N14_11  and  C15_12 
ROOT
HETATM    1  C1    D T9001       1.792   3.098   8.175  1.00 83.47     0.092 A 
HETATM    2  C2    D T9001       1.673   4.254   7.335  1.00 83.68     0.109 A 
HETATM    3  C3    D T9001       0.374   4.726   6.952  1.00 82.47     0.044 A 
HETATM    4  C4    D T9001      -0.807   4.098   7.371  1.00 82.50     0.088 A 
HETATM    5  C5    D T9001      -0.709   2.929   8.216  1.00 84.12     0.055 A 
HETATM    6  C6    D T9001       0.600   2.447   8.606  1.00 83.53     0.021 A 
HETATM    7  N7    D T9001      -1.993   4.620   6.959  1.00 81.78    -0.224 NA
HETATM    8  C8    D T9001      -3.124   3.998   7.379  1.00 83.59     0.200 A 
HETATM    9  N9    D T9001      -3.178   2.900   8.169  1.00 84.30    -0.205 NA
HETATM   10  C10   D T9001      -1.973   2.354   8.597  1.00 85.59     0.166 A 
HETATM   11  N13   D T9001       3.055   2.601   8.577  1.00 82.67    -0.099 NA
ENDROOT
BRANCH  10  12
HETATM   12  N14   D T9001      -1.993   1.184   9.437  1.00 86.44    -0.227 NA
BRANCH  12  13
HETATM   13  C15   D T9001      -2.547  -0.086   9.112  1.00 87.38     0.084 A 
HETATM   14  C16   D T9001      -3.640  -0.214   8.192  1.00 88.13     0.033 A 
HETATM   15  C17   D T9001      -4.190  -1.478   7.880  1.00 88.88     0.087 A 
HETATM   16  C18   D T9001      -3.653  -2.642   8.488  1.00 88.55     0.151 A 
HETATM   17 CL     D T9001      -5.511  -1.569   6.765  1.00 89.26    -0.080 Cl
HETATM   18  C19   D T9001      -2.566  -2.549   9.404  1.00 87.62     0.032 A 
HETATM   19  F21   D T9001      -4.166  -3.852   8.205  1.00 88.92    -0.203 F 
HETATM   20  C20   D T9001      -2.016  -1.275   9.717  1.00 87.82     0.021 A 
ENDBRANCH  12  13
ENDBRANCH  10  12
BRANCH   2  21
HETATM   21  O11   D T9001       2.877   4.840   6.954  1.00 85.44    -0.327 OA
HETATM   22  C12   D T9001       2.830   6.115   6.304  1.00 84.41     0.181 C 
ENDBRANCH   2  21
TORSDOF 3
ENDMDL
MODEL 9
REMARK VINA RESULT:    -6.966      4.019      6.890
REMARK INTER + INTRA:          -8.677
REMARK INTER:                  -8.088
REMARK INTRA:                  -0.589
REMARK UNBOUND:                -0.489
REMARK  3 active torsions:
REMARK  status: ('A' for Active; 'I' for Inactive)
REMARK    1  A    between atoms: C2_2  and  O11_20 
REMARK    2  A    between atoms: C10_10  and  N14_11 
REMARK    3  A    between atoms: N14_11  and  C15_12 
ROOT
HETATM    1  C1    D T9001      -0.723   3.575   7.463  1.00 83.47     0.092 A 
HETATM    2  C2    D T9001       0.632   3.985   7.238  1.00 83.68     0.109 A 
HETATM    3  C3    D T9001       1.698   3.360   7.966  1.00 82.47     0.044 A 
HETATM    4  C4    D T9001       1.470   2.346   8.906  1.00 82.50     0.088 A 
HETATM    5  C5    D T9001       0.110   1.919   9.152  1.00 84.12     0.055 A 
HETATM    6  C6    D T9001      -0.970   2.548   8.419  1.00 83.53     0.021 A 
HETATM    7  N7    D T9001       2.544   1.811   9.547  1.00 81.78    -0.224 NA
HETATM    8  C8    D T9001       2.301   0.828  10.451  1.00 83.59     0.200 A 
HETATM    9  N9    D T9001       1.083   0.334  10.776  1.00 84.30    -0.205 NA
HETATM   10  C10   D T9001      -0.025   0.873  10.131  1.00 85.59     0.166 A 
HETATM   11  N13   D T9001      -1.802   4.165   6.764  1.00 82.67    -0.099 NA
ENDROOT
BRANCH  10  12
HETATM   12  N14   D T9001      -1.337   0.373  10.455  1.00 86.44    -0.227 NA
BRANCH  12  13
HETATM   13  C15   D T9001      -2.023  -0.691   9.805  1.00 87.38     0.084 A 
HETATM   14  C16   D T9001      -3.110  -0.442   8.903  1.00 88.13     0.033 A 
HETATM   15  C17   D T9001      -3.791  -1.504   8.266  1.00 88.88     0.087 A 
HETATM   16  C18   D T9001      -3.395  -2.842   8.525  1.00 88.55     0.151 A 
HETATM   17 CL     D T9001      -5.098  -1.142   7.190  1.00 89.26    -0.080 Cl
HETATM   18  C19   D T9001      -2.319  -3.123   9.414  1.00 87.62     0.032 A 
HETATM   19  F21   D T9001      -4.034  -3.864   7.931  1.00 88.92    -0.203 F 
HETATM   20  C20   D T9001      -1.635  -2.051  10.054  1.00 87.82     0.021 A 
ENDBRANCH  12  13
ENDBRANCH  10  12
BRANCH   2  21
HETATM   21  O11   D T9001       0.800   4.992   6.290  1.00 85.44    -0.327 OA
HETATM   22  C12   D T9001       1.158   6.299   6.751  1.00 84.41     0.181 C 
ENDBRANCH   2  21
TORSDOF 3
ENDMDL
