MODEL 1
REMARK VINA RESULT:    -7.390      0.000      0.000
REMARK INTER + INTRA:          -9.247
REMARK INTER:                  -8.687
REMARK INTRA:                  -0.560
REMARK UNBOUND:                -0.560
REMARK  3 active torsions:
REMARK  status: ('A' for Active; 'I' for Inactive)
REMARK    1  A    between atoms: C2_2  and  O11_20 
REMARK    2  A    between atoms: C10_10  and  N14_11 
REMARK    3  A    between atoms: N14_11  and  C15_12 
ROOT
HETATM    1  C1    D T9001       1.566   1.499  -4.744  1.00 83.47     0.092 A 
HETATM    2  C2    D T9001       1.215   0.117  -4.591  1.00 83.68     0.109 A 
HETATM    3  C3    D T9001       2.001  -0.729  -3.739  1.00 82.47     0.044 A 
HETATM    4  C4    D T9001       3.117  -0.256  -3.036  1.00 82.50     0.088 A 
HETATM    5  C5    D T9001       3.490   1.133  -3.179  1.00 84.12     0.055 A 
HETATM    6  C6    D T9001       2.700   1.991  -4.038  1.00 83.53     0.021 A 
HETATM    7  N7    D T9001       3.799  -1.133  -2.250  1.00 81.78    -0.224 NA
HETATM    8  C8    D T9001       4.875  -0.653  -1.576  1.00 83.59     0.200 A 
HETATM    9  N9    D T9001       5.334   0.621  -1.617  1.00 84.30    -0.205 NA
HETATM   10  C10   D T9001       4.648   1.527  -2.419  1.00 85.59     0.166 A 
HETATM   11  N13   D T9001       0.816   2.366  -5.573  1.00 82.67    -0.099 NA
ENDROOT
BRANCH  10  12
HETATM   12  N14   D T9001       5.110   2.890  -2.488  1.00 86.44    -0.227 NA
BRANCH  12  13
HETATM   13  C15   D T9001       4.927   3.899  -1.502  1.00 87.38     0.084 A 
HETATM   14  C16   D T9001       5.731   3.945  -0.317  1.00 88.13     0.033 A 
HETATM   15  C17   D T9001       5.540   4.947   0.661  1.00 88.88     0.087 A 
HETATM   16  C18   D T9001       4.528   5.925   0.469  1.00 88.55     0.151 A 
HETATM   17 CL     D T9001       6.540   4.951   2.074  1.00 89.26    -0.080 Cl
HETATM   18  C19   D T9001       3.712   5.908  -0.699  1.00 87.62     0.032 A 
HETATM   19  F21   D T9001       4.328   6.882   1.390  1.00 88.92    -0.203 F 
HETATM   20  C20   D T9001       3.909   4.897  -1.680  1.00 87.82     0.021 A 
ENDBRANCH  12  13
ENDBRANCH  10  12
BRANCH   2  21
HETATM   21  O11   D T9001       0.095  -0.296  -5.308  1.00 85.44    -0.327 OA
HETATM   22  C12   D T9001       0.283  -1.248  -6.362  1.00 84.41     0.181 C 
ENDBRANCH   2  21
TORSDOF 3
ENDMDL
MODEL 2
REMARK VINA RESULT:    -7.246      1.563      2.006
REMARK INTER + INTRA:          -9.077
REMARK INTER:                  -8.500
REMARK INTRA:                  -0.577
REMARK UNBOUND:                -0.560
REMARK  3 active torsions:
REMARK  status: ('A' for Active; 'I' for Inactive)
REMARK    1  A    between atoms: C2_2  and  O11_20 
REMARK    2  A    between atoms: C10_10  and  N14_11 
REMARK    3  A    between atoms: N14_11  and  C15_12 
ROOT
HETATM    1  C1    D T9001       2.447   3.099  -4.733  1.00 83.47     0.092 A 
HETATM    2  C2    D T9001       1.612   1.962  -4.991  1.00 83.68     0.109 A 
HETATM    3  C3    D T9001       1.877   0.716  -4.331  1.00 82.47     0.044 A 
HETATM    4  C4    D T9001       2.937   0.557  -3.428  1.00 82.50     0.088 A 
HETATM    5  C5    D T9001       3.793   1.689  -3.156  1.00 84.12     0.055 A 
HETATM    6  C6    D T9001       3.529   2.949  -3.820  1.00 83.53     0.021 A 
HETATM    7  N7    D T9001       3.109  -0.662  -2.850  1.00 81.78    -0.224 NA
HETATM    8  C8    D T9001       4.140  -0.794  -1.976  1.00 83.59     0.200 A 
HETATM    9  N9    D T9001       5.015   0.180  -1.630  1.00 84.30    -0.205 NA
HETATM   10  C10   D T9001       4.853   1.431  -2.216  1.00 85.59     0.166 A 
HETATM   11  N13   D T9001       2.217   4.345  -5.361  1.00 82.67    -0.099 NA
ENDROOT
BRANCH  10  12
HETATM   12  N14   D T9001       5.768   2.489  -1.872  1.00 86.44    -0.227 NA
BRANCH  12  13
HETATM   13  C15   D T9001       5.686   3.347  -0.740  1.00 87.38     0.084 A 
HETATM   14  C16   D T9001       5.059   4.633  -0.816  1.00 88.13     0.033 A 
HETATM   15  C17   D T9001       4.987   5.482   0.311  1.00 88.88     0.087 A 
HETATM   16  C18   D T9001       5.551   5.056   1.543  1.00 88.55     0.151 A 
HETATM   17 CL     D T9001       4.220   7.027   0.158  1.00 89.26    -0.080 Cl
HETATM   18  C19   D T9001       6.181   3.782   1.653  1.00 87.62     0.032 A 
HETATM   19  F21   D T9001       5.497   5.852   2.624  1.00 88.92    -0.203 F 
HETATM   20  C20   D T9001       6.250   2.931   0.514  1.00 87.82     0.021 A 
ENDBRANCH  12  13
ENDBRANCH  10  12
BRANCH   2  21
HETATM   21  O11   D T9001       0.572   2.180  -5.892  1.00 85.44    -0.327 OA
HETATM   22  C12   D T9001      -0.434   1.167  -6.018  1.00 84.41     0.181 C 
ENDBRANCH   2  21
TORSDOF 3
ENDMDL
MODEL 3
REMARK VINA RESULT:    -7.182      1.943      2.956
REMARK INTER + INTRA:          -9.002
REMARK INTER:                  -8.425
REMARK INTRA:                  -0.577
REMARK UNBOUND:                -0.560
REMARK  3 active torsions:
REMARK  status: ('A' for Active; 'I' for Inactive)
REMARK    1  A    between atoms: C2_2  and  O11_20 
REMARK    2  A    between atoms: C10_10  and  N14_11 
REMARK    3  A    between atoms: N14_11  and  C15_12 
ROOT
HETATM    1  C1    D T9001       3.652  -0.089  -3.911  1.00 83.47     0.092 A 
HETATM    2  C2    D T9001       2.318  -0.590  -4.065  1.00 83.68     0.109 A 
HETATM    3  C3    D T9001       1.199   0.236  -3.712  1.00 82.47     0.044 A 
HETATM    4  C4    D T9001       1.355   1.536  -3.214  1.00 82.50     0.088 A 
HETATM    5  C5    D T9001       2.692   2.060  -3.048  1.00 84.12     0.055 A 
HETATM    6  C6    D T9001       3.825   1.229  -3.403  1.00 83.53     0.021 A 
HETATM    7  N7    D T9001       0.236   2.246  -2.908  1.00 81.78    -0.224 NA
HETATM    8  C8    D T9001       0.410   3.504  -2.430  1.00 83.59     0.200 A 
HETATM    9  N9    D T9001       1.600   4.117  -2.227  1.00 84.30    -0.205 NA
HETATM   10  C10   D T9001       2.754   3.403  -2.532  1.00 85.59     0.166 A 
HETATM   11  N13   D T9001       4.781  -0.872  -4.250  1.00 82.67    -0.099 NA
ENDROOT
BRANCH  10  12
HETATM   12  N14   D T9001       4.037   4.024  -2.326  1.00 86.44    -0.227 NA
BRANCH  12  13
HETATM   13  C15   D T9001       4.688   4.234  -1.078  1.00 87.38     0.084 A 
HETATM   14  C16   D T9001       5.573   3.255  -0.520  1.00 88.13     0.033 A 
HETATM   15  C17   D T9001       6.211   3.468   0.724  1.00 88.88     0.087 A 
HETATM   16  C18   D T9001       5.968   4.673   1.435  1.00 88.55     0.151 A 
HETATM   17 CL     D T9001       7.267   2.248   1.351  1.00 89.26    -0.080 Cl
HETATM   18  C19   D T9001       5.095   5.667   0.907  1.00 87.62     0.032 A 
HETATM   19  F21   D T9001       6.562   4.890   2.621  1.00 88.92    -0.203 F 
HETATM   20  C20   D T9001       4.455   5.447  -0.345  1.00 87.82     0.021 A 
ENDBRANCH  12  13
ENDBRANCH  10  12
BRANCH   2  21
HETATM   21  O11   D T9001       2.222  -1.886  -4.568  1.00 85.44    -0.327 OA
HETATM   22  C12   D T9001       1.736  -2.055  -5.905  1.00 84.41     0.181 C 
ENDBRANCH   2  21
TORSDOF 3
ENDMDL
MODEL 4
REMARK VINA RESULT:    -7.017      4.217      7.276
REMARK INTER + INTRA:          -8.808
REMARK INTER:                  -8.363
REMARK INTRA:                  -0.444
REMARK UNBOUND:                -0.560
REMARK  3 active torsions:
REMARK  status: ('A' for Active; 'I' for Inactive)
REMARK    1  A    between atoms: C2_2  and  O11_20 
REMARK    2  A    between atoms: C10_10  and  N14_11 
REMARK    3  A    between atoms: N14_11  and  C15_12 
ROOT
HETATM    1  C1    D T9001       5.010   3.849  -1.414  1.00 83.47     0.092 A 
HETATM    2  C2    D T9001       4.734   4.785  -0.364  1.00 83.68     0.109 A 
HETATM    3  C3    D T9001       3.555   5.601  -0.425  1.00 82.47     0.044 A 
HETATM    4  C4    D T9001       2.644   5.522  -1.486  1.00 82.50     0.088 A 
HETATM    5  C5    D T9001       2.904   4.587  -2.558  1.00 84.12     0.055 A 
HETATM    6  C6    D T9001       4.093   3.762  -2.500  1.00 83.53     0.021 A 
HETATM    7  N7    D T9001       1.553   6.335  -1.457  1.00 81.78    -0.224 NA
HETATM    8  C8    D T9001       0.681   6.240  -2.493  1.00 83.59     0.200 A 
HETATM    9  N9    D T9001       0.801   5.410  -3.557  1.00 84.30    -0.205 NA
HETATM   10  C10   D T9001       1.913   4.576  -3.602  1.00 85.59     0.166 A 
HETATM   11  N13   D T9001       6.160   3.025  -1.390  1.00 82.67    -0.099 NA
ENDROOT
BRANCH  10  12
HETATM   12  N14   D T9001       2.073   3.682  -4.721  1.00 86.44    -0.227 NA
BRANCH  12  13
HETATM   13  C15   D T9001       2.077   2.260  -4.677  1.00 87.38     0.084 A 
HETATM   14  C16   D T9001       3.194   1.498  -5.150  1.00 88.13     0.033 A 
HETATM   15  C17   D T9001       3.188   0.085  -5.109  1.00 88.88     0.087 A 
HETATM   16  C18   D T9001       2.051  -0.593  -4.594  1.00 88.55     0.151 A 
HETATM   17 CL     D T9001       4.566  -0.783  -5.698  1.00 89.26    -0.080 Cl
HETATM   18  C19   D T9001       0.925   0.135  -4.114  1.00 87.62     0.032 A 
HETATM   19  F21   D T9001       2.026  -1.935  -4.551  1.00 88.92    -0.203 F 
HETATM   20  C20   D T9001       0.937   1.558  -4.157  1.00 87.82     0.021 A 
ENDBRANCH  12  13
ENDBRANCH  10  12
BRANCH   2  21
HETATM   21  O11   D T9001       5.671   4.817   0.666  1.00 85.44    -0.327 OA
HETATM   22  C12   D T9001       5.370   5.602   1.826  1.00 84.41     0.181 C 
ENDBRANCH   2  21
TORSDOF 3
ENDMDL
MODEL 5
REMARK VINA RESULT:    -6.977      3.946      6.253
REMARK INTER + INTRA:          -8.761
REMARK INTER:                  -8.312
REMARK INTRA:                  -0.449
REMARK UNBOUND:                -0.560
REMARK  3 active torsions:
REMARK  status: ('A' for Active; 'I' for Inactive)
REMARK    1  A    between atoms: C2_2  and  O11_20 
REMARK    2  A    between atoms: C10_10  and  N14_11 
REMARK    3  A    between atoms: N14_11  and  C15_12 
ROOT
HETATM    1  C1    D T9001       1.628   5.111  -3.527  1.00 83.47     0.092 A 
HETATM    2  C2    D T9001       1.271   6.188  -2.651  1.00 83.68     0.109 A 
HETATM    3  C3    D T9001       2.080   6.471  -1.500  1.00 82.47     0.044 A 
HETATM    4  C4    D T9001       3.227   5.728  -1.188  1.00 82.50     0.088 A 
HETATM    5  C5    D T9001       3.603   4.635  -2.057  1.00 84.12     0.055 A 
HETATM    6  C6    D T9001       2.789   4.346  -3.220  1.00 83.53     0.021 A 
HETATM    7  N7    D T9001       3.932   6.071  -0.077  1.00 81.78    -0.224 NA
HETATM    8  C8    D T9001       5.040   5.340   0.204  1.00 83.59     0.200 A 
HETATM    9  N9    D T9001       5.507   4.296  -0.521  1.00 84.30    -0.205 NA
HETATM   10  C10   D T9001       4.794   3.931  -1.658  1.00 85.59     0.166 A 
HETATM   11  N13   D T9001       0.858   4.801  -4.673  1.00 82.67    -0.099 NA
ENDROOT
BRANCH  10  12
HETATM   12  N14   D T9001       5.260   2.823  -2.452  1.00 86.44    -0.227 NA
BRANCH  12  13
HETATM   13  C15   D T9001       4.696   1.518  -2.502  1.00 87.38     0.084 A 
HETATM   14  C16   D T9001       3.919   1.079  -3.623  1.00 88.13     0.033 A 
HETATM   15  C17   D T9001       3.356  -0.217  -3.663  1.00 88.88     0.087 A 
HETATM   16  C18   D T9001       3.561  -1.100  -2.569  1.00 88.55     0.151 A 
HETATM   17 CL     D T9001       2.423  -0.691  -5.042  1.00 89.26    -0.080 Cl
HETATM   18  C19   D T9001       4.330  -0.695  -1.441  1.00 87.62     0.032 A 
HETATM   19  F21   D T9001       3.030  -2.334  -2.588  1.00 88.92    -0.203 F 
HETATM   20  C20   D T9001       4.895   0.610  -1.406  1.00 87.82     0.021 A 
ENDBRANCH  12  13
ENDBRANCH  10  12
BRANCH   2  21
HETATM   21  O11   D T9001       0.126   6.895  -3.012  1.00 85.44    -0.327 OA
HETATM   22  C12   D T9001      -0.211   8.063  -2.254  1.00 84.41     0.181 C 
ENDBRANCH   2  21
TORSDOF 3
ENDMDL
MODEL 6
REMARK VINA RESULT:    -6.914      4.124      5.793
REMARK INTER + INTRA:          -8.687
REMARK INTER:                  -8.113
REMARK INTRA:                  -0.574
REMARK UNBOUND:                -0.560
REMARK  3 active torsions:
REMARK  status: ('A' for Active; 'I' for Inactive)
REMARK    1  A    between atoms: C2_2  and  O11_20 
REMARK    2  A    between atoms: C10_10  and  N14_11 
REMARK    3  A    between atoms: N14_11  and  C15_12 
ROOT
HETATM    1  C1    D T9001       4.757   1.342  -2.319  1.00 83.47     0.092 A 
HETATM    2  C2    D T9001       4.108   2.510  -2.838  1.00 83.68     0.109 A 
HETATM    3  C3    D T9001       4.181   3.748  -2.116  1.00 82.47     0.044 A 
HETATM    4  C4    D T9001       4.871   3.869  -0.902  1.00 82.50     0.088 A 
HETATM    5  C5    D T9001       5.529   2.702  -0.359  1.00 84.12     0.055 A 
HETATM    6  C6    D T9001       5.459   1.450  -1.085  1.00 83.53     0.021 A 
HETATM    7  N7    D T9001       4.886   5.083  -0.291  1.00 81.78    -0.224 NA
HETATM    8  C8    D T9001       5.563   5.179   0.882  1.00 83.59     0.200 A 
HETATM    9  N9    D T9001       6.223   4.171   1.501  1.00 84.30    -0.205 NA
HETATM   10  C10   D T9001       6.213   2.922   0.889  1.00 85.59     0.166 A 
HETATM   11  N13   D T9001       4.710   0.103  -3.002  1.00 82.67    -0.099 NA
ENDROOT
BRANCH  10  12
HETATM   12  N14   D T9001       6.903   1.826   1.521  1.00 86.44    -0.227 NA
BRANCH  12  13
HETATM   13  C15   D T9001       8.300   1.562   1.473  1.00 87.38     0.084 A 
HETATM   14  C16   D T9001       9.242   2.381   2.176  1.00 88.13     0.033 A 
HETATM   15  C17   D T9001      10.630   2.117   2.119  1.00 88.88     0.087 A 
HETATM   16  C18   D T9001      11.099   1.021   1.347  1.00 88.55     0.151 A 
HETATM   17 CL     D T9001      11.722   3.142   2.986  1.00 89.26    -0.080 Cl
HETATM   18  C19   D T9001      10.188   0.186   0.638  1.00 87.62     0.032 A 
HETATM   19  F21   D T9001      12.415   0.757   1.278  1.00 88.92    -0.203 F 
HETATM   20  C20   D T9001       8.793   0.457   0.699  1.00 87.82     0.021 A 
ENDBRANCH  12  13
ENDBRANCH  10  12
BRANCH   2  21
HETATM   21  O11   D T9001       3.442   2.333  -4.049  1.00 85.44    -0.327 OA
HETATM   22  C12   D T9001       2.011   2.408  -4.048  1.00 84.41     0.181 C 
ENDBRANCH   2  21
TORSDOF 3
ENDMDL
MODEL 7
REMARK VINA RESULT:    -6.857      4.687      7.798
REMARK INTER + INTRA:          -8.620
REMARK INTER:                  -8.111
REMARK INTRA:                  -0.510
REMARK UNBOUND:                -0.560
REMARK  3 active torsions:
REMARK  status: ('A' for Active; 'I' for Inactive)
REMARK    1  A    between atoms: C2_2  and  O11_20 
REMARK    2  A    between atoms: C10_10  and  N14_11 
REMARK    3  A    between atoms: N14_11  and  C15_12 
ROOT
HETATM    1  C1    D T9001       5.057   3.758  -1.367  1.00 83.47     0.092 A 
HETATM    2  C2    D T9001       4.723   4.846  -0.495  1.00 83.68     0.109 A 
HETATM    3  C3    D T9001       3.587   5.673  -0.786  1.00 82.47     0.044 A 
HETATM    4  C4    D T9001       2.773   5.460  -1.906  1.00 82.50     0.088 A 
HETATM    5  C5    D T9001       3.093   4.371  -2.801  1.00 84.12     0.055 A 
HETATM    6  C6    D T9001       4.239   3.534  -2.511  1.00 83.53     0.021 A 
HETATM    7  N7    D T9001       1.716   6.295  -2.099  1.00 81.78    -0.224 NA
HETATM    8  C8    D T9001       0.939   6.069  -3.189  1.00 83.59     0.200 A 
HETATM    9  N9    D T9001       1.123   5.089  -4.105  1.00 84.30    -0.205 NA
HETATM   10  C10   D T9001       2.201   4.230  -3.922  1.00 85.59     0.166 A 
HETATM   11  N13   D T9001       6.167   2.919  -1.113  1.00 82.67    -0.099 NA
ENDROOT
BRANCH  10  12
HETATM   12  N14   D T9001       2.428   3.177  -4.879  1.00 86.44    -0.227 NA
BRANCH  12  13
HETATM   13  C15   D T9001       1.626   2.018  -5.071  1.00 87.38     0.084 A 
HETATM   14  C16   D T9001       0.395   2.070  -5.803  1.00 88.13     0.033 A 
HETATM   15  C17   D T9001      -0.400   0.916  -5.985  1.00 88.88     0.087 A 
HETATM   16  C18   D T9001       0.026  -0.319  -5.429  1.00 88.55     0.151 A 
HETATM   17 CL     D T9001      -1.880   1.041  -6.875  1.00 89.26    -0.080 Cl
HETATM   18  C19   D T9001       1.246  -0.406  -4.697  1.00 87.62     0.032 A 
HETATM   19  F21   D T9001      -0.719  -1.426  -5.588  1.00 88.92    -0.203 F 
HETATM   20  C20   D T9001       2.042   0.760  -4.518  1.00 87.82     0.021 A 
ENDBRANCH  12  13
ENDBRANCH  10  12
BRANCH   2  21
HETATM   21  O11   D T9001       5.563   5.007   0.605  1.00 85.44    -0.327 OA
HETATM   22  C12   D T9001       5.078   5.769   1.717  1.00 84.41     0.181 C 
ENDBRANCH   2  21
TORSDOF 3
ENDMDL
MODEL 8
REMARK VINA RESULT:    -6.745      4.091      6.121
REMARK INTER + INTRA:          -8.488
REMARK INTER:                  -8.403
REMARK INTRA:                  -0.085
REMARK UNBOUND:                -0.560
REMARK  3 active torsions:
REMARK  status: ('A' for Active; 'I' for Inactive)
REMARK    1  A    between atoms: C2_2  and  O11_20 
REMARK    2  A    between atoms: C10_10  and  N14_11 
REMARK    3  A    between atoms: N14_11  and  C15_12 
ROOT
HETATM    1  C1    D T9001       5.534   1.077  -1.200  1.00 83.47     0.092 A 
HETATM    2  C2    D T9001       6.342   0.766  -0.058  1.00 83.68     0.109 A 
HETATM    3  C3    D T9001       6.581   1.766   0.943  1.00 82.47     0.044 A 
HETATM    4  C4    D T9001       6.049   3.059   0.853  1.00 82.50     0.088 A 
HETATM    5  C5    D T9001       5.233   3.396  -0.293  1.00 84.12     0.055 A 
HETATM    6  C6    D T9001       4.990   2.389  -1.306  1.00 83.53     0.021 A 
HETATM    7  N7    D T9001       6.328   3.940   1.851  1.00 81.78    -0.224 NA
HETATM    8  C8    D T9001       5.800   5.185   1.745  1.00 83.59     0.200 A 
HETATM    9  N9    D T9001       5.022   5.633   0.731  1.00 84.30    -0.205 NA
HETATM   10  C10   D T9001       4.730   4.745  -0.299  1.00 85.59     0.166 A 
HETATM   11  N13   D T9001       5.273   0.119  -2.207  1.00 82.67    -0.099 NA
ENDROOT
BRANCH  10  12
HETATM   12  N14   D T9001       3.907   5.188  -1.395  1.00 86.44    -0.227 NA
BRANCH  12  13
HETATM   13  C15   D T9001       2.829   4.474  -1.990  1.00 87.38     0.084 A 
HETATM   14  C16   D T9001       2.913   3.969  -3.328  1.00 88.13     0.033 A 
HETATM   15  C17   D T9001       1.836   3.266  -3.915  1.00 88.88     0.087 A 
HETATM   16  C18   D T9001       0.647   3.060  -3.166  1.00 88.55     0.151 A 
HETATM   17 CL     D T9001       1.993   2.681  -5.537  1.00 89.26    -0.080 Cl
HETATM   18  C19   D T9001       0.533   3.548  -1.833  1.00 87.62     0.032 A 
HETATM   19  F21   D T9001      -0.388   2.398  -3.709  1.00 88.92    -0.203 F 
HETATM   20  C20   D T9001       1.620   4.255  -1.247  1.00 87.82     0.021 A 
ENDBRANCH  12  13
ENDBRANCH  10  12
BRANCH   2  21
HETATM   21  O11   D T9001       6.840  -0.535  -0.017  1.00 85.44    -0.327 OA
HETATM   22  C12   D T9001       8.250  -0.711   0.164  1.00 84.41     0.181 C 
ENDBRANCH   2  21
TORSDOF 3
ENDMDL
MODEL 9
REMARK VINA RESULT:    -6.644      4.218      6.360
REMARK INTER + INTRA:          -8.369
REMARK INTER:                  -7.752
REMARK INTRA:                  -0.617
REMARK UNBOUND:                -0.560
REMARK  3 active torsions:
REMARK  status: ('A' for Active; 'I' for Inactive)
REMARK    1  A    between atoms: C2_2  and  O11_20 
REMARK    2  A    between atoms: C10_10  and  N14_11 
REMARK    3  A    between atoms: N14_11  and  C15_12 
ROOT
HETATM    1  C1    D T9001       1.140   3.086  -1.955  1.00 83.47     0.092 A 
HETATM    2  C2    D T9001       1.563   4.455  -1.911  1.00 83.68     0.109 A 
HETATM    3  C3    D T9001       2.941   4.769  -1.661  1.00 82.47     0.044 A 
HETATM    4  C4    D T9001       3.910   3.778  -1.455  1.00 82.50     0.088 A 
HETATM    5  C5    D T9001       3.504   2.391  -1.492  1.00 84.12     0.055 A 
HETATM    6  C6    D T9001       2.114   2.070  -1.744  1.00 83.53     0.021 A 
HETATM    7  N7    D T9001       5.192   4.172  -1.227  1.00 81.78    -0.224 NA
HETATM    8  C8    D T9001       6.115   3.196  -1.032  1.00 83.59     0.200 A 
HETATM    9  N9    D T9001       5.874   1.863  -1.042  1.00 84.30    -0.205 NA
HETATM   10  C10   D T9001       4.567   1.446  -1.270  1.00 85.59     0.166 A 
HETATM   11  N13   D T9001      -0.208   2.735  -2.201  1.00 82.67    -0.099 NA
ENDROOT
BRANCH  10  12
HETATM   12  N14   D T9001       4.275   0.035  -1.284  1.00 86.44    -0.227 NA
BRANCH  12  13
HETATM   13  C15   D T9001       4.295  -0.824  -2.418  1.00 87.38     0.084 A 
HETATM   14  C16   D T9001       5.510  -1.112  -3.120  1.00 88.13     0.033 A 
HETATM   15  C17   D T9001       5.521  -1.962  -4.249  1.00 88.88     0.087 A 
HETATM   16  C18   D T9001       4.304  -2.539  -4.700  1.00 88.55     0.151 A 
HETATM   17 CL     D T9001       7.020  -2.271  -5.059  1.00 89.26    -0.080 Cl
HETATM   18  C19   D T9001       3.079  -2.274  -4.023  1.00 87.62     0.032 A 
HETATM   19  F21   D T9001       4.295  -3.346  -5.774  1.00 88.92    -0.203 F 
HETATM   20  C20   D T9001       3.074  -1.418  -2.887  1.00 87.82     0.021 A 
ENDBRANCH  12  13
ENDBRANCH  10  12
BRANCH   2  21
HETATM   21  O11   D T9001       0.560   5.396  -2.128  1.00 85.44    -0.327 OA
HETATM   22  C12   D T9001       0.619   6.181  -3.326  1.00 84.41     0.181 C 
ENDBRANCH   2  21
TORSDOF 3
ENDMDL
