MODEL 1
REMARK VINA RESULT:    -7.459      0.000      0.000
REMARK INTER + INTRA:          -9.238
REMARK INTER:                  -8.767
REMARK INTRA:                  -0.471
REMARK UNBOUND:                -0.471
REMARK  3 active torsions:
REMARK  status: ('A' for Active; 'I' for Inactive)
REMARK    1  A    between atoms: C2_2  and  O11_20 
REMARK    2  A    between atoms: C10_10  and  N14_11 
REMARK    3  A    between atoms: N14_11  and  C15_12 
ROOT
HETATM    1  C1    D T9001      10.339  -2.194  -0.690  1.00 83.47     0.092 A 
HETATM    2  C2    D T9001      10.769  -3.558  -0.784  1.00 83.68     0.109 A 
HETATM    3  C3    D T9001      10.501  -4.311  -1.976  1.00 82.47     0.044 A 
HETATM    4  C4    D T9001       9.825  -3.762  -3.074  1.00 82.50     0.088 A 
HETATM    5  C5    D T9001       9.380  -2.388  -2.999  1.00 84.12     0.055 A 
HETATM    6  C6    D T9001       9.648  -1.624  -1.798  1.00 83.53     0.021 A 
HETATM    7  N7    D T9001       9.619  -4.552  -4.162  1.00 81.78    -0.224 NA
HETATM    8  C8    D T9001       8.966  -3.997  -5.215  1.00 83.59     0.200 A 
HETATM    9  N9    D T9001       8.497  -2.730  -5.280  1.00 84.30    -0.205 NA
HETATM   10  C10   D T9001       8.698  -1.910  -4.173  1.00 85.59     0.166 A 
HETATM   11  N13   D T9001      10.586  -1.417   0.467  1.00 82.67    -0.099 NA
ENDROOT
BRANCH  10  12
HETATM   12  N14   D T9001       8.210  -0.556  -4.206  1.00 86.44    -0.227 NA
BRANCH  12  13
HETATM   13  C15   D T9001       8.422   0.398  -5.241  1.00 87.38     0.084 A 
HETATM   14  C16   D T9001       7.532   0.503  -6.359  1.00 88.13     0.033 A 
HETATM   15  C17   D T9001       7.752   1.448  -7.386  1.00 88.88     0.087 A 
HETATM   16  C18   D T9001       8.879   2.309  -7.311  1.00 88.55     0.151 A 
HETATM   17 CL     D T9001       6.645   1.525  -8.714  1.00 89.26    -0.080 Cl
HETATM   18  C19   D T9001       9.781   2.232  -6.212  1.00 87.62     0.032 A 
HETATM   19  F21   D T9001       9.106   3.212  -8.281  1.00 88.92    -0.203 F 
HETATM   20  C20   D T9001       9.555   1.278  -5.180  1.00 87.82     0.021 A 
ENDBRANCH  12  13
ENDBRANCH  10  12
BRANCH   2  21
HETATM   21  O11   D T9001      11.440  -4.051   0.333  1.00 85.44    -0.327 OA
HETATM   22  C12   D T9001      10.775  -5.028   1.142  1.00 84.41     0.181 C 
ENDBRANCH   2  21
TORSDOF 3
ENDMDL
MODEL 2
REMARK VINA RESULT:    -7.248      4.611      7.866
REMARK INTER + INTRA:          -8.990
REMARK INTER:                  -8.595
REMARK INTRA:                  -0.395
REMARK UNBOUND:                -0.471
REMARK  3 active torsions:
REMARK  status: ('A' for Active; 'I' for Inactive)
REMARK    1  A    between atoms: C2_2  and  O11_20 
REMARK    2  A    between atoms: C10_10  and  N14_11 
REMARK    3  A    between atoms: N14_11  and  C15_12 
ROOT
HETATM    1  C1    D T9001       7.547   1.278  -7.482  1.00 83.47     0.092 A 
HETATM    2  C2    D T9001       8.445   2.390  -7.587  1.00 83.68     0.109 A 
HETATM    3  C3    D T9001       9.606   2.452  -6.746  1.00 82.47     0.044 A 
HETATM    4  C4    D T9001       9.906   1.456  -5.808  1.00 82.50     0.088 A 
HETATM    5  C5    D T9001       9.012   0.327  -5.683  1.00 84.12     0.055 A 
HETATM    6  C6    D T9001       7.839   0.259  -6.530  1.00 83.53     0.021 A 
HETATM    7  N7    D T9001      11.031   1.600  -5.055  1.00 81.78    -0.224 NA
HETATM    8  C8    D T9001      11.305   0.620  -4.157  1.00 83.59     0.200 A 
HETATM    9  N9    D T9001      10.558  -0.487  -3.937  1.00 84.30    -0.205 NA
HETATM   10  C10   D T9001       9.403  -0.646  -4.697  1.00 85.59     0.166 A 
HETATM   11  N13   D T9001       6.393   1.178  -8.295  1.00 82.67    -0.099 NA
ENDROOT
BRANCH  10  12
HETATM   12  N14   D T9001       8.583  -1.811  -4.488  1.00 86.44    -0.227 NA
BRANCH  12  13
HETATM   13  C15   D T9001       8.900  -2.939  -3.680  1.00 87.38     0.084 A 
HETATM   14  C16   D T9001       8.677  -2.934  -2.264  1.00 88.13     0.033 A 
HETATM   15  C17   D T9001       9.000  -4.055  -1.467  1.00 88.88     0.087 A 
HETATM   16  C18   D T9001       9.559  -5.209  -2.079  1.00 88.55     0.151 A 
HETATM   17 CL     D T9001       8.712  -3.990   0.239  1.00 89.26    -0.080 Cl
HETATM   18  C19   D T9001       9.791  -5.246  -3.484  1.00 87.62     0.032 A 
HETATM   19  F21   D T9001       9.876  -6.283  -1.336  1.00 88.92    -0.203 F 
HETATM   20  C20   D T9001       9.464  -4.115  -4.282  1.00 87.82     0.021 A 
ENDBRANCH  12  13
ENDBRANCH  10  12
BRANCH   2  21
HETATM   21  O11   D T9001       8.100   3.347  -8.538  1.00 85.44    -0.327 OA
HETATM   22  C12   D T9001       8.253   4.728  -8.191  1.00 84.41     0.181 C 
ENDBRANCH   2  21
TORSDOF 3
ENDMDL
MODEL 3
REMARK VINA RESULT:    -7.201      1.579      2.880
REMARK INTER + INTRA:          -8.934
REMARK INTER:                  -8.797
REMARK INTRA:                  -0.137
REMARK UNBOUND:                -0.471
REMARK  3 active torsions:
REMARK  status: ('A' for Active; 'I' for Inactive)
REMARK    1  A    between atoms: C2_2  and  O11_20 
REMARK    2  A    between atoms: C10_10  and  N14_11 
REMARK    3  A    between atoms: N14_11  and  C15_12 
ROOT
HETATM    1  C1    D T9001       9.404  -4.706  -4.147  1.00 83.47     0.092 A 
HETATM    2  C2    D T9001       9.715  -4.729  -2.748  1.00 83.68     0.109 A 
HETATM    3  C3    D T9001       9.664  -3.515  -1.985  1.00 82.47     0.044 A 
HETATM    4  C4    D T9001       9.319  -2.283  -2.558  1.00 82.50     0.088 A 
HETATM    5  C5    D T9001       9.005  -2.237  -3.968  1.00 84.12     0.055 A 
HETATM    6  C6    D T9001       9.054  -3.461  -4.742  1.00 83.53     0.021 A 
HETATM    7  N7    D T9001       9.297  -1.185  -1.755  1.00 81.78    -0.224 NA
HETATM    8  C8    D T9001       8.955  -0.004  -2.330  1.00 83.59     0.200 A 
HETATM    9  N9    D T9001       8.638   0.182  -3.633  1.00 84.30    -0.205 NA
HETATM   10  C10   D T9001       8.660  -0.932  -4.467  1.00 85.59     0.166 A 
HETATM   11  N13   D T9001       9.439  -5.883  -4.933  1.00 82.67    -0.099 NA
ENDROOT
BRANCH  10  12
HETATM   12  N14   D T9001       8.330  -0.770  -5.859  1.00 86.44    -0.227 NA
BRANCH  12  13
HETATM   13  C15   D T9001       8.241   0.458  -6.574  1.00 87.38     0.084 A 
HETATM   14  C16   D T9001       7.145   0.735  -7.454  1.00 88.13     0.033 A 
HETATM   15  C17   D T9001       7.067   1.954  -8.166  1.00 88.88     0.087 A 
HETATM   16  C18   D T9001       8.095   2.922  -8.007  1.00 88.55     0.151 A 
HETATM   17 CL     D T9001       5.721   2.232  -9.219  1.00 89.26    -0.080 Cl
HETATM   18  C19   D T9001       9.195   2.677  -7.138  1.00 87.62     0.032 A 
HETATM   19  F21   D T9001       8.037   4.085  -8.678  1.00 88.92    -0.203 F 
HETATM   20  C20   D T9001       9.270   1.448  -6.424  1.00 87.82     0.021 A 
ENDBRANCH  12  13
ENDBRANCH  10  12
BRANCH   2  21
HETATM   21  O11   D T9001      10.046  -5.979  -2.231  1.00 85.44    -0.327 OA
HETATM   22  C12   D T9001       9.543  -6.328  -0.936  1.00 84.41     0.181 C 
ENDBRANCH   2  21
TORSDOF 3
ENDMDL
MODEL 4
REMARK VINA RESULT:    -6.984      4.678      7.460
REMARK INTER + INTRA:          -8.680
REMARK INTER:                  -8.324
REMARK INTRA:                  -0.356
REMARK UNBOUND:                -0.471
REMARK  3 active torsions:
REMARK  status: ('A' for Active; 'I' for Inactive)
REMARK    1  A    between atoms: C2_2  and  O11_20 
REMARK    2  A    between atoms: C10_10  and  N14_11 
REMARK    3  A    between atoms: N14_11  and  C15_12 
ROOT
HETATM    1  C1    D T9001       8.605   1.722  -6.916  1.00 83.47     0.092 A 
HETATM    2  C2    D T9001       7.530   1.155  -7.677  1.00 83.68     0.109 A 
HETATM    3  C3    D T9001       7.118  -0.197  -7.432  1.00 82.47     0.044 A 
HETATM    4  C4    D T9001       7.730  -1.005  -6.464  1.00 82.50     0.088 A 
HETATM    5  C5    D T9001       8.817  -0.454  -5.687  1.00 84.12     0.055 A 
HETATM    6  C6    D T9001       9.237   0.911  -5.930  1.00 83.53     0.021 A 
HETATM    7  N7    D T9001       7.269  -2.274  -6.302  1.00 81.78    -0.224 NA
HETATM    8  C8    D T9001       7.873  -3.037  -5.355  1.00 83.59     0.200 A 
HETATM    9  N9    D T9001       8.898  -2.649  -4.559  1.00 84.30    -0.205 NA
HETATM   10  C10   D T9001       9.382  -1.354  -4.716  1.00 85.59     0.166 A 
HETATM   11  N13   D T9001       9.039   3.052  -7.125  1.00 82.67    -0.099 NA
ENDROOT
BRANCH  10  12
HETATM   12  N14   D T9001      10.472  -0.909  -3.888  1.00 86.44    -0.227 NA
BRANCH  12  13
HETATM   13  C15   D T9001      10.696  -1.249  -2.524  1.00 87.38     0.084 A 
HETATM   14  C16   D T9001      11.991  -1.643  -2.052  1.00 88.13     0.033 A 
HETATM   15  C17   D T9001      12.204  -1.985  -0.697  1.00 88.88     0.087 A 
HETATM   16  C18   D T9001      11.115  -1.939   0.214  1.00 88.55     0.151 A 
HETATM   17 CL     D T9001      13.789  -2.459  -0.186  1.00 89.26    -0.080 Cl
HETATM   18  C19   D T9001       9.818  -1.548  -0.223  1.00 87.62     0.032 A 
HETATM   19  F21   D T9001      11.300  -2.264   1.505  1.00 88.92    -0.203 F 
HETATM   20  C20   D T9001       9.608  -1.205  -1.588  1.00 87.82     0.021 A 
ENDBRANCH  12  13
ENDBRANCH  10  12
BRANCH   2  21
HETATM   21  O11   D T9001       6.956   2.002  -8.621  1.00 85.44    -0.327 OA
HETATM   22  C12   D T9001       5.549   1.885  -8.865  1.00 84.41     0.181 C 
ENDBRANCH   2  21
TORSDOF 3
ENDMDL
MODEL 5
REMARK VINA RESULT:    -6.915      4.387      7.139
REMARK INTER + INTRA:          -8.599
REMARK INTER:                  -8.012
REMARK INTRA:                  -0.587
REMARK UNBOUND:                -0.471
REMARK  3 active torsions:
REMARK  status: ('A' for Active; 'I' for Inactive)
REMARK    1  A    between atoms: C2_2  and  O11_20 
REMARK    2  A    between atoms: C10_10  and  N14_11 
REMARK    3  A    between atoms: N14_11  and  C15_12 
ROOT
HETATM    1  C1    D T9001      10.115   0.960  -4.919  1.00 83.47     0.092 A 
HETATM    2  C2    D T9001       9.113   1.386  -5.852  1.00 83.68     0.109 A 
HETATM    3  C3    D T9001       8.142   0.446  -6.334  1.00 82.47     0.044 A 
HETATM    4  C4    D T9001       8.129  -0.894  -5.928  1.00 82.50     0.088 A 
HETATM    5  C5    D T9001       9.132  -1.346  -4.990  1.00 84.12     0.055 A 
HETATM    6  C6    D T9001      10.114  -0.401  -4.500  1.00 83.53     0.021 A 
HETATM    7  N7    D T9001       7.168  -1.711  -6.439  1.00 81.78    -0.224 NA
HETATM    8  C8    D T9001       7.170  -3.004  -6.027  1.00 83.59     0.200 A 
HETATM    9  N9    D T9001       8.047  -3.558  -5.157  1.00 84.30    -0.205 NA
HETATM   10  C10   D T9001       9.038  -2.736  -4.629  1.00 85.59     0.166 A 
HETATM   11  N13   D T9001      11.089   1.856  -4.417  1.00 82.67    -0.099 NA
ENDROOT
BRANCH  10  12
HETATM   12  N14   D T9001       9.989  -3.292  -3.702  1.00 86.44    -0.227 NA
BRANCH  12  13
HETATM   13  C15   D T9001       9.824  -3.425  -2.294  1.00 87.38     0.084 A 
HETATM   14  C16   D T9001      10.434  -2.508  -1.378  1.00 88.13     0.033 A 
HETATM   15  C17   D T9001      10.272  -2.650   0.019  1.00 88.88     0.087 A 
HETATM   16  C18   D T9001       9.491  -3.724   0.525  1.00 88.55     0.151 A 
HETATM   17 CL     D T9001      11.036  -1.514   1.078  1.00 89.26    -0.080 Cl
HETATM   18  C19   D T9001       8.870  -4.650  -0.360  1.00 87.62     0.032 A 
HETATM   19  F21   D T9001       9.329  -3.876   1.850  1.00 88.92    -0.203 F 
HETATM   20  C20   D T9001       9.037  -4.504  -1.765  1.00 87.82     0.021 A 
ENDBRANCH  12  13
ENDBRANCH  10  12
BRANCH   2  21
HETATM   21  O11   D T9001       9.171   2.728  -6.217  1.00 85.44    -0.327 OA
HETATM   22  C12   D T9001       8.841   3.074  -7.568  1.00 84.41     0.181 C 
ENDBRANCH   2  21
TORSDOF 3
ENDMDL
MODEL 6
REMARK VINA RESULT:    -6.869      2.445      3.141
REMARK INTER + INTRA:          -8.545
REMARK INTER:                  -7.963
REMARK INTRA:                  -0.582
REMARK UNBOUND:                -0.471
REMARK  3 active torsions:
REMARK  status: ('A' for Active; 'I' for Inactive)
REMARK    1  A    between atoms: C2_2  and  O11_20 
REMARK    2  A    between atoms: C10_10  and  N14_11 
REMARK    3  A    between atoms: N14_11  and  C15_12 
ROOT
HETATM    1  C1    D T9001      13.503  -1.131  -1.000  1.00 83.47     0.092 A 
HETATM    2  C2    D T9001      13.095  -1.373   0.353  1.00 83.68     0.109 A 
HETATM    3  C3    D T9001      11.745  -1.771   0.631  1.00 82.47     0.044 A 
HETATM    4  C4    D T9001      10.788  -1.936  -0.380  1.00 82.50     0.088 A 
HETATM    5  C5    D T9001      11.177  -1.694  -1.751  1.00 84.12     0.055 A 
HETATM    6  C6    D T9001      12.539  -1.293  -2.037  1.00 83.53     0.021 A 
HETATM    7  N7    D T9001       9.533  -2.318  -0.020  1.00 81.78    -0.224 NA
HETATM    8  C8    D T9001       8.624  -2.477  -1.016  1.00 83.59     0.200 A 
HETATM    9  N9    D T9001       8.852  -2.285  -2.336  1.00 84.30    -0.205 NA
HETATM   10  C10   D T9001      10.130  -1.892  -2.719  1.00 85.59     0.166 A 
HETATM   11  N13   D T9001      14.825  -0.740  -1.316  1.00 82.67    -0.099 NA
ENDROOT
BRANCH  10  12
HETATM   12  N14   D T9001      10.408  -1.676  -4.115  1.00 86.44    -0.227 NA
BRANCH  12  13
HETATM   13  C15   D T9001      10.139  -0.495  -4.862  1.00 87.38     0.084 A 
HETATM   14  C16   D T9001       8.909  -0.325  -5.579  1.00 88.13     0.033 A 
HETATM   15  C17   D T9001       8.651   0.848  -6.325  1.00 88.88     0.087 A 
HETATM   16  C18   D T9001       9.629   1.878  -6.365  1.00 88.55     0.151 A 
HETATM   17 CL     D T9001       7.150   0.995  -7.174  1.00 89.26    -0.080 Cl
HETATM   18  C19   D T9001      10.858   1.741  -5.661  1.00 87.62     0.032 A 
HETATM   19  F21   D T9001       9.401   2.998  -7.071  1.00 88.92    -0.203 F 
HETATM   20  C20   D T9001      11.115   0.557  -4.913  1.00 87.82     0.021 A 
ENDBRANCH  12  13
ENDBRANCH  10  12
BRANCH   2  21
HETATM   21  O11   D T9001      14.086  -1.198   1.315  1.00 85.44    -0.327 OA
HETATM   22  C12   D T9001      13.904  -0.167   2.292  1.00 84.41     0.181 C 
ENDBRANCH   2  21
TORSDOF 3
ENDMDL
MODEL 7
REMARK VINA RESULT:    -6.557      4.324      7.002
REMARK INTER + INTRA:          -8.178
REMARK INTER:                  -7.578
REMARK INTRA:                  -0.600
REMARK UNBOUND:                -0.471
REMARK  3 active torsions:
REMARK  status: ('A' for Active; 'I' for Inactive)
REMARK    1  A    between atoms: C2_2  and  O11_20 
REMARK    2  A    between atoms: C10_10  and  N14_11 
REMARK    3  A    between atoms: N14_11  and  C15_12 
ROOT
HETATM    1  C1    D T9001       9.092   1.561  -4.881  1.00 83.47     0.092 A 
HETATM    2  C2    D T9001       8.961   1.673  -6.304  1.00 83.68     0.109 A 
HETATM    3  C3    D T9001       8.337   0.616  -7.048  1.00 82.47     0.044 A 
HETATM    4  C4    D T9001       7.841  -0.542  -6.435  1.00 82.50     0.088 A 
HETATM    5  C5    D T9001       7.966  -0.677  -5.001  1.00 84.12     0.055 A 
HETATM    6  C6    D T9001       8.594   0.387  -4.245  1.00 83.53     0.021 A 
HETATM    7  N7    D T9001       7.264  -1.489  -7.224  1.00 81.78    -0.224 NA
HETATM    8  C8    D T9001       6.786  -2.601  -6.608  1.00 83.59     0.200 A 
HETATM    9  N9    D T9001       6.836  -2.855  -5.279  1.00 84.30    -0.205 NA
HETATM   10  C10   D T9001       7.427  -1.897  -4.461  1.00 85.59     0.166 A 
HETATM   11  N13   D T9001       9.698   2.581  -4.110  1.00 82.67    -0.099 NA
ENDROOT
BRANCH  10  12
HETATM   12  N14   D T9001       7.499  -2.136  -3.043  1.00 86.44    -0.227 NA
BRANCH  12  13
HETATM   13  C15   D T9001       8.615  -2.650  -2.325  1.00 87.38     0.084 A 
HETATM   14  C16   D T9001       9.243  -1.900  -1.277  1.00 88.13     0.033 A 
HETATM   15  C17   D T9001      10.355  -2.414  -0.572  1.00 88.88     0.087 A 
HETATM   16  C18   D T9001      10.862  -3.698  -0.909  1.00 88.55     0.151 A 
HETATM   17 CL     D T9001      11.075  -1.461   0.680  1.00 89.26    -0.080 Cl
HETATM   18  C19   D T9001      10.258  -4.470  -1.943  1.00 87.62     0.032 A 
HETATM   19  F21   D T9001      11.920  -4.201  -0.251  1.00 88.92    -0.203 F 
HETATM   20  C20   D T9001       9.139  -3.947  -2.650  1.00 87.82     0.021 A 
ENDBRANCH  12  13
ENDBRANCH  10  12
BRANCH   2  21
HETATM   21  O11   D T9001       9.465   2.846  -6.859  1.00 85.44    -0.327 OA
HETATM   22  C12   D T9001       8.668   3.528  -7.834  1.00 84.41     0.181 C 
ENDBRANCH   2  21
TORSDOF 3
ENDMDL
MODEL 8
REMARK VINA RESULT:    -6.476      4.537      7.415
REMARK INTER + INTRA:          -8.083
REMARK INTER:                  -8.017
REMARK INTRA:                  -0.066
REMARK UNBOUND:                -0.471
REMARK  3 active torsions:
REMARK  status: ('A' for Active; 'I' for Inactive)
REMARK    1  A    between atoms: C2_2  and  O11_20 
REMARK    2  A    between atoms: C10_10  and  N14_11 
REMARK    3  A    between atoms: N14_11  and  C15_12 
ROOT
HETATM    1  C1    D T9001       8.498   1.675  -6.760  1.00 83.47     0.092 A 
HETATM    2  C2    D T9001       7.546   1.080  -7.652  1.00 83.68     0.109 A 
HETATM    3  C3    D T9001       7.162  -0.291  -7.475  1.00 82.47     0.044 A 
HETATM    4  C4    D T9001       7.687  -1.090  -6.451  1.00 82.50     0.088 A 
HETATM    5  C5    D T9001       8.651  -0.511  -5.542  1.00 84.12     0.055 A 
HETATM    6  C6    D T9001       9.041   0.873  -5.716  1.00 83.53     0.021 A 
HETATM    7  N7    D T9001       7.262  -2.380  -6.361  1.00 81.78    -0.224 NA
HETATM    8  C8    D T9001       7.780  -3.134  -5.358  1.00 83.59     0.200 A 
HETATM    9  N9    D T9001       8.686  -2.722  -4.441  1.00 84.30    -0.205 NA
HETATM   10  C10   D T9001       9.132  -1.406  -4.523  1.00 85.59     0.166 A 
HETATM   11  N13   D T9001       8.900   3.025  -6.899  1.00 82.67    -0.099 NA
ENDROOT
BRANCH  10  12
HETATM   12  N14   D T9001      10.097  -0.934  -3.565  1.00 86.44    -0.227 NA
BRANCH  12  13
HETATM   13  C15   D T9001      10.492  -1.588  -2.364  1.00 87.38     0.084 A 
HETATM   14  C16   D T9001       9.545  -2.278  -1.539  1.00 88.13     0.033 A 
HETATM   15  C17   D T9001       9.943  -2.920  -0.345  1.00 88.88     0.087 A 
HETATM   16  C18   D T9001      11.308  -2.880   0.048  1.00 88.55     0.151 A 
HETATM   17 CL     D T9001       8.753  -3.735   0.613  1.00 89.26    -0.080 Cl
HETATM   18  C19   D T9001      12.274  -2.205  -0.752  1.00 87.62     0.032 A 
HETATM   19  F21   D T9001      11.703  -3.483   1.182  1.00 88.92    -0.203 F 
HETATM   20  C20   D T9001      11.868  -1.559  -1.953  1.00 87.82     0.021 A 
ENDBRANCH  12  13
ENDBRANCH  10  12
BRANCH   2  21
HETATM   21  O11   D T9001       7.054   1.921  -8.647  1.00 85.44    -0.327 OA
HETATM   22  C12   D T9001       5.647   1.897  -8.916  1.00 84.41     0.181 C 
ENDBRANCH   2  21
TORSDOF 3
ENDMDL
MODEL 9
REMARK VINA RESULT:    -6.423      1.875      2.172
REMARK INTER + INTRA:          -8.020
REMARK INTER:                  -7.457
REMARK INTRA:                  -0.563
REMARK UNBOUND:                -0.471
REMARK  3 active torsions:
REMARK  status: ('A' for Active; 'I' for Inactive)
REMARK    1  A    between atoms: C2_2  and  O11_20 
REMARK    2  A    between atoms: C10_10  and  N14_11 
REMARK    3  A    between atoms: N14_11  and  C15_12 
ROOT
HETATM    1  C1    D T9001       9.027  -3.517  -0.672  1.00 83.47     0.092 A 
HETATM    2  C2    D T9001       9.690  -4.787  -0.709  1.00 83.68     0.109 A 
HETATM    3  C3    D T9001       9.915  -5.439  -1.968  1.00 82.47     0.044 A 
HETATM    4  C4    D T9001       9.507  -4.879  -3.185  1.00 82.50     0.088 A 
HETATM    5  C5    D T9001       8.832  -3.601  -3.171  1.00 84.12     0.055 A 
HETATM    6  C6    D T9001       8.604  -2.938  -1.903  1.00 83.53     0.021 A 
HETATM    7  N7    D T9001       9.765  -5.571  -4.328  1.00 81.78    -0.224 NA
HETATM    8  C8    D T9001       9.365  -5.008  -5.497  1.00 83.59     0.200 A 
HETATM    9  N9    D T9001       8.726  -3.821  -5.629  1.00 84.30    -0.205 NA
HETATM   10  C10   D T9001       8.453  -3.104  -4.468  1.00 85.59     0.166 A 
HETATM   11  N13   D T9001       8.789  -2.841   0.548  1.00 82.67    -0.099 NA
ENDROOT
BRANCH  10  12
HETATM   12  N14   D T9001       7.773  -1.839  -4.570  1.00 86.44    -0.227 NA
BRANCH  12  13
HETATM   13  C15   D T9001       8.277  -0.650  -5.168  1.00 87.38     0.084 A 
HETATM   14  C16   D T9001       9.458  -0.005  -4.675  1.00 88.13     0.033 A 
HETATM   15  C17   D T9001       9.950   1.179  -5.270  1.00 88.88     0.087 A 
HETATM   16  C18   D T9001       9.260   1.742  -6.377  1.00 88.55     0.151 A 
HETATM   17 CL     D T9001      11.379   1.916  -4.629  1.00 89.26    -0.080 Cl
HETATM   18  C19   D T9001       8.086   1.123  -6.893  1.00 87.62     0.032 A 
HETATM   19  F21   D T9001       9.712   2.869  -6.953  1.00 88.92    -0.203 F 
HETATM   20  C20   D T9001       7.594  -0.068  -6.290  1.00 87.82     0.021 A 
ENDBRANCH  12  13
ENDBRANCH  10  12
BRANCH   2  21
HETATM   21  O11   D T9001      10.079  -5.293   0.529  1.00 85.44    -0.327 OA
HETATM   22  C12   D T9001      10.883  -6.479   0.550  1.00 84.41     0.181 C 
ENDBRANCH   2  21
TORSDOF 3
ENDMDL
