MODEL 1
REMARK VINA RESULT:    -7.753      0.000      0.000
REMARK INTER + INTRA:          -9.253
REMARK INTER:                  -9.112
REMARK INTRA:                  -0.141
REMARK UNBOUND:                -0.141
REMARK  3 active torsions:
REMARK  status: ('A' for Active; 'I' for Inactive)
REMARK    1  A    between atoms: C2_2  and  O11_20 
REMARK    2  A    between atoms: C10_10  and  N14_11 
REMARK    3  A    between atoms: N14_11  and  C15_12 
ROOT
HETATM    1  C1    D T9001       9.166  -5.344  -3.941  1.00 83.47     0.092 A 
HETATM    2  C2    D T9001       9.513  -5.508  -2.560  1.00 83.68     0.109 A 
HETATM    3  C3    D T9001       9.548  -4.368  -1.691  1.00 82.47     0.044 A 
HETATM    4  C4    D T9001       9.251  -3.074  -2.140  1.00 82.50     0.088 A 
HETATM    5  C5    D T9001       8.902  -2.884  -3.529  1.00 84.12     0.055 A 
HETATM    6  C6    D T9001       8.866  -4.034  -4.411  1.00 83.53     0.021 A 
HETATM    7  N7    D T9001       9.308  -2.054  -1.241  1.00 81.78    -0.224 NA
HETATM    8  C8    D T9001       9.012  -0.809  -1.697  1.00 83.59     0.200 A 
HETATM    9  N9    D T9001       8.671  -0.490  -2.968  1.00 84.30    -0.205 NA
HETATM   10  C10   D T9001       8.611  -1.523  -3.897  1.00 85.59     0.166 A 
HETATM   11  N13   D T9001       9.119  -6.444  -4.829  1.00 82.67    -0.099 NA
ENDROOT
BRANCH  10  12
HETATM   12  N14   D T9001       8.254  -1.219  -5.259  1.00 86.44    -0.227 NA
BRANCH  12  13
HETATM   13  C15   D T9001       8.365   0.044  -5.905  1.00 87.38     0.084 A 
HETATM   14  C16   D T9001       7.369   0.504  -6.828  1.00 88.13     0.033 A 
HETATM   15  C17   D T9001       7.490   1.756  -7.472  1.00 88.88     0.087 A 
HETATM   16  C18   D T9001       8.620   2.573  -7.202  1.00 88.55     0.151 A 
HETATM   17 CL     D T9001       6.258   2.257  -8.580  1.00 89.26    -0.080 Cl
HETATM   18  C19   D T9001       9.626   2.146  -6.290  1.00 87.62     0.032 A 
HETATM   19  F21   D T9001       8.752   3.766  -7.809  1.00 88.92    -0.203 F 
HETATM   20  C20   D T9001       9.500   0.884  -5.644  1.00 87.82     0.021 A 
ENDBRANCH  12  13
ENDBRANCH  10  12
BRANCH   2  21
HETATM   21  O11   D T9001       9.793  -6.815  -2.168  1.00 85.44    -0.327 OA
HETATM   22  C12   D T9001       8.840  -7.489  -1.338  1.00 84.41     0.181 C 
ENDBRANCH   2  21
TORSDOF 3
ENDMDL
MODEL 2
REMARK VINA RESULT:    -7.540      1.772      3.152
REMARK INTER + INTRA:          -9.004
REMARK INTER:                  -8.427
REMARK INTRA:                  -0.577
REMARK UNBOUND:                -0.141
REMARK  3 active torsions:
REMARK  status: ('A' for Active; 'I' for Inactive)
REMARK    1  A    between atoms: C2_2  and  O11_20 
REMARK    2  A    between atoms: C10_10  and  N14_11 
REMARK    3  A    between atoms: N14_11  and  C15_12 
ROOT
HETATM    1  C1    D T9001       9.774  -2.474  -0.383  1.00 83.47     0.092 A 
HETATM    2  C2    D T9001      10.392  -3.765  -0.320  1.00 83.68     0.109 A 
HETATM    3  C3    D T9001      10.333  -4.641  -1.454  1.00 82.47     0.044 A 
HETATM    4  C4    D T9001       9.686  -4.284  -2.645  1.00 82.50     0.088 A 
HETATM    5  C5    D T9001       9.053  -2.988  -2.729  1.00 84.12     0.055 A 
HETATM    6  C6    D T9001       9.109  -2.099  -1.586  1.00 83.53     0.021 A 
HETATM    7  N7    D T9001       9.684  -5.181  -3.667  1.00 81.78    -0.224 NA
HETATM    8  C8    D T9001       9.055  -4.813  -4.813  1.00 83.59     0.200 A 
HETATM    9  N9    D T9001       8.424  -3.634  -5.028  1.00 84.30    -0.205 NA
HETATM   10  C10   D T9001       8.416  -2.709  -3.990  1.00 85.59     0.166 A 
HETATM   11  N13   D T9001       9.811  -1.580   0.713  1.00 82.67    -0.099 NA
ENDROOT
BRANCH  10  12
HETATM   12  N14   D T9001       7.752  -1.446  -4.183  1.00 86.44    -0.227 NA
BRANCH  12  13
HETATM   13  C15   D T9001       8.257  -0.319  -4.890  1.00 87.38     0.084 A 
HETATM   14  C16   D T9001       7.559   0.235  -6.013  1.00 88.13     0.033 A 
HETATM   15  C17   D T9001       8.071   1.350  -6.716  1.00 88.88     0.087 A 
HETATM   16  C18   D T9001       9.299   1.931  -6.303  1.00 88.55     0.151 A 
HETATM   17 CL     D T9001       7.186   1.973  -8.067  1.00 89.26    -0.080 Cl
HETATM   18  C19   D T9001      10.015   1.405  -5.190  1.00 87.62     0.032 A 
HETATM   19  F21   D T9001       9.801   2.990  -6.962  1.00 88.92    -0.203 F 
HETATM   20  C20   D T9001       9.497   0.282  -4.486  1.00 87.82     0.021 A 
ENDBRANCH  12  13
ENDBRANCH  10  12
BRANCH   2  21
HETATM   21  O11   D T9001      11.024  -4.065   0.884  1.00 85.44    -0.327 OA
HETATM   22  C12   D T9001      12.455  -4.115   0.901  1.00 84.41     0.181 C 
ENDBRANCH   2  21
TORSDOF 3
ENDMDL
MODEL 3
REMARK VINA RESULT:    -7.264      1.629      2.193
REMARK INTER + INTRA:          -8.679
REMARK INTER:                  -8.384
REMARK INTRA:                  -0.295
REMARK UNBOUND:                -0.141
REMARK  3 active torsions:
REMARK  status: ('A' for Active; 'I' for Inactive)
REMARK    1  A    between atoms: C2_2  and  O11_20 
REMARK    2  A    between atoms: C10_10  and  N14_11 
REMARK    3  A    between atoms: N14_11  and  C15_12 
ROOT
HETATM    1  C1    D T9001       8.672  -4.069  -4.583  1.00 83.47     0.092 A 
HETATM    2  C2    D T9001       9.247  -5.211  -3.934  1.00 83.68     0.109 A 
HETATM    3  C3    D T9001       9.753  -5.092  -2.597  1.00 82.47     0.044 A 
HETATM    4  C4    D T9001       9.711  -3.887  -1.883  1.00 82.50     0.088 A 
HETATM    5  C5    D T9001       9.139  -2.723  -2.520  1.00 84.12     0.055 A 
HETATM    6  C6    D T9001       8.626  -2.837  -3.870  1.00 83.53     0.021 A 
HETATM    7  N7    D T9001      10.214  -3.872  -0.619  1.00 81.78    -0.224 NA
HETATM    8  C8    D T9001      10.159  -2.695   0.055  1.00 83.59     0.200 A 
HETATM    9  N9    D T9001       9.653  -1.532  -0.419  1.00 84.30    -0.205 NA
HETATM   10  C10   D T9001       9.137  -1.533  -1.710  1.00 85.59     0.166 A 
HETATM   11  N13   D T9001       8.160  -4.146  -5.900  1.00 82.67    -0.099 NA
ENDROOT
BRANCH  10  12
HETATM   12  N14   D T9001       8.592  -0.312  -2.246  1.00 86.44    -0.227 NA
BRANCH  12  13
HETATM   13  C15   D T9001       8.979   0.331  -3.455  1.00 87.38     0.084 A 
HETATM   14  C16   D T9001       8.063   0.484  -4.548  1.00 88.13     0.033 A 
HETATM   15  C17   D T9001       8.456   1.118  -5.749  1.00 88.88     0.087 A 
HETATM   16  C18   D T9001       9.781   1.610  -5.877  1.00 88.55     0.151 A 
HETATM   17 CL     D T9001       7.307   1.271  -7.036  1.00 89.26    -0.080 Cl
HETATM   18  C19   D T9001      10.714   1.475  -4.810  1.00 87.62     0.032 A 
HETATM   19  F21   D T9001      10.172   2.213  -7.014  1.00 88.92    -0.203 F 
HETATM   20  C20   D T9001      10.315   0.836  -3.603  1.00 87.82     0.021 A 
ENDBRANCH  12  13
ENDBRANCH  10  12
BRANCH   2  21
HETATM   21  O11   D T9001       9.258  -6.382  -4.688  1.00 85.44    -0.327 OA
HETATM   22  C12   D T9001       8.886  -7.604  -4.040  1.00 84.41     0.181 C 
ENDBRANCH   2  21
TORSDOF 3
ENDMDL
MODEL 4
REMARK VINA RESULT:    -7.116      4.894      7.651
REMARK INTER + INTRA:          -8.505
REMARK INTER:                  -8.089
REMARK INTRA:                  -0.416
REMARK UNBOUND:                -0.141
REMARK  3 active torsions:
REMARK  status: ('A' for Active; 'I' for Inactive)
REMARK    1  A    between atoms: C2_2  and  O11_20 
REMARK    2  A    between atoms: C10_10  and  N14_11 
REMARK    3  A    between atoms: N14_11  and  C15_12 
ROOT
HETATM    1  C1    D T9001       8.645   1.569  -6.447  1.00 83.47     0.092 A 
HETATM    2  C2    D T9001       7.592   1.058  -7.273  1.00 83.68     0.109 A 
HETATM    3  C3    D T9001       7.156  -0.300  -7.118  1.00 82.47     0.044 A 
HETATM    4  C4    D T9001       7.725  -1.167  -6.175  1.00 82.50     0.088 A 
HETATM    5  C5    D T9001       8.791  -0.674  -5.334  1.00 84.12     0.055 A 
HETATM    6  C6    D T9001       9.235   0.697  -5.487  1.00 83.53     0.021 A 
HETATM    7  N7    D T9001       7.244  -2.437  -6.099  1.00 81.78    -0.224 NA
HETATM    8  C8    D T9001       7.807  -3.259  -5.176  1.00 83.59     0.200 A 
HETATM    9  N9    D T9001       8.809  -2.929  -4.327  1.00 84.30    -0.205 NA
HETATM   10  C10   D T9001       9.311  -1.634  -4.395  1.00 85.59     0.166 A 
HETATM   11  N13   D T9001       9.102   2.902  -6.568  1.00 82.67    -0.099 NA
ENDROOT
BRANCH  10  12
HETATM   12  N14   D T9001      10.379  -1.250  -3.508  1.00 86.44    -0.227 NA
BRANCH  12  13
HETATM   13  C15   D T9001      10.519  -1.614  -2.140  1.00 87.38     0.084 A 
HETATM   14  C16   D T9001      11.739  -2.174  -1.635  1.00 88.13     0.033 A 
HETATM   15  C17   D T9001      11.869  -2.540  -0.276  1.00 88.88     0.087 A 
HETATM   16  C18   D T9001      10.772  -2.352   0.605  1.00 88.55     0.151 A 
HETATM   17 CL     D T9001      13.365  -3.214   0.276  1.00 89.26    -0.080 Cl
HETATM   18  C19   D T9001       9.547  -1.797   0.136  1.00 87.62     0.032 A 
HETATM   19  F21   D T9001      10.878  -2.698   1.900  1.00 88.92    -0.203 F 
HETATM   20  C20   D T9001       9.420  -1.431  -1.234  1.00 87.82     0.021 A 
ENDBRANCH  12  13
ENDBRANCH  10  12
BRANCH   2  21
HETATM   21  O11   D T9001       7.060   1.964  -8.188  1.00 85.44    -0.327 OA
HETATM   22  C12   D T9001       5.678   1.833  -8.542  1.00 84.41     0.181 C 
ENDBRANCH   2  21
TORSDOF 3
ENDMDL
MODEL 5
REMARK VINA RESULT:    -7.055      4.601      7.662
REMARK INTER + INTRA:          -8.433
REMARK INTER:                  -7.844
REMARK INTRA:                  -0.590
REMARK UNBOUND:                -0.141
REMARK  3 active torsions:
REMARK  status: ('A' for Active; 'I' for Inactive)
REMARK    1  A    between atoms: C2_2  and  O11_20 
REMARK    2  A    between atoms: C10_10  and  N14_11 
REMARK    3  A    between atoms: N14_11  and  C15_12 
ROOT
HETATM    1  C1    D T9001       9.959   0.605  -4.368  1.00 83.47     0.092 A 
HETATM    2  C2    D T9001       9.029   1.057  -5.361  1.00 83.68     0.109 A 
HETATM    3  C3    D T9001       8.127   0.124  -5.973  1.00 82.47     0.044 A 
HETATM    4  C4    D T9001       8.114  -1.237  -5.637  1.00 82.50     0.088 A 
HETATM    5  C5    D T9001       9.046  -1.715  -4.641  1.00 84.12     0.055 A 
HETATM    6  C6    D T9001       9.958  -0.776  -4.019  1.00 83.53     0.021 A 
HETATM    7  N7    D T9001       7.221  -2.045  -6.269  1.00 81.78    -0.224 NA
HETATM    8  C8    D T9001       7.223  -3.359  -5.925  1.00 83.59     0.200 A 
HETATM    9  N9    D T9001       8.038  -3.938  -5.012  1.00 84.30    -0.205 NA
HETATM   10  C10   D T9001       8.957  -3.124  -4.360  1.00 85.59     0.166 A 
HETATM   11  N13   D T9001      10.863   1.494  -3.740  1.00 82.67    -0.099 NA
ENDROOT
BRANCH  10  12
HETATM   12  N14   D T9001       9.841  -3.708  -3.384  1.00 86.44    -0.227 NA
BRANCH  12  13
HETATM   13  C15   D T9001       9.578  -3.884  -1.997  1.00 87.38     0.084 A 
HETATM   14  C16   D T9001      10.191  -3.048  -1.006  1.00 88.13     0.033 A 
HETATM   15  C17   D T9001       9.930  -3.233   0.371  1.00 88.88     0.087 A 
HETATM   16  C18   D T9001       9.048  -4.266   0.782  1.00 88.55     0.151 A 
HETATM   17 CL     D T9001      10.702  -2.195   1.522  1.00 89.26    -0.080 Cl
HETATM   18  C19   D T9001       8.422  -5.113  -0.177  1.00 87.62     0.032 A 
HETATM   19  F21   D T9001       8.792  -4.458   2.088  1.00 88.92    -0.203 F 
HETATM   20  C20   D T9001       8.687  -4.924  -1.563  1.00 87.82     0.021 A 
ENDBRANCH  12  13
ENDBRANCH  10  12
BRANCH   2  21
HETATM   21  O11   D T9001       9.083   2.418  -5.652  1.00 85.44    -0.327 OA
HETATM   22  C12   D T9001       9.013   2.817  -7.025  1.00 84.41     0.181 C 
ENDBRANCH   2  21
TORSDOF 3
ENDMDL
MODEL 6
REMARK VINA RESULT:    -6.868      1.942      2.657
REMARK INTER + INTRA:          -8.213
REMARK INTER:                  -7.647
REMARK INTRA:                  -0.566
REMARK UNBOUND:                -0.141
REMARK  3 active torsions:
REMARK  status: ('A' for Active; 'I' for Inactive)
REMARK    1  A    between atoms: C2_2  and  O11_20 
REMARK    2  A    between atoms: C10_10  and  N14_11 
REMARK    3  A    between atoms: N14_11  and  C15_12 
ROOT
HETATM    1  C1    D T9001       9.174  -6.400  -2.494  1.00 83.47     0.092 A 
HETATM    2  C2    D T9001       8.798  -6.672  -1.138  1.00 83.68     0.109 A 
HETATM    3  C3    D T9001       8.788  -5.612  -0.172  1.00 82.47     0.044 A 
HETATM    4  C4    D T9001       9.136  -4.295  -0.501  1.00 82.50     0.088 A 
HETATM    5  C5    D T9001       9.522  -3.998  -1.861  1.00 84.12     0.055 A 
HETATM    6  C6    D T9001       9.534  -5.066  -2.841  1.00 83.53     0.021 A 
HETATM    7  N7    D T9001       9.095  -3.356   0.483  1.00 81.78    -0.224 NA
HETATM    8  C8    D T9001       9.433  -2.085   0.141  1.00 83.59     0.200 A 
HETATM    9  N9    D T9001       9.812  -1.670  -1.091  1.00 84.30    -0.205 NA
HETATM   10  C10   D T9001       9.860  -2.620  -2.105  1.00 85.59     0.166 A 
HETATM   11  N13   D T9001       9.194  -7.417  -3.476  1.00 82.67    -0.099 NA
ENDROOT
BRANCH  10  12
HETATM   12  N14   D T9001      10.262  -2.212  -3.426  1.00 86.44    -0.227 NA
BRANCH  12  13
HETATM   13  C15   D T9001       9.484  -1.474  -4.361  1.00 87.38     0.084 A 
HETATM   14  C16   D T9001       9.847  -0.143  -4.752  1.00 88.13     0.033 A 
HETATM   15  C17   D T9001       9.066   0.588  -5.676  1.00 88.88     0.087 A 
HETATM   16  C18   D T9001       7.899  -0.005  -6.225  1.00 88.55     0.151 A 
HETATM   17 CL     D T9001       9.552   2.193  -6.108  1.00 89.26    -0.080 Cl
HETATM   18  C19   D T9001       7.512  -1.326  -5.859  1.00 87.62     0.032 A 
HETATM   19  F21   D T9001       7.143   0.677  -7.103  1.00 88.92    -0.203 F 
HETATM   20  C20   D T9001       8.301  -2.058  -4.928  1.00 87.82     0.021 A 
ENDBRANCH  12  13
ENDBRANCH  10  12
BRANCH   2  21
HETATM   21  O11   D T9001       8.457  -7.996  -0.869  1.00 85.44    -0.327 OA
HETATM   22  C12   D T9001       7.072  -8.312  -0.686  1.00 84.41     0.181 C 
ENDBRANCH   2  21
TORSDOF 3
ENDMDL
MODEL 7
REMARK VINA RESULT:    -6.828     14.584     16.938
REMARK INTER + INTRA:          -8.167
REMARK INTER:                  -7.591
REMARK INTRA:                  -0.576
REMARK UNBOUND:                -0.141
REMARK  3 active torsions:
REMARK  status: ('A' for Active; 'I' for Inactive)
REMARK    1  A    between atoms: C2_2  and  O11_20 
REMARK    2  A    between atoms: C10_10  and  N14_11 
REMARK    3  A    between atoms: N14_11  and  C15_12 
ROOT
HETATM    1  C1    D T9001       0.044  12.657 -11.259  1.00 83.47     0.092 A 
HETATM    2  C2    D T9001      -0.794  11.528 -10.985  1.00 83.68     0.109 A 
HETATM    3  C3    D T9001      -0.292  10.439 -10.198  1.00 82.47     0.044 A 
HETATM    4  C4    D T9001       1.008  10.429  -9.675  1.00 82.50     0.088 A 
HETATM    5  C5    D T9001       1.873  11.556  -9.942  1.00 84.12     0.055 A 
HETATM    6  C6    D T9001       1.369  12.659 -10.737  1.00 83.53     0.021 A 
HETATM    7  N7    D T9001       1.395   9.353  -8.939  1.00 81.78    -0.224 NA
HETATM    8  C8    D T9001       2.658   9.366  -8.438  1.00 83.59     0.200 A 
HETATM    9  N9    D T9001       3.569  10.353  -8.611  1.00 84.30    -0.205 NA
HETATM   10  C10   D T9001       3.187  11.458  -9.363  1.00 85.59     0.166 A 
HETATM   11  N13   D T9001      -0.415  13.752 -12.029  1.00 82.67    -0.099 NA
ENDROOT
BRANCH  10  12
HETATM   12  N14   D T9001       4.132  12.525  -9.568  1.00 86.44    -0.227 NA
BRANCH  12  13
HETATM   13  C15   D T9001       5.125  12.597 -10.585  1.00 87.38     0.084 A 
HETATM   14  C16   D T9001       4.882  13.281 -11.822  1.00 88.13     0.033 A 
HETATM   15  C17   D T9001       5.871  13.343 -12.830  1.00 88.88     0.087 A 
HETATM   16  C18   D T9001       7.126  12.714 -12.617  1.00 88.55     0.151 A 
HETATM   17 CL     D T9001       5.520  14.180 -14.304  1.00 89.26    -0.080 Cl
HETATM   18  C19   D T9001       7.399  12.028 -11.399  1.00 87.62     0.032 A 
HETATM   19  F21   D T9001       8.076  12.760 -13.567  1.00 88.92    -0.203 F 
HETATM   20  C20   D T9001       6.400  11.968 -10.386  1.00 87.82     0.021 A 
ENDBRANCH  12  13
ENDBRANCH  10  12
BRANCH   2  21
HETATM   21  O11   D T9001      -2.077  11.594 -11.525  1.00 85.44    -0.327 OA
HETATM   22  C12   D T9001      -3.104  10.799 -10.921  1.00 84.41     0.181 C 
ENDBRANCH   2  21
TORSDOF 3
ENDMDL
MODEL 8
REMARK VINA RESULT:    -6.585      3.112      4.017
REMARK INTER + INTRA:          -7.881
REMARK INTER:                  -7.294
REMARK INTRA:                  -0.587
REMARK UNBOUND:                -0.141
REMARK  3 active torsions:
REMARK  status: ('A' for Active; 'I' for Inactive)
REMARK    1  A    between atoms: C2_2  and  O11_20 
REMARK    2  A    between atoms: C10_10  and  N14_11 
REMARK    3  A    between atoms: N14_11  and  C15_12 
ROOT
HETATM    1  C1    D T9001       9.152  -4.479   0.102  1.00 83.47     0.092 A 
HETATM    2  C2    D T9001       9.695  -4.218   1.403  1.00 83.68     0.109 A 
HETATM    3  C3    D T9001      10.840  -3.365   1.541  1.00 82.47     0.044 A 
HETATM    4  C4    D T9001      11.464  -2.763   0.440  1.00 82.50     0.088 A 
HETATM    5  C5    D T9001      10.935  -3.015  -0.881  1.00 84.12     0.055 A 
HETATM    6  C6    D T9001       9.778  -3.877  -1.026  1.00 83.53     0.021 A 
HETATM    7  N7    D T9001      12.543  -1.968   0.670  1.00 81.78    -0.224 NA
HETATM    8  C8    D T9001      13.129  -1.392  -0.411  1.00 83.59     0.200 A 
HETATM    9  N9    D T9001      12.739  -1.542  -1.699  1.00 84.30    -0.205 NA
HETATM   10  C10   D T9001      11.638  -2.353  -1.948  1.00 85.59     0.166 A 
HETATM   11  N13   D T9001       8.022  -5.313  -0.076  1.00 82.67    -0.099 NA
ENDROOT
BRANCH  10  12
HETATM   12  N14   D T9001      11.198  -2.537  -3.307  1.00 86.44    -0.227 NA
BRANCH  12  13
HETATM   13  C15   D T9001      10.248  -1.742  -4.007  1.00 87.38     0.084 A 
HETATM   14  C16   D T9001      10.602  -0.469  -4.564  1.00 88.13     0.033 A 
HETATM   15  C17   D T9001       9.651   0.319  -5.252  1.00 88.88     0.087 A 
HETATM   16  C18   D T9001       8.321  -0.157  -5.393  1.00 88.55     0.151 A 
HETATM   17 CL     D T9001      10.135   1.850  -5.901  1.00 89.26    -0.080 Cl
HETATM   18  C19   D T9001       7.938  -1.418  -4.853  1.00 87.62     0.032 A 
HETATM   19  F21   D T9001       7.403   0.581  -6.042  1.00 88.92    -0.203 F 
HETATM   20  C20   D T9001       8.898  -2.207  -4.160  1.00 87.82     0.021 A 
ENDBRANCH  12  13
ENDBRANCH  10  12
BRANCH   2  21
HETATM   21  O11   D T9001       9.033  -4.838   2.460  1.00 85.44    -0.327 OA
HETATM   22  C12   D T9001       9.753  -5.804   3.234  1.00 84.41     0.181 C 
ENDBRANCH   2  21
TORSDOF 3
ENDMDL
MODEL 9
REMARK VINA RESULT:    -6.552     16.160     17.079
REMARK INTER + INTRA:          -7.843
REMARK INTER:                  -7.361
REMARK INTRA:                  -0.482
REMARK UNBOUND:                -0.141
REMARK  3 active torsions:
REMARK  status: ('A' for Active; 'I' for Inactive)
REMARK    1  A    between atoms: C2_2  and  O11_20 
REMARK    2  A    between atoms: C10_10  and  N14_11 
REMARK    3  A    between atoms: N14_11  and  C15_12 
ROOT
HETATM    1  C1    D T9001       0.656  11.675 -10.833  1.00 83.47     0.092 A 
HETATM    2  C2    D T9001      -0.269  10.581 -10.891  1.00 83.68     0.109 A 
HETATM    3  C3    D T9001      -0.154   9.603 -11.934  1.00 82.47     0.044 A 
HETATM    4  C4    D T9001       0.842   9.669 -12.918  1.00 82.50     0.088 A 
HETATM    5  C5    D T9001       1.783  10.765 -12.881  1.00 84.12     0.055 A 
HETATM    6  C6    D T9001       1.671  11.756 -11.829  1.00 83.53     0.021 A 
HETATM    7  N7    D T9001       0.872   8.694 -13.866  1.00 81.78    -0.224 NA
HETATM    8  C8    D T9001       1.848   8.776 -14.808  1.00 83.59     0.200 A 
HETATM    9  N9    D T9001       2.791   9.745 -14.890  1.00 84.30    -0.205 NA
HETATM   10  C10   D T9001       2.769  10.749 -13.929  1.00 85.59     0.166 A 
HETATM   11  N13   D T9001       0.577  12.658  -9.819  1.00 82.67    -0.099 NA
ENDROOT
BRANCH  10  12
HETATM   12  N14   D T9001       3.756  11.796 -13.988  1.00 86.44    -0.227 NA
BRANCH  12  13
HETATM   13  C15   D T9001       4.912  11.922 -13.168  1.00 87.38     0.084 A 
HETATM   14  C16   D T9001       4.973  12.879 -12.102  1.00 88.13     0.033 A 
HETATM   15  C17   D T9001       6.128  13.004 -11.296  1.00 88.88     0.087 A 
HETATM   16  C18   D T9001       7.248  12.169 -11.547  1.00 88.55     0.151 A 
HETATM   17 CL     D T9001       6.145  14.180 -10.025  1.00 89.26    -0.080 Cl
HETATM   18  C19   D T9001       7.218  11.208 -12.597  1.00 87.62     0.032 A 
HETATM   19  F21   D T9001       8.355  12.277 -10.791  1.00 88.92    -0.203 F 
HETATM   20  C20   D T9001       6.055  11.086 -13.407  1.00 87.82     0.021 A 
ENDBRANCH  12  13
ENDBRANCH  10  12
BRANCH   2  21
HETATM   21  O11   D T9001      -1.233  10.562  -9.887  1.00 85.44    -0.327 OA
HETATM   22  C12   D T9001      -2.606  10.721 -10.265  1.00 84.41     0.181 C 
ENDBRANCH   2  21
TORSDOF 3
ENDMDL
