MODEL 1
REMARK VINA RESULT:    -7.712      0.000      0.000
REMARK INTER + INTRA:          -9.609
REMARK INTER:                  -9.064
REMARK INTRA:                  -0.546
REMARK UNBOUND:                -0.546
REMARK  3 active torsions:
REMARK  status: ('A' for Active; 'I' for Inactive)
REMARK    1  A    between atoms: C2_2  and  O11_20 
REMARK    2  A    between atoms: C10_10  and  N14_11 
REMARK    3  A    between atoms: N14_11  and  C15_12 
ROOT
HETATM    1  C1    D T9001     -12.680   6.917  -2.710  1.00 83.47     0.092 A 
HETATM    2  C2    D T9001     -13.278   6.577  -1.453  1.00 83.68     0.109 A 
HETATM    3  C3    D T9001     -13.748   5.241  -1.224  1.00 82.47     0.044 A 
HETATM    4  C4    D T9001     -13.647   4.234  -2.194  1.00 82.50     0.088 A 
HETATM    5  C5    D T9001     -13.050   4.557  -3.470  1.00 84.12     0.055 A 
HETATM    6  C6    D T9001     -12.573   5.905  -3.706  1.00 83.53     0.021 A 
HETATM    7  N7    D T9001     -14.120   2.996  -1.886  1.00 81.78    -0.224 NA
HETATM    8  C8    D T9001     -14.008   2.035  -2.838  1.00 83.59     0.200 A 
HETATM    9  N9    D T9001     -13.473   2.198  -4.071  1.00 84.30    -0.205 NA
HETATM   10  C10   D T9001     -12.988   3.460  -4.401  1.00 85.59     0.166 A 
HETATM   11  N13   D T9001     -12.201   8.223  -2.973  1.00 82.67    -0.099 NA
ENDROOT
BRANCH  10  12
HETATM   12  N14   D T9001     -12.414   3.670  -5.705  1.00 86.44    -0.227 NA
BRANCH  12  13
HETATM   13  C15   D T9001     -11.313   2.969  -6.272  1.00 87.38     0.084 A 
HETATM   14  C16   D T9001      -9.999   3.055  -5.708  1.00 88.13     0.033 A 
HETATM   15  C17   D T9001      -8.907   2.361  -6.281  1.00 88.88     0.087 A 
HETATM   16  C18   D T9001      -9.117   1.567  -7.439  1.00 88.55     0.151 A 
HETATM   17 CL     D T9001      -7.342   2.506  -5.558  1.00 89.26    -0.080 Cl
HETATM   18  C19   D T9001     -10.412   1.459  -8.023  1.00 87.62     0.032 A 
HETATM   19  F21   D T9001      -8.091   0.903  -7.998  1.00 88.92    -0.203 F 
HETATM   20  C20   D T9001     -11.507   2.160  -7.443  1.00 87.82     0.021 A 
ENDBRANCH  12  13
ENDBRANCH  10  12
BRANCH   2  21
HETATM   21  O11   D T9001     -13.347   7.614  -0.525  1.00 85.44    -0.327 OA
HETATM   22  C12   D T9001     -14.494   7.678   0.330  1.00 84.41     0.181 C 
ENDBRANCH   2  21
TORSDOF 3
ENDMDL
MODEL 2
REMARK VINA RESULT:    -7.322      3.590      4.850
REMARK INTER + INTRA:          -9.151
REMARK INTER:                  -8.600
REMARK INTRA:                  -0.551
REMARK UNBOUND:                -0.546
REMARK  3 active torsions:
REMARK  status: ('A' for Active; 'I' for Inactive)
REMARK    1  A    between atoms: C2_2  and  O11_20 
REMARK    2  A    between atoms: C10_10  and  N14_11 
REMARK    3  A    between atoms: N14_11  and  C15_12 
ROOT
HETATM    1  C1    D T9001     -12.947   4.790  -4.107  1.00 83.47     0.092 A 
HETATM    2  C2    D T9001     -11.709   5.320  -3.616  1.00 83.68     0.109 A 
HETATM    3  C3    D T9001     -10.468   4.881  -4.189  1.00 82.47     0.044 A 
HETATM    4  C4    D T9001     -10.411   3.941  -5.227  1.00 82.50     0.088 A 
HETATM    5  C5    D T9001     -11.649   3.393  -5.734  1.00 84.12     0.055 A 
HETATM    6  C6    D T9001     -12.905   3.832  -5.160  1.00 83.53     0.021 A 
HETATM    7  N7    D T9001      -9.189   3.588  -5.707  1.00 81.78    -0.224 NA
HETATM    8  C8    D T9001      -9.158   2.679  -6.715  1.00 83.59     0.200 A 
HETATM    9  N9    D T9001     -10.235   2.086  -7.283  1.00 84.30    -0.205 NA
HETATM   10  C10   D T9001     -11.492   2.436  -6.799  1.00 85.59     0.166 A 
HETATM   11  N13   D T9001     -14.192   5.199  -3.571  1.00 82.67    -0.099 NA
ENDROOT
BRANCH  10  12
HETATM   12  N14   D T9001     -12.660   1.825  -7.379  1.00 86.44    -0.227 NA
BRANCH  12  13
HETATM   13  C15   D T9001     -13.120   0.495  -7.162  1.00 87.38     0.084 A 
HETATM   14  C16   D T9001     -12.786  -0.569  -8.060  1.00 88.13     0.033 A 
HETATM   15  C17   D T9001     -13.252  -1.887  -7.843  1.00 88.88     0.087 A 
HETATM   16  C18   D T9001     -14.069  -2.159  -6.714  1.00 88.55     0.151 A 
HETATM   17 CL     D T9001     -12.819  -3.131  -8.965  1.00 89.26    -0.080 Cl
HETATM   18  C19   D T9001     -14.418  -1.123  -5.801  1.00 87.62     0.032 A 
HETATM   19  F21   D T9001     -14.524  -3.404  -6.494  1.00 88.92    -0.203 F 
HETATM   20  C20   D T9001     -13.947   0.201  -6.025  1.00 87.82     0.021 A 
ENDBRANCH  12  13
ENDBRANCH  10  12
BRANCH   2  21
HETATM   21  O11   D T9001     -11.825   6.253  -2.590  1.00 85.44    -0.327 OA
HETATM   22  C12   D T9001     -10.698   7.092  -2.311  1.00 84.41     0.181 C 
ENDBRANCH   2  21
TORSDOF 3
ENDMDL
MODEL 3
REMARK VINA RESULT:    -7.259      4.640      7.634
REMARK INTER + INTRA:          -9.078
REMARK INTER:                  -8.559
REMARK INTRA:                  -0.519
REMARK UNBOUND:                -0.546
REMARK  3 active torsions:
REMARK  status: ('A' for Active; 'I' for Inactive)
REMARK    1  A    between atoms: C2_2  and  O11_20 
REMARK    2  A    between atoms: C10_10  and  N14_11 
REMARK    3  A    between atoms: N14_11  and  C15_12 
ROOT
HETATM    1  C1    D T9001     -11.608   3.370  -5.493  1.00 83.47     0.092 A 
HETATM    2  C2    D T9001     -10.200   3.604  -5.630  1.00 83.68     0.109 A 
HETATM    3  C3    D T9001      -9.562   4.609  -4.827  1.00 82.47     0.044 A 
HETATM    4  C4    D T9001     -10.267   5.385  -3.897  1.00 82.50     0.088 A 
HETATM    5  C5    D T9001     -11.688   5.166  -3.746  1.00 84.12     0.055 A 
HETATM    6  C6    D T9001     -12.337   4.153  -4.554  1.00 83.53     0.021 A 
HETATM    7  N7    D T9001      -9.577   6.313  -3.180  1.00 81.78    -0.224 NA
HETATM    8  C8    D T9001     -10.278   7.050  -2.283  1.00 83.59     0.200 A 
HETATM    9  N9    D T9001     -11.607   6.951  -2.040  1.00 84.30    -0.205 NA
HETATM   10  C10   D T9001     -12.327   6.008  -2.768  1.00 85.59     0.166 A 
HETATM   11  N13   D T9001     -12.273   2.386  -6.264  1.00 82.67    -0.099 NA
ENDROOT
BRANCH  10  12
HETATM   12  N14   D T9001     -13.741   5.877  -2.536  1.00 86.44    -0.227 NA
BRANCH  12  13
HETATM   13  C15   D T9001     -14.370   5.466  -1.327  1.00 87.38     0.084 A 
HETATM   14  C16   D T9001     -14.708   6.408  -0.301  1.00 88.13     0.033 A 
HETATM   15  C17   D T9001     -15.326   5.993   0.902  1.00 88.88     0.087 A 
HETATM   16  C18   D T9001     -15.614   4.617   1.098  1.00 88.55     0.151 A 
HETATM   17 CL     D T9001     -15.707   7.175   2.106  1.00 89.26    -0.080 Cl
HETATM   18  C19   D T9001     -15.292   3.656   0.097  1.00 87.62     0.032 A 
HETATM   19  F21   D T9001     -16.199   4.204   2.236  1.00 88.92    -0.203 F 
HETATM   20  C20   D T9001     -14.670   4.078  -1.111  1.00 87.82     0.021 A 
ENDBRANCH  12  13
ENDBRANCH  10  12
BRANCH   2  21
HETATM   21  O11   D T9001      -9.550   2.801  -6.563  1.00 85.44    -0.327 OA
HETATM   22  C12   D T9001      -8.307   2.200  -6.184  1.00 84.41     0.181 C 
ENDBRANCH   2  21
TORSDOF 3
ENDMDL
MODEL 4
REMARK VINA RESULT:    -7.096      4.551      7.204
REMARK INTER + INTRA:          -8.885
REMARK INTER:                  -8.348
REMARK INTRA:                  -0.537
REMARK UNBOUND:                -0.546
REMARK  3 active torsions:
REMARK  status: ('A' for Active; 'I' for Inactive)
REMARK    1  A    between atoms: C2_2  and  O11_20 
REMARK    2  A    between atoms: C10_10  and  N14_11 
REMARK    3  A    between atoms: N14_11  and  C15_12 
ROOT
HETATM    1  C1    D T9001     -10.757   3.444  -5.916  1.00 83.47     0.092 A 
HETATM    2  C2    D T9001     -11.712   2.655  -6.637  1.00 83.68     0.109 A 
HETATM    3  C3    D T9001     -13.097   2.696  -6.266  1.00 82.47     0.044 A 
HETATM    4  C4    D T9001     -13.568   3.488  -5.209  1.00 82.50     0.088 A 
HETATM    5  C5    D T9001     -12.621   4.289  -4.467  1.00 84.12     0.055 A 
HETATM    6  C6    D T9001     -11.220   4.252  -4.838  1.00 83.53     0.021 A 
HETATM    7  N7    D T9001     -14.899   3.463  -4.932  1.00 81.78    -0.224 NA
HETATM    8  C8    D T9001     -15.334   4.241  -3.908  1.00 83.59     0.200 A 
HETATM    9  N9    D T9001     -14.560   5.036  -3.132  1.00 84.30    -0.205 NA
HETATM   10  C10   D T9001     -13.195   5.070  -3.403  1.00 85.59     0.166 A 
HETATM   11  N13   D T9001      -9.382   3.433  -6.253  1.00 82.67    -0.099 NA
ENDROOT
BRANCH  10  12
HETATM   12  N14   D T9001     -12.342   5.904  -2.596  1.00 86.44    -0.227 NA
BRANCH  12  13
HETATM   13  C15   D T9001     -12.404   7.321  -2.479  1.00 87.38     0.084 A 
HETATM   14  C16   D T9001     -12.624   7.959  -1.215  1.00 88.13     0.033 A 
HETATM   15  C17   D T9001     -12.692   9.367  -1.106  1.00 88.88     0.087 A 
HETATM   16  C18   D T9001     -12.541  10.164  -2.272  1.00 88.55     0.151 A 
HETATM   17 CL     D T9001     -12.964  10.082   0.446  1.00 89.26    -0.080 Cl
HETATM   18  C19   D T9001     -12.319   9.560  -3.543  1.00 87.62     0.032 A 
HETATM   19  F21   D T9001     -12.605  11.504  -2.187  1.00 88.92    -0.203 F 
HETATM   20  C20   D T9001     -12.252   8.143  -3.647  1.00 87.82     0.021 A 
ENDBRANCH  12  13
ENDBRANCH  10  12
BRANCH   2  21
HETATM   21  O11   D T9001     -11.190   1.893  -7.679  1.00 85.44    -0.327 OA
HETATM   22  C12   D T9001     -11.743   0.592  -7.905  1.00 84.41     0.181 C 
ENDBRANCH   2  21
TORSDOF 3
ENDMDL
MODEL 5
REMARK VINA RESULT:    -7.077      1.509      2.604
REMARK INTER + INTRA:          -8.864
REMARK INTER:                  -8.995
REMARK INTRA:                   0.131
REMARK UNBOUND:                -0.546
REMARK  3 active torsions:
REMARK  status: ('A' for Active; 'I' for Inactive)
REMARK    1  A    between atoms: C2_2  and  O11_20 
REMARK    2  A    between atoms: C10_10  and  N14_11 
REMARK    3  A    between atoms: N14_11  and  C15_12 
ROOT
HETATM    1  C1    D T9001     -15.131   5.022  -1.802  1.00 83.47     0.092 A 
HETATM    2  C2    D T9001     -14.645   5.933  -0.807  1.00 83.68     0.109 A 
HETATM    3  C3    D T9001     -13.313   6.455  -0.908  1.00 82.47     0.044 A 
HETATM    4  C4    D T9001     -12.448   6.108  -1.955  1.00 82.50     0.088 A 
HETATM    5  C5    D T9001     -12.917   5.189  -2.967  1.00 84.12     0.055 A 
HETATM    6  C6    D T9001     -14.262   4.658  -2.870  1.00 83.53     0.021 A 
HETATM    7  N7    D T9001     -11.203   6.656  -1.968  1.00 81.78    -0.224 NA
HETATM    8  C8    D T9001     -10.384   6.309  -2.993  1.00 83.59     0.200 A 
HETATM    9  N9    D T9001     -10.692   5.462  -4.004  1.00 84.30    -0.205 NA
HETATM   10  C10   D T9001     -11.962   4.893  -4.002  1.00 85.59     0.166 A 
HETATM   11  N13   D T9001     -16.440   4.487  -1.740  1.00 82.67    -0.099 NA
ENDROOT
BRANCH  10  12
HETATM   12  N14   D T9001     -12.323   3.986  -5.061  1.00 86.44    -0.227 NA
BRANCH  12  13
HETATM   13  C15   D T9001     -11.432   3.232  -5.876  1.00 87.38     0.084 A 
HETATM   14  C16   D T9001     -10.033   3.151  -5.579  1.00 88.13     0.033 A 
HETATM   15  C17   D T9001      -9.151   2.407  -6.397  1.00 88.88     0.087 A 
HETATM   16  C18   D T9001      -9.661   1.730  -7.537  1.00 88.55     0.151 A 
HETATM   17 CL     D T9001      -7.470   2.347  -5.991  1.00 89.26    -0.080 Cl
HETATM   18  C19   D T9001     -11.048   1.791  -7.858  1.00 87.62     0.032 A 
HETATM   19  F21   D T9001      -8.838   1.021  -8.327  1.00 88.92    -0.203 F 
HETATM   20  C20   D T9001     -11.931   2.541  -7.032  1.00 87.82     0.021 A 
ENDBRANCH  12  13
ENDBRANCH  10  12
BRANCH   2  21
HETATM   21  O11   D T9001     -15.548   6.247   0.205  1.00 85.44    -0.327 OA
HETATM   22  C12   D T9001     -15.148   6.014   1.561  1.00 84.41     0.181 C 
ENDBRANCH   2  21
TORSDOF 3
ENDMDL
MODEL 6
REMARK VINA RESULT:    -7.068      4.537      7.615
REMARK INTER + INTRA:          -8.853
REMARK INTER:                  -8.449
REMARK INTRA:                  -0.404
REMARK UNBOUND:                -0.546
REMARK  3 active torsions:
REMARK  status: ('A' for Active; 'I' for Inactive)
REMARK    1  A    between atoms: C2_2  and  O11_20 
REMARK    2  A    between atoms: C10_10  and  N14_11 
REMARK    3  A    between atoms: N14_11  and  C15_12 
ROOT
HETATM    1  C1    D T9001     -11.935   3.323  -5.401  1.00 83.47     0.092 A 
HETATM    2  C2    D T9001     -10.525   3.544  -5.544  1.00 83.68     0.109 A 
HETATM    3  C3    D T9001      -9.884   4.577  -4.781  1.00 82.47     0.044 A 
HETATM    4  C4    D T9001     -10.588   5.394  -3.885  1.00 82.50     0.088 A 
HETATM    5  C5    D T9001     -12.010   5.189  -3.729  1.00 84.12     0.055 A 
HETATM    6  C6    D T9001     -12.662   4.147  -4.497  1.00 83.53     0.021 A 
HETATM    7  N7    D T9001      -9.894   6.346  -3.205  1.00 81.78    -0.224 NA
HETATM    8  C8    D T9001     -10.594   7.123  -2.340  1.00 83.59     0.200 A 
HETATM    9  N9    D T9001     -11.924   7.041  -2.096  1.00 84.30    -0.205 NA
HETATM   10  C10   D T9001     -12.646   6.073  -2.787  1.00 85.59     0.166 A 
HETATM   11  N13   D T9001     -12.603   2.312  -6.134  1.00 82.67    -0.099 NA
ENDROOT
BRANCH  10  12
HETATM   12  N14   D T9001     -14.063   5.958  -2.554  1.00 86.44    -0.227 NA
BRANCH  12  13
HETATM   13  C15   D T9001     -14.694   5.485  -1.369  1.00 87.38     0.084 A 
HETATM   14  C16   D T9001     -15.590   4.368  -1.393  1.00 88.13     0.033 A 
HETATM   15  C17   D T9001     -16.220   3.908  -0.214  1.00 88.88     0.087 A 
HETATM   16  C18   D T9001     -15.962   4.567   1.017  1.00 88.55     0.151 A 
HETATM   17 CL     D T9001     -17.296   2.556  -0.304  1.00 89.26    -0.080 Cl
HETATM   18  C19   D T9001     -15.074   5.680   1.074  1.00 87.62     0.032 A 
HETATM   19  F21   D T9001     -16.554   4.145   2.147  1.00 88.92    -0.203 F 
HETATM   20  C20   D T9001     -14.443   6.140  -0.116  1.00 87.82     0.021 A 
ENDBRANCH  12  13
ENDBRANCH  10  12
BRANCH   2  21
HETATM   21  O11   D T9001      -9.877   2.701  -6.442  1.00 85.44    -0.327 OA
HETATM   22  C12   D T9001      -8.470   2.492  -6.276  1.00 84.41     0.181 C 
ENDBRANCH   2  21
TORSDOF 3
ENDMDL
MODEL 7
REMARK VINA RESULT:    -7.057      5.949      8.910
REMARK INTER + INTRA:          -8.841
REMARK INTER:                  -8.289
REMARK INTRA:                  -0.552
REMARK UNBOUND:                -0.546
REMARK  3 active torsions:
REMARK  status: ('A' for Active; 'I' for Inactive)
REMARK    1  A    between atoms: C2_2  and  O11_20 
REMARK    2  A    between atoms: C10_10  and  N14_11 
REMARK    3  A    between atoms: N14_11  and  C15_12 
ROOT
HETATM    1  C1    D T9001     -11.805  -2.242 -11.380  1.00 83.47     0.092 A 
HETATM    2  C2    D T9001     -12.581  -3.401 -11.050  1.00 83.68     0.109 A 
HETATM    3  C3    D T9001     -13.298  -3.450  -9.807  1.00 82.47     0.044 A 
HETATM    4  C4    D T9001     -13.273  -2.395  -8.885  1.00 82.50     0.088 A 
HETATM    5  C5    D T9001     -12.494  -1.219  -9.197  1.00 84.12     0.055 A 
HETATM    6  C6    D T9001     -11.769  -1.164 -10.451  1.00 83.53     0.021 A 
HETATM    7  N7    D T9001     -13.985  -2.532  -7.734  1.00 81.78    -0.224 NA
HETATM    8  C8    D T9001     -13.950  -1.497  -6.857  1.00 83.59     0.200 A 
HETATM    9  N9    D T9001     -13.265  -0.340  -7.021  1.00 84.30    -0.205 NA
HETATM   10  C10   D T9001     -12.530  -0.188  -8.193  1.00 85.59     0.166 A 
HETATM   11  N13   D T9001     -11.087  -2.154 -12.596  1.00 82.67    -0.099 NA
ENDROOT
BRANCH  10  12
HETATM   12  N14   D T9001     -11.788   1.029  -8.399  1.00 86.44    -0.227 NA
BRANCH  12  13
HETATM   13  C15   D T9001     -10.641   1.459  -7.674  1.00 87.38     0.084 A 
HETATM   14  C16   D T9001     -10.713   2.534  -6.729  1.00 88.13     0.033 A 
HETATM   15  C17   D T9001      -9.568   2.962  -6.017  1.00 88.88     0.087 A 
HETATM   16  C18   D T9001      -8.324   2.316  -6.244  1.00 88.55     0.151 A 
HETATM   17 CL     D T9001      -9.714   4.268  -4.892  1.00 89.26    -0.080 Cl
HETATM   18  C19   D T9001      -8.221   1.243  -7.175  1.00 87.62     0.032 A 
HETATM   19  F21   D T9001      -7.226   2.712  -5.578  1.00 88.92    -0.203 F 
HETATM   20  C20   D T9001      -9.375   0.817  -7.890  1.00 87.82     0.021 A 
ENDBRANCH  12  13
ENDBRANCH  10  12
BRANCH   2  21
HETATM   21  O11   D T9001     -12.575  -4.415 -12.004  1.00 85.44    -0.327 OA
HETATM   22  C12   D T9001     -13.826  -4.811 -12.576  1.00 84.41     0.181 C 
ENDBRANCH   2  21
TORSDOF 3
ENDMDL
MODEL 8
REMARK VINA RESULT:    -6.842     15.791     16.840
REMARK INTER + INTRA:          -8.587
REMARK INTER:                  -8.049
REMARK INTRA:                  -0.538
REMARK UNBOUND:                -0.546
REMARK  3 active torsions:
REMARK  status: ('A' for Active; 'I' for Inactive)
REMARK    1  A    between atoms: C2_2  and  O11_20 
REMARK    2  A    between atoms: C10_10  and  N14_11 
REMARK    3  A    between atoms: N14_11  and  C15_12 
ROOT
HETATM    1  C1    D T9001      -3.570  -5.445 -12.585  1.00 83.47     0.092 A 
HETATM    2  C2    D T9001      -3.304  -5.985 -11.283  1.00 83.68     0.109 A 
HETATM    3  C3    D T9001      -2.268  -5.411 -10.472  1.00 82.47     0.044 A 
HETATM    4  C4    D T9001      -1.491  -4.327 -10.902  1.00 82.50     0.088 A 
HETATM    5  C5    D T9001      -1.742  -3.771 -12.212  1.00 84.12     0.055 A 
HETATM    6  C6    D T9001      -2.786  -4.346 -13.036  1.00 83.53     0.021 A 
HETATM    7  N7    D T9001      -0.533  -3.850 -10.063  1.00 81.78    -0.224 NA
HETATM    8  C8    D T9001       0.205  -2.798 -10.498  1.00 83.59     0.200 A 
HETATM    9  N9    D T9001       0.078  -2.182 -11.698  1.00 84.30    -0.205 NA
HETATM   10  C10   D T9001      -0.897  -2.660 -12.568  1.00 85.59     0.166 A 
HETATM   11  N13   D T9001      -4.585  -5.981 -13.414  1.00 82.67    -0.099 NA
ENDROOT
BRANCH  10  12
HETATM   12  N14   D T9001      -1.059  -2.030 -13.852  1.00 86.44    -0.227 NA
BRANCH  12  13
HETATM   13  C15   D T9001      -0.762  -2.599 -15.122  1.00 87.38     0.084 A 
HETATM   14  C16   D T9001      -1.730  -2.621 -16.178  1.00 88.13     0.033 A 
HETATM   15  C17   D T9001      -1.431  -3.195 -17.436  1.00 88.88     0.087 A 
HETATM   16  C18   D T9001      -0.149  -3.764 -17.655  1.00 88.55     0.151 A 
HETATM   17 CL     D T9001      -2.641  -3.195 -18.672  1.00 89.26    -0.080 Cl
HETATM   18  C19   D T9001       0.836  -3.757 -16.626  1.00 87.62     0.032 A 
HETATM   19  F21   D T9001       0.151  -4.316 -18.843  1.00 88.92    -0.203 F 
HETATM   20  C20   D T9001       0.531  -3.178 -15.362  1.00 87.82     0.021 A 
ENDBRANCH  12  13
ENDBRANCH  10  12
BRANCH   2  21
HETATM   21  O11   D T9001      -4.109  -7.055 -10.905  1.00 85.44    -0.327 OA
HETATM   22  C12   D T9001      -3.553  -8.374 -10.973  1.00 84.41     0.181 C 
ENDBRANCH   2  21
TORSDOF 3
ENDMDL
MODEL 9
REMARK VINA RESULT:    -6.771      4.495      7.324
REMARK INTER + INTRA:          -8.504
REMARK INTER:                  -7.951
REMARK INTRA:                  -0.554
REMARK UNBOUND:                -0.546
REMARK  3 active torsions:
REMARK  status: ('A' for Active; 'I' for Inactive)
REMARK    1  A    between atoms: C2_2  and  O11_20 
REMARK    2  A    between atoms: C10_10  and  N14_11 
REMARK    3  A    between atoms: N14_11  and  C15_12 
ROOT
HETATM    1  C1    D T9001     -12.698   2.484  -6.537  1.00 83.47     0.092 A 
HETATM    2  C2    D T9001     -11.301   2.295  -6.802  1.00 83.68     0.109 A 
HETATM    3  C3    D T9001     -10.327   3.046  -6.064  1.00 82.47     0.044 A 
HETATM    4  C4    D T9001     -10.684   3.974  -5.077  1.00 82.50     0.088 A 
HETATM    5  C5    D T9001     -12.087   4.182  -4.796  1.00 84.12     0.055 A 
HETATM    6  C6    D T9001     -13.076   3.426  -5.538  1.00 83.53     0.021 A 
HETATM    7  N7    D T9001      -9.690   4.638  -4.429  1.00 81.78    -0.224 NA
HETATM    8  C8    D T9001     -10.059   5.529  -3.474  1.00 83.59     0.200 A 
HETATM    9  N9    D T9001     -11.330   5.822  -3.111  1.00 84.30    -0.205 NA
HETATM   10  C10   D T9001     -12.359   5.152  -3.767  1.00 85.59     0.166 A 
HETATM   11  N13   D T9001     -13.690   1.761  -7.241  1.00 82.67    -0.099 NA
ENDROOT
BRANCH  10  12
HETATM   12  N14   D T9001     -13.723   5.440  -3.407  1.00 86.44    -0.227 NA
BRANCH  12  13
HETATM   13  C15   D T9001     -14.591   4.616  -2.637  1.00 87.38     0.084 A 
HETATM   14  C16   D T9001     -15.847   4.162  -3.154  1.00 88.13     0.033 A 
HETATM   15  C17   D T9001     -16.709   3.350  -2.381  1.00 88.88     0.087 A 
HETATM   16  C18   D T9001     -16.323   2.980  -1.065  1.00 88.55     0.151 A 
HETATM   17 CL     D T9001     -18.216   2.835  -3.057  1.00 89.26    -0.080 Cl
HETATM   18  C19   D T9001     -15.079   3.414  -0.522  1.00 87.62     0.032 A 
HETATM   19  F21   D T9001     -17.131   2.211  -0.315  1.00 88.92    -0.203 F 
HETATM   20  C20   D T9001     -14.216   4.232  -1.305  1.00 87.82     0.021 A 
ENDBRANCH  12  13
ENDBRANCH  10  12
BRANCH   2  21
HETATM   21  O11   D T9001     -11.003   1.357  -7.788  1.00 85.44    -0.327 OA
HETATM   22  C12   D T9001      -9.626   1.134  -8.111  1.00 84.41     0.181 C 
ENDBRANCH   2  21
TORSDOF 3
ENDMDL
