MODEL 1
REMARK VINA RESULT:    -8.982      0.000      0.000
REMARK INTER + INTRA:         -10.992
REMARK INTER:                 -10.557
REMARK INTRA:                  -0.435
REMARK UNBOUND:                -0.435
REMARK  3 active torsions:
REMARK  status: ('A' for Active; 'I' for Inactive)
REMARK    1  A    between atoms: C2_2  and  O11_20 
REMARK    2  A    between atoms: C10_10  and  N14_11 
REMARK    3  A    between atoms: N14_11  and  C15_12 
ROOT
HETATM    1  C1    D T9001      -4.950  13.020 -25.263  1.00 83.47     0.092 A 
HETATM    2  C2    D T9001      -6.269  13.120 -25.816  1.00 83.68     0.109 A 
HETATM    3  C3    D T9001      -7.354  13.578 -24.997  1.00 82.47     0.044 A 
HETATM    4  C4    D T9001      -7.179  13.939 -23.655  1.00 82.50     0.088 A 
HETATM    5  C5    D T9001      -5.860  13.843 -23.075  1.00 84.12     0.055 A 
HETATM    6  C6    D T9001      -4.759  13.381 -23.899  1.00 83.53     0.021 A 
HETATM    7  N7    D T9001      -8.268  14.365 -22.957  1.00 81.78    -0.224 NA
HETATM    8  C8    D T9001      -8.075  14.713 -21.659  1.00 83.59     0.200 A 
HETATM    9  N9    D T9001      -6.898  14.671 -20.994  1.00 84.30    -0.205 NA
HETATM   10  C10   D T9001      -5.777  14.237 -21.693  1.00 85.59     0.166 A 
HETATM   11  N13   D T9001      -3.853  12.574 -26.038  1.00 82.67    -0.099 NA
ENDROOT
BRANCH  10  12
HETATM   12  N14   D T9001      -4.507  14.177 -21.015  1.00 86.44    -0.227 NA
BRANCH  12  13
HETATM   13  C15   D T9001      -4.136  14.891 -19.841  1.00 87.38     0.084 A 
HETATM   14  C16   D T9001      -4.302  14.323 -18.535  1.00 88.13     0.033 A 
HETATM   15  C17   D T9001      -3.938  15.040 -17.373  1.00 88.88     0.087 A 
HETATM   16  C18   D T9001      -3.402  16.349 -17.500  1.00 88.55     0.151 A 
HETATM   17 CL     D T9001      -4.163  14.305 -15.822  1.00 89.26    -0.080 Cl
HETATM   18  C19   D T9001      -3.223  16.941 -18.783  1.00 87.62     0.032 A 
HETATM   19  F21   D T9001      -3.054  17.047 -16.405  1.00 88.92    -0.203 F 
HETATM   20  C20   D T9001      -3.592  16.215 -19.951  1.00 87.82     0.021 A 
ENDBRANCH  12  13
ENDBRANCH  10  12
BRANCH   2  21
HETATM   21  O11   D T9001      -6.383  12.754 -27.155  1.00 85.44    -0.327 OA
HETATM   22  C12   D T9001      -7.336  11.743 -27.499  1.00 84.41     0.181 C 
ENDBRANCH   2  21
TORSDOF 3
ENDMDL
MODEL 2
REMARK VINA RESULT:    -8.829      1.547      3.042
REMARK INTER + INTRA:         -10.813
REMARK INTER:                 -10.323
REMARK INTRA:                  -0.489
REMARK UNBOUND:                -0.435
REMARK  3 active torsions:
REMARK  status: ('A' for Active; 'I' for Inactive)
REMARK    1  A    between atoms: C2_2  and  O11_20 
REMARK    2  A    between atoms: C10_10  and  N14_11 
REMARK    3  A    between atoms: N14_11  and  C15_12 
ROOT
HETATM    1  C1    D T9001      -7.893  14.240 -22.807  1.00 83.47     0.092 A 
HETATM    2  C2    D T9001      -7.954  14.291 -24.238  1.00 83.68     0.109 A 
HETATM    3  C3    D T9001      -6.801  13.937 -25.016  1.00 82.47     0.044 A 
HETATM    4  C4    D T9001      -5.594  13.537 -24.427  1.00 82.50     0.088 A 
HETATM    5  C5    D T9001      -5.509  13.482 -22.986  1.00 84.12     0.055 A 
HETATM    6  C6    D T9001      -6.671  13.838 -22.196  1.00 83.53     0.021 A 
HETATM    7  N7    D T9001      -4.555  13.218 -25.246  1.00 81.78    -0.224 NA
HETATM    8  C8    D T9001      -3.397  12.829 -24.655  1.00 83.59     0.200 A 
HETATM    9  N9    D T9001      -3.180  12.733 -23.323  1.00 84.30    -0.205 NA
HETATM   10  C10   D T9001      -4.232  13.058 -22.474  1.00 85.59     0.166 A 
HETATM   11  N13   D T9001      -9.008  14.580 -22.005  1.00 82.67    -0.099 NA
ENDROOT
BRANCH  10  12
HETATM   12  N14   D T9001      -4.035  12.970 -21.049  1.00 86.44    -0.227 NA
BRANCH  12  13
HETATM   13  C15   D T9001      -3.928  14.058 -20.137  1.00 87.38     0.084 A 
HETATM   14  C16   D T9001      -4.089  13.871 -18.725  1.00 88.13     0.033 A 
HETATM   15  C17   D T9001      -3.988  14.956 -17.826  1.00 88.88     0.087 A 
HETATM   16  C18   D T9001      -3.725  16.258 -18.331  1.00 88.55     0.151 A 
HETATM   17 CL     D T9001      -4.195  14.671 -16.131  1.00 89.26    -0.080 Cl
HETATM   18  C19   D T9001      -3.558  16.477 -19.728  1.00 87.62     0.032 A 
HETATM   19  F21   D T9001      -3.630  17.302 -17.490  1.00 88.92    -0.203 F 
HETATM   20  C20   D T9001      -3.663  15.380 -20.629  1.00 87.82     0.021 A 
ENDBRANCH  12  13
ENDBRANCH  10  12
BRANCH   2  21
HETATM   21  O11   D T9001      -9.178  14.690 -24.769  1.00 85.44    -0.327 OA
HETATM   22  C12   D T9001     -10.031  13.685 -25.328  1.00 84.41     0.181 C 
ENDBRANCH   2  21
TORSDOF 3
ENDMDL
MODEL 3
REMARK VINA RESULT:    -8.514      1.205      2.586
REMARK INTER + INTRA:         -10.443
REMARK INTER:                 -10.052
REMARK INTRA:                  -0.390
REMARK UNBOUND:                -0.435
REMARK  3 active torsions:
REMARK  status: ('A' for Active; 'I' for Inactive)
REMARK    1  A    between atoms: C2_2  and  O11_20 
REMARK    2  A    between atoms: C10_10  and  N14_11 
REMARK    3  A    between atoms: N14_11  and  C15_12 
ROOT
HETATM    1  C1    D T9001      -7.299  13.518 -25.333  1.00 83.47     0.092 A 
HETATM    2  C2    D T9001      -6.524  12.850 -26.337  1.00 83.68     0.109 A 
HETATM    3  C3    D T9001      -5.160  12.494 -26.069  1.00 82.47     0.044 A 
HETATM    4  C4    D T9001      -4.539  12.777 -24.846  1.00 82.50     0.088 A 
HETATM    5  C5    D T9001      -5.299  13.453 -23.821  1.00 84.12     0.055 A 
HETATM    6  C6    D T9001      -6.678  13.814 -24.086  1.00 83.53     0.021 A 
HETATM    7  N7    D T9001      -3.242  12.400 -24.683  1.00 81.78    -0.224 NA
HETATM    8  C8    D T9001      -2.660  12.680 -23.488  1.00 83.59     0.200 A 
HETATM    9  N9    D T9001      -3.254  13.305 -22.445  1.00 84.30    -0.205 NA
HETATM   10  C10   D T9001      -4.579  13.698 -22.599  1.00 85.59     0.166 A 
HETATM   11  N13   D T9001      -8.647  13.883 -25.558  1.00 82.67    -0.099 NA
ENDROOT
BRANCH  10  12
HETATM   12  N14   D T9001      -5.241  14.369 -21.509  1.00 86.44    -0.227 NA
BRANCH  12  13
HETATM   13  C15   D T9001      -4.626  14.913 -20.346  1.00 87.38     0.084 A 
HETATM   14  C16   D T9001      -4.668  14.229 -19.087  1.00 88.13     0.033 A 
HETATM   15  C17   D T9001      -4.060  14.778 -17.935  1.00 88.88     0.087 A 
HETATM   16  C18   D T9001      -3.400  16.032 -18.025  1.00 88.55     0.151 A 
HETATM   17 CL     D T9001      -4.146  13.909 -16.440  1.00 89.26    -0.080 Cl
HETATM   18  C19   D T9001      -3.339  16.736 -19.261  1.00 87.62     0.032 A 
HETATM   19  F21   D T9001      -2.821  16.570 -16.938  1.00 88.92    -0.203 F 
HETATM   20  C20   D T9001      -3.953  16.180 -20.419  1.00 87.82     0.021 A 
ENDBRANCH  12  13
ENDBRANCH  10  12
BRANCH   2  21
HETATM   21  O11   D T9001      -7.194  12.589 -27.531  1.00 85.44    -0.327 OA
HETATM   22  C12   D T9001      -7.746  11.283 -27.723  1.00 84.41     0.181 C 
ENDBRANCH   2  21
TORSDOF 3
ENDMDL
MODEL 4
REMARK VINA RESULT:    -8.502      2.411      3.881
REMARK INTER + INTRA:         -10.428
REMARK INTER:                  -9.967
REMARK INTRA:                  -0.460
REMARK UNBOUND:                -0.435
REMARK  3 active torsions:
REMARK  status: ('A' for Active; 'I' for Inactive)
REMARK    1  A    between atoms: C2_2  and  O11_20 
REMARK    2  A    between atoms: C10_10  and  N14_11 
REMARK    3  A    between atoms: N14_11  and  C15_12 
ROOT
HETATM    1  C1    D T9001      -8.362  15.454 -21.187  1.00 83.47     0.092 A 
HETATM    2  C2    D T9001      -8.956  14.746 -22.284  1.00 83.68     0.109 A 
HETATM    3  C3    D T9001      -8.119  14.123 -23.269  1.00 82.47     0.044 A 
HETATM    4  C4    D T9001      -6.720  14.178 -23.207  1.00 82.50     0.088 A 
HETATM    5  C5    D T9001      -6.101  14.889 -22.113  1.00 84.12     0.055 A 
HETATM    6  C6    D T9001      -6.942  15.519 -21.114  1.00 83.53     0.021 A 
HETATM    7  N7    D T9001      -6.009  13.555 -24.186  1.00 81.78    -0.224 NA
HETATM    8  C8    D T9001      -4.656  13.617 -24.104  1.00 83.59     0.200 A 
HETATM    9  N9    D T9001      -3.948  14.246 -23.137  1.00 84.30    -0.205 NA
HETATM   10  C10   D T9001      -4.661  14.889 -22.131  1.00 85.59     0.166 A 
HETATM   11  N13   D T9001      -9.153  16.080 -20.194  1.00 82.67    -0.099 NA
ENDROOT
BRANCH  10  12
HETATM   12  N14   D T9001      -3.940  15.572 -21.087  1.00 86.44    -0.227 NA
BRANCH  12  13
HETATM   13  C15   D T9001      -3.962  15.263 -19.698  1.00 87.38     0.084 A 
HETATM   14  C16   D T9001      -3.813  16.283 -18.701  1.00 88.13     0.033 A 
HETATM   15  C17   D T9001      -3.828  15.969 -17.323  1.00 88.88     0.087 A 
HETATM   16  C18   D T9001      -3.991  14.618 -16.918  1.00 88.55     0.151 A 
HETATM   17 CL     D T9001      -3.640  17.242 -16.165  1.00 89.26    -0.080 Cl
HETATM   18  C19   D T9001      -4.144  13.582 -17.883  1.00 87.62     0.032 A 
HETATM   19  F21   D T9001      -4.004  14.301 -15.612  1.00 88.92    -0.203 F 
HETATM   20  C20   D T9001      -4.126  13.903 -19.269  1.00 87.82     0.021 A 
ENDBRANCH  12  13
ENDBRANCH  10  12
BRANCH   2  21
HETATM   21  O11   D T9001     -10.348  14.719 -22.292  1.00 85.44    -0.327 OA
HETATM   22  C12   D T9001     -11.029  15.377 -23.366  1.00 84.41     0.181 C 
ENDBRANCH   2  21
TORSDOF 3
ENDMDL
MODEL 5
REMARK VINA RESULT:    -8.392      4.754      7.477
REMARK INTER + INTRA:         -10.299
REMARK INTER:                  -9.842
REMARK INTRA:                  -0.457
REMARK UNBOUND:                -0.435
REMARK  3 active torsions:
REMARK  status: ('A' for Active; 'I' for Inactive)
REMARK    1  A    between atoms: C2_2  and  O11_20 
REMARK    2  A    between atoms: C10_10  and  N14_11 
REMARK    3  A    between atoms: N14_11  and  C15_12 
ROOT
HETATM    1  C1    D T9001      -4.724  13.818 -22.017  1.00 83.47     0.092 A 
HETATM    2  C2    D T9001      -5.184  13.929 -20.664  1.00 83.68     0.109 A 
HETATM    3  C3    D T9001      -6.562  14.235 -20.400  1.00 82.47     0.044 A 
HETATM    4  C4    D T9001      -7.494  14.434 -21.427  1.00 82.50     0.088 A 
HETATM    5  C5    D T9001      -7.052  14.331 -22.798  1.00 84.12     0.055 A 
HETATM    6  C6    D T9001      -5.662  14.022 -23.069  1.00 83.53     0.021 A 
HETATM    7  N7    D T9001      -8.779  14.717 -21.080  1.00 81.78    -0.224 NA
HETATM    8  C8    D T9001      -9.668  14.903 -22.089  1.00 83.59     0.200 A 
HETATM    9  N9    D T9001      -9.389  14.836 -23.412  1.00 84.30    -0.205 NA
HETATM   10  C10   D T9001      -8.080  14.549 -23.781  1.00 85.59     0.166 A 
HETATM   11  N13   D T9001      -3.375  13.517 -22.319  1.00 82.67    -0.099 NA
ENDROOT
BRANCH  10  12
HETATM   12  N14   D T9001      -7.748  14.472 -25.181  1.00 86.44    -0.227 NA
BRANCH  12  13
HETATM   13  C15   D T9001      -7.438  13.294 -25.918  1.00 87.38     0.084 A 
HETATM   14  C16   D T9001      -8.438  12.309 -26.210  1.00 88.13     0.033 A 
HETATM   15  C17   D T9001      -8.123  11.138 -26.936  1.00 88.88     0.087 A 
HETATM   16  C18   D T9001      -6.790  10.932 -27.382  1.00 88.55     0.151 A 
HETATM   17 CL     D T9001      -9.370   9.981 -27.256  1.00 89.26    -0.080 Cl
HETATM   18  C19   D T9001      -5.774  11.892 -27.110  1.00 87.62     0.032 A 
HETATM   19  F21   D T9001      -6.472   9.822 -28.070  1.00 88.92    -0.203 F 
HETATM   20  C20   D T9001      -6.096  13.069 -26.377  1.00 87.82     0.021 A 
ENDBRANCH  12  13
ENDBRANCH  10  12
BRANCH   2  21
HETATM   21  O11   D T9001      -4.216  13.716 -19.686  1.00 85.44    -0.327 OA
HETATM   22  C12   D T9001      -4.431  14.283 -18.389  1.00 84.41     0.181 C 
ENDBRANCH   2  21
TORSDOF 3
ENDMDL
MODEL 6
REMARK VINA RESULT:    -8.259      4.862      8.053
REMARK INTER + INTRA:         -10.142
REMARK INTER:                  -9.574
REMARK INTRA:                  -0.568
REMARK UNBOUND:                -0.435
REMARK  3 active torsions:
REMARK  status: ('A' for Active; 'I' for Inactive)
REMARK    1  A    between atoms: C2_2  and  O11_20 
REMARK    2  A    between atoms: C10_10  and  N14_11 
REMARK    3  A    between atoms: N14_11  and  C15_12 
ROOT
HETATM    1  C1    D T9001      -6.975  14.966 -20.916  1.00 83.47     0.092 A 
HETATM    2  C2    D T9001      -5.938  14.691 -19.965  1.00 83.68     0.109 A 
HETATM    3  C3    D T9001      -4.710  14.090 -20.400  1.00 82.47     0.044 A 
HETATM    4  C4    D T9001      -4.475  13.752 -21.739  1.00 82.50     0.088 A 
HETATM    5  C5    D T9001      -5.507  14.015 -22.714  1.00 84.12     0.055 A 
HETATM    6  C6    D T9001      -6.749  14.624 -22.280  1.00 83.53     0.021 A 
HETATM    7  N7    D T9001      -3.278  13.187 -22.057  1.00 81.78    -0.224 NA
HETATM    8  C8    D T9001      -3.069  12.870 -23.361  1.00 83.59     0.200 A 
HETATM    9  N9    D T9001      -3.946  13.062 -24.373  1.00 84.30    -0.205 NA
HETATM   10  C10   D T9001      -5.174  13.637 -24.062  1.00 85.59     0.166 A 
HETATM   11  N13   D T9001      -8.199  15.560 -20.527  1.00 82.67    -0.099 NA
ENDROOT
BRANCH  10  12
HETATM   12  N14   D T9001      -6.133  13.854 -25.116  1.00 86.44    -0.227 NA
BRANCH  12  13
HETATM   13  C15   D T9001      -7.014  12.885 -25.675  1.00 87.38     0.084 A 
HETATM   14  C16   D T9001      -6.543  11.877 -26.578  1.00 88.13     0.033 A 
HETATM   15  C17   D T9001      -7.423  10.922 -27.135  1.00 88.88     0.087 A 
HETATM   16  C18   D T9001      -8.802  10.965 -26.797  1.00 88.55     0.151 A 
HETATM   17 CL     D T9001      -6.798   9.730 -28.223  1.00 89.26    -0.080 Cl
HETATM   18  C19   D T9001      -9.301  11.952 -25.901  1.00 87.62     0.032 A 
HETATM   19  F21   D T9001      -9.654  10.067 -27.320  1.00 88.92    -0.203 F 
HETATM   20  C20   D T9001      -8.411  12.912 -25.344  1.00 87.82     0.021 A 
ENDBRANCH  12  13
ENDBRANCH  10  12
BRANCH   2  21
HETATM   21  O11   D T9001      -6.224  15.053 -18.651  1.00 85.44    -0.327 OA
HETATM   22  C12   D T9001      -5.133  15.415 -17.798  1.00 84.41     0.181 C 
ENDBRANCH   2  21
TORSDOF 3
ENDMDL
MODEL 7
REMARK VINA RESULT:    -7.942      4.186      7.190
REMARK INTER + INTRA:          -9.770
REMARK INTER:                  -9.596
REMARK INTRA:                  -0.174
REMARK UNBOUND:                -0.435
REMARK  3 active torsions:
REMARK  status: ('A' for Active; 'I' for Inactive)
REMARK    1  A    between atoms: C2_2  and  O11_20 
REMARK    2  A    between atoms: C10_10  and  N14_11 
REMARK    3  A    between atoms: N14_11  and  C15_12 
ROOT
HETATM    1  C1    D T9001      -5.608  14.966 -21.357  1.00 83.47     0.092 A 
HETATM    2  C2    D T9001      -4.370  14.477 -20.826  1.00 83.68     0.109 A 
HETATM    3  C3    D T9001      -3.504  13.681 -21.648  1.00 82.47     0.044 A 
HETATM    4  C4    D T9001      -3.821  13.353 -22.972  1.00 82.50     0.088 A 
HETATM    5  C5    D T9001      -5.066  13.831 -23.527  1.00 84.12     0.055 A 
HETATM    6  C6    D T9001      -5.944  14.636 -22.701  1.00 83.53     0.021 A 
HETATM    7  N7    D T9001      -2.937  12.594 -23.675  1.00 81.78    -0.224 NA
HETATM    8  C8    D T9001      -3.262  12.291 -24.958  1.00 83.59     0.200 A 
HETATM    9  N9    D T9001      -4.390  12.672 -25.600  1.00 84.30    -0.205 NA
HETATM   10  C10   D T9001      -5.304  13.446 -24.894  1.00 85.59     0.166 A 
HETATM   11  N13   D T9001      -6.489  15.755 -20.580  1.00 82.67    -0.099 NA
ENDROOT
BRANCH  10  12
HETATM   12  N14   D T9001      -6.518  13.868 -25.546  1.00 86.44    -0.227 NA
BRANCH  12  13
HETATM   13  C15   D T9001      -7.846  13.703 -25.059  1.00 87.38     0.084 A 
HETATM   14  C16   D T9001      -8.629  14.823 -24.627  1.00 88.13     0.033 A 
HETATM   15  C17   D T9001      -9.944  14.652 -24.139  1.00 88.88     0.087 A 
HETATM   16  C18   D T9001     -10.498  13.346 -24.071  1.00 88.55     0.151 A 
HETATM   17 CL     D T9001     -10.842  16.040 -23.626  1.00 89.26    -0.080 Cl
HETATM   18  C19   D T9001      -9.747  12.213 -24.495  1.00 87.62     0.032 A 
HETATM   19  F21   D T9001     -11.746  13.164 -23.606  1.00 88.92    -0.203 F 
HETATM   20  C20   D T9001      -8.422  12.390 -24.985  1.00 87.82     0.021 A 
ENDBRANCH  12  13
ENDBRANCH  10  12
BRANCH   2  21
HETATM   21  O11   D T9001      -4.103  14.838 -19.507  1.00 85.44    -0.327 OA
HETATM   22  C12   D T9001      -4.285  13.850 -18.487  1.00 84.41     0.181 C 
ENDBRANCH   2  21
TORSDOF 3
ENDMDL
MODEL 8
REMARK VINA RESULT:    -7.915      4.679      7.503
REMARK INTER + INTRA:          -9.738
REMARK INTER:                  -9.144
REMARK INTRA:                  -0.594
REMARK UNBOUND:                -0.435
REMARK  3 active torsions:
REMARK  status: ('A' for Active; 'I' for Inactive)
REMARK    1  A    between atoms: C2_2  and  O11_20 
REMARK    2  A    between atoms: C10_10  and  N14_11 
REMARK    3  A    between atoms: N14_11  and  C15_12 
ROOT
HETATM    1  C1    D T9001      -5.230  15.333 -21.217  1.00 83.47     0.092 A 
HETATM    2  C2    D T9001      -5.466  15.219 -19.808  1.00 83.68     0.109 A 
HETATM    3  C3    D T9001      -6.784  14.920 -19.326  1.00 82.47     0.044 A 
HETATM    4  C4    D T9001      -7.872  14.731 -20.188  1.00 82.50     0.088 A 
HETATM    5  C5    D T9001      -7.659  14.846 -21.612  1.00 84.12     0.055 A 
HETATM    6  C6    D T9001      -6.329  15.147 -22.104  1.00 83.53     0.021 A 
HETATM    7  N7    D T9001      -9.085  14.449 -19.639  1.00 81.78    -0.224 NA
HETATM    8  C8    D T9001     -10.125  14.266 -20.492  1.00 83.59     0.200 A 
HETATM    9  N9    D T9001     -10.065  14.344 -21.842  1.00 84.30    -0.205 NA
HETATM   10  C10   D T9001      -8.833  14.634 -22.417  1.00 85.59     0.166 A 
HETATM   11  N13   D T9001      -3.945  15.625 -21.733  1.00 82.67    -0.099 NA
ENDROOT
BRANCH  10  12
HETATM   12  N14   D T9001      -8.734  14.727 -23.852  1.00 86.44    -0.227 NA
BRANCH  12  13
HETATM   13  C15   D T9001      -8.501  13.655 -24.759  1.00 87.38     0.084 A 
HETATM   14  C16   D T9001      -7.239  13.492 -25.419  1.00 88.13     0.033 A 
HETATM   15  C17   D T9001      -7.017  12.429 -26.323  1.00 88.88     0.087 A 
HETATM   16  C18   D T9001      -8.064  11.507 -26.586  1.00 88.55     0.151 A 
HETATM   17 CL     D T9001      -5.473  12.285 -27.094  1.00 89.26    -0.080 Cl
HETATM   18  C19   D T9001      -9.329  11.639 -25.945  1.00 87.62     0.032 A 
HETATM   19  F21   D T9001      -7.871  10.492 -27.446  1.00 88.92    -0.203 F 
HETATM   20  C20   D T9001      -9.548  12.712 -25.036  1.00 87.82     0.021 A 
ENDBRANCH  12  13
ENDBRANCH  10  12
BRANCH   2  21
HETATM   21  O11   D T9001      -4.348  15.410 -18.999  1.00 85.44    -0.327 OA
HETATM   22  C12   D T9001      -3.959  14.346 -18.124  1.00 84.41     0.181 C 
ENDBRANCH   2  21
TORSDOF 3
ENDMDL
MODEL 9
REMARK VINA RESULT:    -7.723      2.624      3.420
REMARK INTER + INTRA:          -9.512
REMARK INTER:                  -8.973
REMARK INTRA:                  -0.539
REMARK UNBOUND:                -0.435
REMARK  3 active torsions:
REMARK  status: ('A' for Active; 'I' for Inactive)
REMARK    1  A    between atoms: C2_2  and  O11_20 
REMARK    2  A    between atoms: C10_10  and  N14_11 
REMARK    3  A    between atoms: N14_11  and  C15_12 
ROOT
HETATM    1  C1    D T9001      -7.694  13.611 -25.196  1.00 83.47     0.092 A 
HETATM    2  C2    D T9001      -8.659  12.632 -25.603  1.00 83.68     0.109 A 
HETATM    3  C3    D T9001      -9.772  12.327 -24.750  1.00 82.47     0.044 A 
HETATM    4  C4    D T9001      -9.961  12.956 -23.512  1.00 82.50     0.088 A 
HETATM    5  C5    D T9001      -8.999  13.942 -23.080  1.00 84.12     0.055 A 
HETATM    6  C6    D T9001      -7.873  14.254 -23.938  1.00 83.53     0.021 A 
HETATM    7  N7    D T9001     -11.047  12.603 -22.773  1.00 81.78    -0.224 NA
HETATM    8  C8    D T9001     -11.214  13.227 -21.579  1.00 83.59     0.200 A 
HETATM    9  N9    D T9001     -10.393  14.166 -21.054  1.00 84.30    -0.205 NA
HETATM   10  C10   D T9001      -9.277  14.535 -21.798  1.00 85.59     0.166 A 
HETATM   11  N13   D T9001      -6.584  13.941 -26.009  1.00 82.67    -0.099 NA
ENDROOT
BRANCH  10  12
HETATM   12  N14   D T9001      -8.380  15.531 -21.268  1.00 86.44    -0.227 NA
BRANCH  12  13
HETATM   13  C15   D T9001      -7.064  15.310 -20.772  1.00 87.38     0.084 A 
HETATM   14  C16   D T9001      -5.930  15.990 -21.326  1.00 88.13     0.033 A 
HETATM   15  C17   D T9001      -4.626  15.762 -20.833  1.00 88.88     0.087 A 
HETATM   16  C18   D T9001      -4.434  14.839 -19.771  1.00 88.55     0.151 A 
HETATM   17 CL     D T9001      -3.294  16.609 -21.544  1.00 89.26    -0.080 Cl
HETATM   18  C19   D T9001      -5.539  14.150 -19.196  1.00 87.62     0.032 A 
HETATM   19  F21   D T9001      -3.199  14.607 -19.292  1.00 88.92    -0.203 F 
HETATM   20  C20   D T9001      -6.851  14.382 -19.698  1.00 87.82     0.021 A 
ENDBRANCH  12  13
ENDBRANCH  10  12
BRANCH   2  21
HETATM   21  O11   D T9001      -8.424  12.044 -26.844  1.00 85.44    -0.327 OA
HETATM   22  C12   D T9001      -8.739  10.657 -27.004  1.00 84.41     0.181 C 
ENDBRANCH   2  21
TORSDOF 3
ENDMDL
