MODEL 1
REMARK VINA RESULT:    -7.520      0.000      0.000
REMARK INTER + INTRA:          -9.200
REMARK INTER:                  -8.839
REMARK INTRA:                  -0.361
REMARK UNBOUND:                -0.361
REMARK  3 active torsions:
REMARK  status: ('A' for Active; 'I' for Inactive)
REMARK    1  A    between atoms: C2_2  and  O11_20 
REMARK    2  A    between atoms: C10_10  and  N14_11 
REMARK    3  A    between atoms: N14_11  and  C15_12 
ROOT
HETATM    1  C1    D T9001      -5.277  12.807  -1.671  1.00 83.47     0.092 A 
HETATM    2  C2    D T9001      -5.678  13.458  -0.458  1.00 83.68     0.109 A 
HETATM    3  C3    D T9001      -4.746  13.582   0.626  1.00 82.47     0.044 A 
HETATM    4  C4    D T9001      -3.438  13.085   0.552  1.00 82.50     0.088 A 
HETATM    5  C5    D T9001      -3.014  12.422  -0.661  1.00 84.12     0.055 A 
HETATM    6  C6    D T9001      -3.952  12.295  -1.759  1.00 83.53     0.021 A 
HETATM    7  N7    D T9001      -2.626  13.251   1.630  1.00 81.78    -0.224 NA
HETATM    8  C8    D T9001      -1.361  12.766   1.535  1.00 83.59     0.200 A 
HETATM    9  N9    D T9001      -0.836  12.127   0.463  1.00 84.30    -0.205 NA
HETATM   10  C10   D T9001      -1.655  11.948  -0.646  1.00 85.59     0.166 A 
HETATM   11  N13   D T9001      -6.165  12.667  -2.764  1.00 82.67    -0.099 NA
ENDROOT
BRANCH  10  12
HETATM   12  N14   D T9001      -1.130  11.270  -1.803  1.00 86.44    -0.227 NA
BRANCH  12  13
HETATM   13  C15   D T9001       0.243  11.099  -2.137  1.00 87.38     0.084 A 
HETATM   14  C16   D T9001       0.895  11.951  -3.087  1.00 88.13     0.033 A 
HETATM   15  C17   D T9001       2.258  11.771  -3.418  1.00 88.88     0.087 A 
HETATM   16  C18   D T9001       2.994  10.726  -2.800  1.00 88.55     0.151 A 
HETATM   17 CL     D T9001       2.990  12.828  -4.577  1.00 89.26    -0.080 Cl
HETATM   18  C19   D T9001       2.376   9.865  -1.849  1.00 87.62     0.032 A 
HETATM   19  F21   D T9001       4.289  10.539  -3.105  1.00 88.92    -0.203 F 
HETATM   20  C20   D T9001       1.003  10.049  -1.520  1.00 87.82     0.021 A 
ENDBRANCH  12  13
ENDBRANCH  10  12
BRANCH   2  21
HETATM   21  O11   D T9001      -6.985  13.936  -0.442  1.00 85.44    -0.327 OA
HETATM   22  C12   D T9001      -7.817  13.588   0.671  1.00 84.41     0.181 C 
ENDBRANCH   2  21
TORSDOF 3
ENDMDL
MODEL 2
REMARK VINA RESULT:    -7.510      2.959      3.924
REMARK INTER + INTRA:          -9.188
REMARK INTER:                  -8.727
REMARK INTRA:                  -0.462
REMARK UNBOUND:                -0.361
REMARK  3 active torsions:
REMARK  status: ('A' for Active; 'I' for Inactive)
REMARK    1  A    between atoms: C2_2  and  O11_20 
REMARK    2  A    between atoms: C10_10  and  N14_11 
REMARK    3  A    between atoms: N14_11  and  C15_12 
ROOT
HETATM    1  C1    D T9001      -4.440  12.225   0.763  1.00 83.47     0.092 A 
HETATM    2  C2    D T9001      -5.352  13.009  -0.018  1.00 83.68     0.109 A 
HETATM    3  C3    D T9001      -5.169  13.112  -1.437  1.00 82.47     0.044 A 
HETATM    4  C4    D T9001      -4.119  12.470  -2.107  1.00 82.50     0.088 A 
HETATM    5  C5    D T9001      -3.186  11.677  -1.338  1.00 84.12     0.055 A 
HETATM    6  C6    D T9001      -3.367  11.569   0.096  1.00 83.53     0.021 A 
HETATM    7  N7    D T9001      -4.028  12.625  -3.455  1.00 81.78    -0.224 NA
HETATM    8  C8    D T9001      -3.005  11.990  -4.085  1.00 83.59     0.200 A 
HETATM    9  N9    D T9001      -2.065  11.220  -3.490  1.00 84.30    -0.205 NA
HETATM   10  C10   D T9001      -2.144  11.054  -2.112  1.00 85.59     0.166 A 
HETATM   11  N13   D T9001      -4.587  12.095   2.165  1.00 82.67    -0.099 NA
ENDROOT
BRANCH  10  12
HETATM   12  N14   D T9001      -1.157  10.242  -1.445  1.00 86.44    -0.227 NA
BRANCH  12  13
HETATM   13  C15   D T9001      -0.232  10.674  -0.455  1.00 87.38     0.084 A 
HETATM   14  C16   D T9001       0.153   9.824   0.633  1.00 88.13     0.033 A 
HETATM   15  C17   D T9001       1.068  10.263   1.617  1.00 88.88     0.087 A 
HETATM   16  C18   D T9001       1.614  11.571   1.528  1.00 88.55     0.151 A 
HETATM   17 CL     D T9001       1.492   9.193   2.911  1.00 89.26    -0.080 Cl
HETATM   18  C19   D T9001       1.255  12.438   0.458  1.00 87.62     0.032 A 
HETATM   19  F21   D T9001       2.483  12.005   2.457  1.00 88.92    -0.203 F 
HETATM   20  C20   D T9001       0.332  11.993  -0.529  1.00 87.82     0.021 A 
ENDBRANCH  12  13
ENDBRANCH  10  12
BRANCH   2  21
HETATM   21  O11   D T9001      -6.378  13.620   0.699  1.00 85.44    -0.327 OA
HETATM   22  C12   D T9001      -7.692  13.617   0.130  1.00 84.41     0.181 C 
ENDBRANCH   2  21
TORSDOF 3
ENDMDL
MODEL 3
REMARK VINA RESULT:    -7.483      4.464      7.418
REMARK INTER + INTRA:          -9.156
REMARK INTER:                  -8.607
REMARK INTRA:                  -0.549
REMARK UNBOUND:                -0.361
REMARK  3 active torsions:
REMARK  status: ('A' for Active; 'I' for Inactive)
REMARK    1  A    between atoms: C2_2  and  O11_20 
REMARK    2  A    between atoms: C10_10  and  N14_11 
REMARK    3  A    between atoms: N14_11  and  C15_12 
ROOT
HETATM    1  C1    D T9001       1.492  12.188  -2.651  1.00 83.47     0.092 A 
HETATM    2  C2    D T9001       2.279  10.994  -2.545  1.00 83.68     0.109 A 
HETATM    3  C3    D T9001       1.873   9.949  -1.648  1.00 82.47     0.044 A 
HETATM    4  C4    D T9001       0.722  10.046  -0.857  1.00 82.50     0.088 A 
HETATM    5  C5    D T9001      -0.085  11.242  -0.945  1.00 84.12     0.055 A 
HETATM    6  C6    D T9001       0.320  12.300  -1.849  1.00 83.53     0.021 A 
HETATM    7  N7    D T9001       0.418   9.004  -0.037  1.00 81.78    -0.224 NA
HETATM    8  C8    D T9001      -0.706   9.116   0.718  1.00 83.59     0.200 A 
HETATM    9  N9    D T9001      -1.548  10.175   0.733  1.00 84.30    -0.205 NA
HETATM   10  C10   D T9001      -1.248  11.249  -0.097  1.00 85.59     0.166 A 
HETATM   11  N13   D T9001       1.855  13.240  -3.525  1.00 82.67    -0.099 NA
ENDROOT
BRANCH  10  12
HETATM   12  N14   D T9001      -2.122  12.395  -0.104  1.00 86.44    -0.227 NA
BRANCH  12  13
HETATM   13  C15   D T9001      -3.362  12.512  -0.790  1.00 87.38     0.084 A 
HETATM   14  C16   D T9001      -4.517  13.080  -0.160  1.00 88.13     0.033 A 
HETATM   15  C17   D T9001      -5.749  13.186  -0.845  1.00 88.88     0.087 A 
HETATM   16  C18   D T9001      -5.845  12.719  -2.183  1.00 88.55     0.151 A 
HETATM   17 CL     D T9001      -7.111  13.878  -0.030  1.00 89.26    -0.080 Cl
HETATM   18  C19   D T9001      -4.715  12.153  -2.839  1.00 87.62     0.032 A 
HETATM   19  F21   D T9001      -7.009  12.810  -2.849  1.00 88.92    -0.203 F 
HETATM   20  C20   D T9001      -3.478  12.046  -2.144  1.00 87.82     0.021 A 
ENDBRANCH  12  13
ENDBRANCH  10  12
BRANCH   2  21
HETATM   21  O11   D T9001       3.408  10.951  -3.358  1.00 85.44    -0.327 OA
HETATM   22  C12   D T9001       4.320   9.860  -3.188  1.00 84.41     0.181 C 
ENDBRANCH   2  21
TORSDOF 3
ENDMDL
MODEL 4
REMARK VINA RESULT:    -7.425      4.269      7.380
REMARK INTER + INTRA:          -9.088
REMARK INTER:                  -8.518
REMARK INTRA:                  -0.569
REMARK UNBOUND:                -0.361
REMARK  3 active torsions:
REMARK  status: ('A' for Active; 'I' for Inactive)
REMARK    1  A    between atoms: C2_2  and  O11_20 
REMARK    2  A    between atoms: C10_10  and  N14_11 
REMARK    3  A    between atoms: N14_11  and  C15_12 
ROOT
HETATM    1  C1    D T9001       1.663  12.201  -2.630  1.00 83.47     0.092 A 
HETATM    2  C2    D T9001       2.327  10.932  -2.682  1.00 83.68     0.109 A 
HETATM    3  C3    D T9001       1.926   9.880  -1.792  1.00 82.47     0.044 A 
HETATM    4  C4    D T9001       0.896  10.041  -0.856  1.00 82.50     0.088 A 
HETATM    5  C5    D T9001       0.216  11.315  -0.784  1.00 84.12     0.055 A 
HETATM    6  C6    D T9001       0.617  12.380  -1.681  1.00 83.53     0.021 A 
HETATM    7  N7    D T9001       0.585   8.987  -0.055  1.00 81.78    -0.224 NA
HETATM    8  C8    D T9001      -0.419   9.164   0.842  1.00 83.59     0.200 A 
HETATM    9  N9    D T9001      -1.137  10.299   1.015  1.00 84.30    -0.205 NA
HETATM   10  C10   D T9001      -0.829  11.386   0.205  1.00 85.59     0.166 A 
HETATM   11  N13   D T9001       2.026  13.263  -3.492  1.00 82.67    -0.099 NA
ENDROOT
BRANCH  10  12
HETATM   12  N14   D T9001      -1.571  12.611   0.363  1.00 86.44    -0.227 NA
BRANCH  12  13
HETATM   13  C15   D T9001      -2.939  12.822   0.038  1.00 87.38     0.084 A 
HETATM   14  C16   D T9001      -3.474  12.442  -1.236  1.00 88.13     0.033 A 
HETATM   15  C17   D T9001      -4.834  12.661  -1.555  1.00 88.88     0.087 A 
HETATM   16  C18   D T9001      -5.685  13.271  -0.597  1.00 88.55     0.151 A 
HETATM   17 CL     D T9001      -5.422  12.185  -3.112  1.00 89.26    -0.080 Cl
HETATM   18  C19   D T9001      -5.186  13.657   0.679  1.00 87.62     0.032 A 
HETATM   19  F21   D T9001      -6.980  13.489  -0.884  1.00 88.92    -0.203 F 
HETATM   20  C20   D T9001      -3.816  13.436   0.995  1.00 87.82     0.021 A 
ENDBRANCH  12  13
ENDBRANCH  10  12
BRANCH   2  21
HETATM   21  O11   D T9001       3.338  10.826  -3.633  1.00 85.44    -0.327 OA
HETATM   22  C12   D T9001       4.458   9.985  -3.336  1.00 84.41     0.181 C 
ENDBRANCH   2  21
TORSDOF 3
ENDMDL
MODEL 5
REMARK VINA RESULT:    -7.228      3.537      4.036
REMARK INTER + INTRA:          -8.856
REMARK INTER:                  -8.338
REMARK INTRA:                  -0.518
REMARK UNBOUND:                -0.361
REMARK  3 active torsions:
REMARK  status: ('A' for Active; 'I' for Inactive)
REMARK    1  A    between atoms: C2_2  and  O11_20 
REMARK    2  A    between atoms: C10_10  and  N14_11 
REMARK    3  A    between atoms: N14_11  and  C15_12 
ROOT
HETATM    1  C1    D T9001      -3.431  12.087  -2.951  1.00 83.47     0.092 A 
HETATM    2  C2    D T9001      -4.774  12.489  -2.653  1.00 83.68     0.109 A 
HETATM    3  C3    D T9001      -5.125  12.866  -1.314  1.00 82.47     0.044 A 
HETATM    4  C4    D T9001      -4.197  12.859  -0.265  1.00 82.50     0.088 A 
HETATM    5  C5    D T9001      -2.838  12.453  -0.543  1.00 84.12     0.055 A 
HETATM    6  C6    D T9001      -2.478  12.072  -1.894  1.00 83.53     0.021 A 
HETATM    7  N7    D T9001      -4.622  13.233   0.971  1.00 81.78    -0.224 NA
HETATM    8  C8    D T9001      -3.705  13.223   1.973  1.00 83.59     0.200 A 
HETATM    9  N9    D T9001      -2.404  12.867   1.853  1.00 84.30    -0.205 NA
HETATM   10  C10   D T9001      -1.956  12.479   0.595  1.00 85.59     0.166 A 
HETATM   11  N13   D T9001      -3.044  11.711  -4.259  1.00 82.67    -0.099 NA
ENDROOT
BRANCH  10  12
HETATM   12  N14   D T9001      -0.578  12.091   0.431  1.00 86.44    -0.227 NA
BRANCH  12  13
HETATM   13  C15   D T9001       0.112  11.082   1.159  1.00 87.38     0.084 A 
HETATM   14  C16   D T9001       1.113  11.410   2.131  1.00 88.13     0.033 A 
HETATM   15  C17   D T9001       1.800  10.402   2.845  1.00 88.88     0.087 A 
HETATM   16  C18   D T9001       1.493   9.038   2.593  1.00 88.55     0.151 A 
HETATM   17 CL     D T9001       3.002  10.858   4.004  1.00 89.26    -0.080 Cl
HETATM   18  C19   D T9001       0.502   8.679   1.637  1.00 87.62     0.032 A 
HETATM   19  F21   D T9001       2.138   8.066   3.261  1.00 88.92    -0.203 F 
HETATM   20  C20   D T9001      -0.185   9.698   0.919  1.00 87.82     0.021 A 
ENDBRANCH  12  13
ENDBRANCH  10  12
BRANCH   2  21
HETATM   21  O11   D T9001      -5.652  12.483  -3.734  1.00 85.44    -0.327 OA
HETATM   22  C12   D T9001      -7.008  12.086  -3.499  1.00 84.41     0.181 C 
ENDBRANCH   2  21
TORSDOF 3
ENDMDL
MODEL 6
REMARK VINA RESULT:    -7.215      2.029      3.171
REMARK INTER + INTRA:          -8.841
REMARK INTER:                  -8.422
REMARK INTRA:                  -0.419
REMARK UNBOUND:                -0.361
REMARK  3 active torsions:
REMARK  status: ('A' for Active; 'I' for Inactive)
REMARK    1  A    between atoms: C2_2  and  O11_20 
REMARK    2  A    between atoms: C10_10  and  N14_11 
REMARK    3  A    between atoms: N14_11  and  C15_12 
ROOT
HETATM    1  C1    D T9001      -4.357  12.205   0.753  1.00 83.47     0.092 A 
HETATM    2  C2    D T9001      -5.202  13.089   0.005  1.00 83.68     0.109 A 
HETATM    3  C3    D T9001      -5.052  13.184  -1.419  1.00 82.47     0.044 A 
HETATM    4  C4    D T9001      -4.099  12.439  -2.124  1.00 82.50     0.088 A 
HETATM    5  C5    D T9001      -3.234  11.543  -1.390  1.00 84.12     0.055 A 
HETATM    6  C6    D T9001      -3.382  11.443   0.049  1.00 83.53     0.021 A 
HETATM    7  N7    D T9001      -4.032  12.595  -3.474  1.00 81.78    -0.224 NA
HETATM    8  C8    D T9001      -3.104  11.859  -4.138  1.00 83.59     0.200 A 
HETATM    9  N9    D T9001      -2.234  10.986  -3.577  1.00 84.30    -0.205 NA
HETATM   10  C10   D T9001      -2.289  10.818  -2.198  1.00 85.59     0.166 A 
HETATM   11  N13   D T9001      -4.475  12.080   2.158  1.00 82.67    -0.099 NA
ENDROOT
BRANCH  10  12
HETATM   12  N14   D T9001      -1.376   9.900  -1.567  1.00 86.44    -0.227 NA
BRANCH  12  13
HETATM   13  C15   D T9001       0.044   9.930  -1.640  1.00 87.38     0.084 A 
HETATM   14  C16   D T9001       0.832   8.754  -1.417  1.00 88.13     0.033 A 
HETATM   15  C17   D T9001       2.244   8.793  -1.485  1.00 88.88     0.087 A 
HETATM   16  C18   D T9001       2.894  10.022  -1.776  1.00 88.55     0.151 A 
HETATM   17 CL     D T9001       3.143   7.341  -1.202  1.00 89.26    -0.080 Cl
HETATM   18  C19   D T9001       2.139  11.208  -2.006  1.00 87.62     0.032 A 
HETATM   19  F21   D T9001       4.235  10.078  -1.841  1.00 88.92    -0.203 F 
HETATM   20  C20   D T9001       0.719  11.163  -1.935  1.00 87.82     0.021 A 
ENDBRANCH  12  13
ENDBRANCH  10  12
BRANCH   2  21
HETATM   21  O11   D T9001      -6.134  13.801   0.756  1.00 85.44    -0.327 OA
HETATM   22  C12   D T9001      -7.522  13.515   0.555  1.00 84.41     0.181 C 
ENDBRANCH   2  21
TORSDOF 3
ENDMDL
MODEL 7
REMARK VINA RESULT:    -7.044      4.482      7.534
REMARK INTER + INTRA:          -8.640
REMARK INTER:                  -8.091
REMARK INTRA:                  -0.549
REMARK UNBOUND:                -0.361
REMARK  3 active torsions:
REMARK  status: ('A' for Active; 'I' for Inactive)
REMARK    1  A    between atoms: C2_2  and  O11_20 
REMARK    2  A    between atoms: C10_10  and  N14_11 
REMARK    3  A    between atoms: N14_11  and  C15_12 
ROOT
HETATM    1  C1    D T9001       1.111   9.436   1.087  1.00 83.47     0.092 A 
HETATM    2  C2    D T9001       2.429   9.881   0.740  1.00 83.68     0.109 A 
HETATM    3  C3    D T9001       2.634  10.635  -0.463  1.00 82.47     0.044 A 
HETATM    4  C4    D T9001       1.584  10.963  -1.330  1.00 82.50     0.088 A 
HETATM    5  C5    D T9001       0.248  10.522  -1.002  1.00 84.12     0.055 A 
HETATM    6  C6    D T9001       0.035   9.760   0.213  1.00 83.53     0.021 A 
HETATM    7  N7    D T9001       1.876  11.683  -2.447  1.00 81.78    -0.224 NA
HETATM    8  C8    D T9001       0.842  11.994  -3.272  1.00 83.59     0.200 A 
HETATM    9  N9    D T9001      -0.453  11.646  -3.086  1.00 84.30    -0.205 NA
HETATM   10  C10   D T9001      -0.765  10.908  -1.950  1.00 85.59     0.166 A 
HETATM   11  N13   D T9001       0.866   8.693   2.266  1.00 82.67    -0.099 NA
ENDROOT
BRANCH  10  12
HETATM   12  N14   D T9001      -2.133  10.518  -1.721  1.00 86.44    -0.227 NA
BRANCH  12  13
HETATM   13  C15   D T9001      -3.235  11.388  -1.488  1.00 87.38     0.084 A 
HETATM   14  C16   D T9001      -4.225  11.632  -2.495  1.00 88.13     0.033 A 
HETATM   15  C17   D T9001      -5.313  12.502  -2.258  1.00 88.88     0.087 A 
HETATM   16  C18   D T9001      -5.427  13.149  -0.999  1.00 88.55     0.151 A 
HETATM   17 CL     D T9001      -6.475  12.762  -3.515  1.00 89.26    -0.080 Cl
HETATM   18  C19   D T9001      -4.463  12.925   0.024  1.00 87.62     0.032 A 
HETATM   19  F21   D T9001      -6.454  13.982  -0.757  1.00 88.92    -0.203 F 
HETATM   20  C20   D T9001      -3.368  12.049  -0.220  1.00 87.82     0.021 A 
ENDBRANCH  12  13
ENDBRANCH  10  12
BRANCH   2  21
HETATM   21  O11   D T9001       3.432   9.531   1.641  1.00 85.44    -0.327 OA
HETATM   22  C12   D T9001       4.493   8.690   1.175  1.00 84.41     0.181 C 
ENDBRANCH   2  21
TORSDOF 3
ENDMDL
MODEL 8
REMARK VINA RESULT:    -7.042      1.747      2.075
REMARK INTER + INTRA:          -8.638
REMARK INTER:                  -8.344
REMARK INTRA:                  -0.295
REMARK UNBOUND:                -0.361
REMARK  3 active torsions:
REMARK  status: ('A' for Active; 'I' for Inactive)
REMARK    1  A    between atoms: C2_2  and  O11_20 
REMARK    2  A    between atoms: C10_10  and  N14_11 
REMARK    3  A    between atoms: N14_11  and  C15_12 
ROOT
HETATM    1  C1    D T9001      -5.177  12.601  -1.894  1.00 83.47     0.092 A 
HETATM    2  C2    D T9001      -5.780  13.153  -0.716  1.00 83.68     0.109 A 
HETATM    3  C3    D T9001      -4.994  13.333   0.471  1.00 82.47     0.044 A 
HETATM    4  C4    D T9001      -3.638  12.986   0.532  1.00 82.50     0.088 A 
HETATM    5  C5    D T9001      -3.010  12.425  -0.643  1.00 84.12     0.055 A 
HETATM    6  C6    D T9001      -3.800  12.242  -1.845  1.00 83.53     0.021 A 
HETATM    7  N7    D T9001      -2.974  13.194   1.700  1.00 81.78    -0.224 NA
HETATM    8  C8    D T9001      -1.659  12.856   1.736  1.00 83.59     0.200 A 
HETATM    9  N9    D T9001      -0.950  12.324   0.713  1.00 84.30    -0.205 NA
HETATM   10  C10   D T9001      -1.616  12.103  -0.487  1.00 85.59     0.166 A 
HETATM   11  N13   D T9001      -5.917  12.411  -3.085  1.00 82.67    -0.099 NA
ENDROOT
BRANCH  10  12
HETATM   12  N14   D T9001      -0.892  11.535  -1.596  1.00 86.44    -0.227 NA
BRANCH  12  13
HETATM   13  C15   D T9001       0.346  10.838  -1.534  1.00 87.38     0.084 A 
HETATM   14  C16   D T9001       0.525   9.701  -0.681  1.00 88.13     0.033 A 
HETATM   15  C17   D T9001       1.761   9.017  -0.619  1.00 88.88     0.087 A 
HETATM   16  C18   D T9001       2.847   9.468  -1.415  1.00 88.55     0.151 A 
HETATM   17 CL     D T9001       1.918   7.652   0.434  1.00 89.26    -0.080 Cl
HETATM   18  C19   D T9001       2.701  10.592  -2.276  1.00 87.62     0.032 A 
HETATM   19  F21   D T9001       4.030   8.832  -1.367  1.00 88.92    -0.203 F 
HETATM   20  C20   D T9001       1.455  11.278  -2.333  1.00 87.82     0.021 A 
ENDBRANCH  12  13
ENDBRANCH  10  12
BRANCH   2  21
HETATM   21  O11   D T9001      -7.128  13.483  -0.835  1.00 85.44    -0.327 OA
HETATM   22  C12   D T9001      -7.850  13.810   0.357  1.00 84.41     0.181 C 
ENDBRANCH   2  21
TORSDOF 3
ENDMDL
MODEL 9
REMARK VINA RESULT:    -6.906      2.891      3.958
REMARK INTER + INTRA:          -8.478
REMARK INTER:                  -7.899
REMARK INTRA:                  -0.579
REMARK UNBOUND:                -0.361
REMARK  3 active torsions:
REMARK  status: ('A' for Active; 'I' for Inactive)
REMARK    1  A    between atoms: C2_2  and  O11_20 
REMARK    2  A    between atoms: C10_10  and  N14_11 
REMARK    3  A    between atoms: N14_11  and  C15_12 
ROOT
HETATM    1  C1    D T9001      -3.464  12.587   1.165  1.00 83.47     0.092 A 
HETATM    2  C2    D T9001      -4.626  12.678   0.331  1.00 83.68     0.109 A 
HETATM    3  C3    D T9001      -4.513  12.439  -1.080  1.00 82.47     0.044 A 
HETATM    4  C4    D T9001      -3.294  12.116  -1.690  1.00 82.50     0.088 A 
HETATM    5  C5    D T9001      -2.109  12.021  -0.868  1.00 84.12     0.055 A 
HETATM    6  C6    D T9001      -2.218  12.262   0.558  1.00 83.53     0.021 A 
HETATM    7  N7    D T9001      -3.285  11.906  -3.033  1.00 81.78    -0.224 NA
HETATM    8  C8    D T9001      -2.094  11.589  -3.604  1.00 83.59     0.200 A 
HETATM    9  N9    D T9001      -0.912  11.468  -2.955  1.00 84.30    -0.205 NA
HETATM   10  C10   D T9001      -0.905  11.682  -1.582  1.00 85.59     0.166 A 
HETATM   11  N13   D T9001      -3.534  12.812   2.560  1.00 82.67    -0.099 NA
ENDROOT
BRANCH  10  12
HETATM   12  N14   D T9001       0.336  11.564  -0.859  1.00 86.44    -0.227 NA
BRANCH  12  13
HETATM   13  C15   D T9001       0.898  10.371  -0.328  1.00 87.38     0.084 A 
HETATM   14  C16   D T9001       0.915  10.113   1.082  1.00 88.13     0.033 A 
HETATM   15  C17   D T9001       1.482   8.928   1.604  1.00 88.88     0.087 A 
HETATM   16  C18   D T9001       2.046   7.975   0.715  1.00 88.55     0.151 A 
HETATM   17 CL     D T9001       1.478   8.674   3.317  1.00 89.26    -0.080 Cl
HETATM   18  C19   D T9001       2.041   8.199  -0.691  1.00 87.62     0.032 A 
HETATM   19  F21   D T9001       2.591   6.843   1.195  1.00 88.92    -0.203 F 
HETATM   20  C20   D T9001       1.472   9.395  -1.211  1.00 87.82     0.021 A 
ENDBRANCH  12  13
ENDBRANCH  10  12
BRANCH   2  21
HETATM   21  O11   D T9001      -5.810  12.998   0.991  1.00 85.44    -0.327 OA
HETATM   22  C12   D T9001      -6.889  13.536   0.218  1.00 84.41     0.181 C 
ENDBRANCH   2  21
TORSDOF 3
ENDMDL
