MODEL 1
REMARK VINA RESULT:    -7.512      0.000      0.000
REMARK INTER + INTRA:          -9.407
REMARK INTER:                  -8.830
REMARK INTRA:                  -0.578
REMARK UNBOUND:                -0.578
REMARK  3 active torsions:
REMARK  status: ('A' for Active; 'I' for Inactive)
REMARK    1  A    between atoms: C2_2  and  O11_20 
REMARK    2  A    between atoms: C10_10  and  N14_11 
REMARK    3  A    between atoms: N14_11  and  C15_12 
ROOT
HETATM    1  C1    D T9001      -8.266   1.664  -1.151  1.00 83.47     0.092 A 
HETATM    2  C2    D T9001      -7.646   0.984  -0.050  1.00 83.68     0.109 A 
HETATM    3  C3    D T9001      -7.340   1.704   1.152  1.00 82.47     0.044 A 
HETATM    4  C4    D T9001      -7.624   3.068   1.303  1.00 82.50     0.088 A 
HETATM    5  C5    D T9001      -8.247   3.773   0.206  1.00 84.12     0.055 A 
HETATM    6  C6    D T9001      -8.558   3.051  -1.011  1.00 83.53     0.021 A 
HETATM    7  N7    D T9001      -7.299   3.664   2.482  1.00 81.78    -0.224 NA
HETATM    8  C8    D T9001      -7.588   4.984   2.609  1.00 83.59     0.200 A 
HETATM    9  N9    D T9001      -8.167   5.764   1.665  1.00 84.30    -0.205 NA
HETATM   10  C10   D T9001      -8.504   5.168   0.454  1.00 85.59     0.166 A 
HETATM   11  N13   D T9001      -8.587   0.990  -2.353  1.00 82.67    -0.099 NA
ENDROOT
BRANCH  10  12
HETATM   12  N14   D T9001      -9.119   5.968  -0.574  1.00 86.44    -0.227 NA
BRANCH  12  13
HETATM   13  C15   D T9001      -8.451   6.796  -1.519  1.00 87.38     0.084 A 
HETATM   14  C16   D T9001      -8.103   6.314  -2.824  1.00 88.13     0.033 A 
HETATM   15  C17   D T9001      -7.434   7.140  -3.756  1.00 88.88     0.087 A 
HETATM   16  C18   D T9001      -7.097   8.471  -3.392  1.00 88.55     0.151 A 
HETATM   17 CL     D T9001      -7.035   6.502  -5.314  1.00 89.26    -0.080 Cl
HETATM   18  C19   D T9001      -7.433   8.981  -2.104  1.00 87.62     0.032 A 
HETATM   19  F21   D T9001      -6.460   9.269  -4.264  1.00 88.92    -0.203 F 
HETATM   20  C20   D T9001      -8.106   8.145  -1.170  1.00 87.82     0.021 A 
ENDBRANCH  12  13
ENDBRANCH  10  12
BRANCH   2  21
HETATM   21  O11   D T9001      -7.391  -0.369  -0.255  1.00 85.44    -0.327 OA
HETATM   22  C12   D T9001      -7.107  -1.182   0.890  1.00 84.41     0.181 C 
ENDBRANCH   2  21
TORSDOF 3
ENDMDL
MODEL 2
REMARK VINA RESULT:    -7.475      3.864      5.246
REMARK INTER + INTRA:          -9.364
REMARK INTER:                  -8.813
REMARK INTRA:                  -0.551
REMARK UNBOUND:                -0.578
REMARK  3 active torsions:
REMARK  status: ('A' for Active; 'I' for Inactive)
REMARK    1  A    between atoms: C2_2  and  O11_20 
REMARK    2  A    between atoms: C10_10  and  N14_11 
REMARK    3  A    between atoms: N14_11  and  C15_12 
ROOT
HETATM    1  C1    D T9001     -10.056   1.309  -3.513  1.00 83.47     0.092 A 
HETATM    2  C2    D T9001      -9.192   0.991  -4.614  1.00 83.68     0.109 A 
HETATM    3  C3    D T9001      -8.245   1.962  -5.082  1.00 82.47     0.044 A 
HETATM    4  C4    D T9001      -8.122   3.231  -4.501  1.00 82.50     0.088 A 
HETATM    5  C5    D T9001      -8.984   3.573  -3.392  1.00 84.12     0.055 A 
HETATM    6  C6    D T9001      -9.943   2.597  -2.915  1.00 83.53     0.021 A 
HETATM    7  N7    D T9001      -7.193   4.084  -5.011  1.00 81.78    -0.224 NA
HETATM    8  C8    D T9001      -7.088   5.306  -4.431  1.00 83.59     0.200 A 
HETATM    9  N9    D T9001      -7.829   5.756  -3.390  1.00 84.30    -0.205 NA
HETATM   10  C10   D T9001      -8.784   4.896  -2.859  1.00 85.59     0.166 A 
HETATM   11  N13   D T9001     -11.001   0.380  -3.020  1.00 82.67    -0.099 NA
ENDROOT
BRANCH  10  12
HETATM   12  N14   D T9001      -9.592   5.343  -1.753  1.00 86.44    -0.227 NA
BRANCH  12  13
HETATM   13  C15   D T9001      -9.125   5.760  -0.474  1.00 87.38     0.084 A 
HETATM   14  C16   D T9001      -8.608   4.820   0.478  1.00 88.13     0.033 A 
HETATM   15  C17   D T9001      -8.153   5.240   1.748  1.00 88.88     0.087 A 
HETATM   16  C18   D T9001      -8.211   6.618   2.090  1.00 88.55     0.151 A 
HETATM   17 CL     D T9001      -7.544   4.060   2.858  1.00 89.26    -0.080 Cl
HETATM   18  C19   D T9001      -8.716   7.576   1.164  1.00 87.62     0.032 A 
HETATM   19  F21   D T9001      -7.784   7.034   3.294  1.00 88.92    -0.203 F 
HETATM   20  C20   D T9001      -9.173   7.148  -0.113  1.00 87.82     0.021 A 
ENDBRANCH  12  13
ENDBRANCH  10  12
BRANCH   2  21
HETATM   21  O11   D T9001      -9.355  -0.284  -5.148  1.00 85.44    -0.327 OA
HETATM   22  C12   D T9001      -9.359  -0.422  -6.574  1.00 84.41     0.181 C 
ENDBRANCH   2  21
TORSDOF 3
ENDMDL
MODEL 3
REMARK VINA RESULT:    -7.432      1.993      2.354
REMARK INTER + INTRA:          -9.313
REMARK INTER:                  -8.974
REMARK INTRA:                  -0.339
REMARK UNBOUND:                -0.578
REMARK  3 active torsions:
REMARK  status: ('A' for Active; 'I' for Inactive)
REMARK    1  A    between atoms: C2_2  and  O11_20 
REMARK    2  A    between atoms: C10_10  and  N14_11 
REMARK    3  A    between atoms: N14_11  and  C15_12 
ROOT
HETATM    1  C1    D T9001      -8.312   1.655  -1.077  1.00 83.47     0.092 A 
HETATM    2  C2    D T9001      -7.632   0.933  -0.040  1.00 83.68     0.109 A 
HETATM    3  C3    D T9001      -7.258   1.606   1.170  1.00 82.47     0.044 A 
HETATM    4  C4    D T9001      -7.532   2.962   1.391  1.00 82.50     0.088 A 
HETATM    5  C5    D T9001      -8.214   3.709   0.358  1.00 84.12     0.055 A 
HETATM    6  C6    D T9001      -8.594   3.035  -0.867  1.00 83.53     0.021 A 
HETATM    7  N7    D T9001      -7.141   3.513   2.571  1.00 81.78    -0.224 NA
HETATM    8  C8    D T9001      -7.420   4.826   2.766  1.00 83.59     0.200 A 
HETATM    9  N9    D T9001      -8.050   5.642   1.887  1.00 84.30    -0.205 NA
HETATM   10  C10   D T9001      -8.454   5.093   0.674  1.00 85.59     0.166 A 
HETATM   11  N13   D T9001      -8.700   1.028  -2.285  1.00 82.67    -0.099 NA
ENDROOT
BRANCH  10  12
HETATM   12  N14   D T9001      -9.125   5.932  -0.285  1.00 86.44    -0.227 NA
BRANCH  12  13
HETATM   13  C15   D T9001      -8.781   7.270  -0.632  1.00 87.38     0.084 A 
HETATM   14  C16   D T9001      -9.095   8.371   0.231  1.00 88.13     0.033 A 
HETATM   15  C17   D T9001      -8.757   9.698  -0.122  1.00 88.88     0.087 A 
HETATM   16  C18   D T9001      -8.096   9.944  -1.356  1.00 88.55     0.151 A 
HETATM   17 CL     D T9001      -9.164  10.988   0.957  1.00 89.26    -0.080 Cl
HETATM   18  C19   D T9001      -7.768   8.870  -2.233  1.00 87.62     0.032 A 
HETATM   19  F21   D T9001      -7.769  11.198  -1.708  1.00 88.92    -0.203 F 
HETATM   20  C20   D T9001      -8.112   7.537  -1.873  1.00 87.82     0.021 A 
ENDBRANCH  12  13
ENDBRANCH  10  12
BRANCH   2  21
HETATM   21  O11   D T9001      -7.391  -0.411  -0.312  1.00 85.44    -0.327 OA
HETATM   22  C12   D T9001      -7.013  -1.261   0.778  1.00 84.41     0.181 C 
ENDBRANCH   2  21
TORSDOF 3
ENDMDL
MODEL 4
REMARK VINA RESULT:    -7.427      3.879      6.738
REMARK INTER + INTRA:          -9.308
REMARK INTER:                  -8.765
REMARK INTRA:                  -0.543
REMARK UNBOUND:                -0.578
REMARK  3 active torsions:
REMARK  status: ('A' for Active; 'I' for Inactive)
REMARK    1  A    between atoms: C2_2  and  O11_20 
REMARK    2  A    between atoms: C10_10  and  N14_11 
REMARK    3  A    between atoms: N14_11  and  C15_12 
ROOT
HETATM    1  C1    D T9001      -7.698   7.427  -3.509  1.00 83.47     0.092 A 
HETATM    2  C2    D T9001      -7.202   8.763  -3.346  1.00 83.68     0.109 A 
HETATM    3  C3    D T9001      -7.237   9.385  -2.053  1.00 82.47     0.044 A 
HETATM    4  C4    D T9001      -7.744   8.733  -0.921  1.00 82.50     0.088 A 
HETATM    5  C5    D T9001      -8.250   7.387  -1.064  1.00 84.12     0.055 A 
HETATM    6  C6    D T9001      -8.218   6.754  -2.367  1.00 83.53     0.021 A 
HETATM    7  N7    D T9001      -7.733   9.402   0.263  1.00 81.78    -0.224 NA
HETATM    8  C8    D T9001      -8.224   8.750   1.348  1.00 83.59     0.200 A 
HETATM    9  N9    D T9001      -8.729   7.493   1.357  1.00 84.30    -0.205 NA
HETATM   10  C10   D T9001      -8.747   6.798   0.153  1.00 85.59     0.166 A 
HETATM   11  N13   D T9001      -7.678   6.778  -4.766  1.00 82.67    -0.099 NA
ENDROOT
BRANCH  10  12
HETATM   12  N14   D T9001      -9.279   5.459   0.125  1.00 86.44    -0.227 NA
BRANCH  12  13
HETATM   13  C15   D T9001      -8.576   4.259   0.430  1.00 87.38     0.084 A 
HETATM   14  C16   D T9001      -8.587   3.138  -0.463  1.00 88.13     0.033 A 
HETATM   15  C17   D T9001      -7.892   1.947  -0.151  1.00 88.88     0.087 A 
HETATM   16  C18   D T9001      -7.173   1.858   1.070  1.00 88.55     0.151 A 
HETATM   17 CL     D T9001      -7.945   0.623  -1.265  1.00 89.26    -0.080 Cl
HETATM   18  C19   D T9001      -7.140   2.957   1.977  1.00 87.62     0.032 A 
HETATM   19  F21   D T9001      -6.509   0.733   1.383  1.00 88.92    -0.203 F 
HETATM   20  C20   D T9001      -7.842   4.153   1.658  1.00 87.82     0.021 A 
ENDBRANCH  12  13
ENDBRANCH  10  12
BRANCH   2  21
HETATM   21  O11   D T9001      -6.707   9.360  -4.503  1.00 85.44    -0.327 OA
HETATM   22  C12   D T9001      -7.118  10.699  -4.799  1.00 84.41     0.181 C 
ENDBRANCH   2  21
TORSDOF 3
ENDMDL
MODEL 5
REMARK VINA RESULT:    -7.403      3.980      5.744
REMARK INTER + INTRA:          -9.279
REMARK INTER:                  -8.782
REMARK INTRA:                  -0.497
REMARK UNBOUND:                -0.578
REMARK  3 active torsions:
REMARK  status: ('A' for Active; 'I' for Inactive)
REMARK    1  A    between atoms: C2_2  and  O11_20 
REMARK    2  A    between atoms: C10_10  and  N14_11 
REMARK    3  A    between atoms: N14_11  and  C15_12 
ROOT
HETATM    1  C1    D T9001      -9.919   1.020  -3.680  1.00 83.47     0.092 A 
HETATM    2  C2    D T9001      -9.174   0.790  -4.884  1.00 83.68     0.109 A 
HETATM    3  C3    D T9001      -8.266   1.792  -5.363  1.00 82.47     0.044 A 
HETATM    4  C4    D T9001      -8.069   3.008  -4.694  1.00 82.50     0.088 A 
HETATM    5  C5    D T9001      -8.811   3.260  -3.481  1.00 84.12     0.055 A 
HETATM    6  C6    D T9001      -9.730   2.252  -2.992  1.00 83.53     0.021 A 
HETATM    7  N7    D T9001      -7.184   3.895  -5.223  1.00 81.78    -0.224 NA
HETATM    8  C8    D T9001      -7.005   5.064  -4.557  1.00 83.59     0.200 A 
HETATM    9  N9    D T9001      -7.633   5.430  -3.414  1.00 84.30    -0.205 NA
HETATM   10  C10   D T9001      -8.541   4.533  -2.862  1.00 85.59     0.166 A 
HETATM   11  N13   D T9001     -10.823   0.056  -3.173  1.00 82.67    -0.099 NA
ENDROOT
BRANCH  10  12
HETATM   12  N14   D T9001      -9.229   4.890  -1.648  1.00 86.44    -0.227 NA
BRANCH  12  13
HETATM   13  C15   D T9001      -8.764   4.687  -0.318  1.00 87.38     0.084 A 
HETATM   14  C16   D T9001      -8.565   5.785   0.582  1.00 88.13     0.033 A 
HETATM   15  C17   D T9001      -8.097   5.578   1.900  1.00 88.88     0.087 A 
HETATM   16  C18   D T9001      -7.815   4.257   2.339  1.00 88.55     0.151 A 
HETATM   17 CL     D T9001      -7.872   6.942   2.940  1.00 89.26    -0.080 Cl
HETATM   18  C19   D T9001      -8.005   3.144   1.470  1.00 87.62     0.032 A 
HETATM   19  F21   D T9001      -7.367   4.041   3.587  1.00 88.92    -0.203 F 
HETATM   20  C20   D T9001      -8.476   3.359   0.144  1.00 87.82     0.021 A 
ENDBRANCH  12  13
ENDBRANCH  10  12
BRANCH   2  21
HETATM   21  O11   D T9001      -9.406  -0.435  -5.503  1.00 85.44    -0.327 OA
HETATM   22  C12   D T9001      -9.387  -0.482  -6.934  1.00 84.41     0.181 C 
ENDBRANCH   2  21
TORSDOF 3
ENDMDL
MODEL 6
REMARK VINA RESULT:    -7.228      4.153      7.427
REMARK INTER + INTRA:          -9.073
REMARK INTER:                  -8.499
REMARK INTRA:                  -0.573
REMARK UNBOUND:                -0.578
REMARK  3 active torsions:
REMARK  status: ('A' for Active; 'I' for Inactive)
REMARK    1  A    between atoms: C2_2  and  O11_20 
REMARK    2  A    between atoms: C10_10  and  N14_11 
REMARK    3  A    between atoms: N14_11  and  C15_12 
ROOT
HETATM    1  C1    D T9001      -8.586   9.125  -0.057  1.00 83.47     0.092 A 
HETATM    2  C2    D T9001      -7.984   9.935  -1.076  1.00 83.68     0.109 A 
HETATM    3  C3    D T9001      -7.586   9.340  -2.319  1.00 82.47     0.044 A 
HETATM    4  C4    D T9001      -7.763   7.976  -2.589  1.00 82.50     0.088 A 
HETATM    5  C5    D T9001      -8.366   7.141  -1.576  1.00 84.12     0.055 A 
HETATM    6  C6    D T9001      -8.770   7.737  -0.318  1.00 83.53     0.021 A 
HETATM    7  N7    D T9001      -7.357   7.502  -3.798  1.00 81.78    -0.224 NA
HETATM    8  C8    D T9001      -7.542   6.180  -4.039  1.00 83.59     0.200 A 
HETATM    9  N9    D T9001      -8.092   5.286  -3.183  1.00 84.30    -0.205 NA
HETATM   10  C10   D T9001      -8.510   5.756  -1.942  1.00 85.59     0.166 A 
HETATM   11  N13   D T9001      -8.995   9.674   1.181  1.00 82.67    -0.099 NA
ENDROOT
BRANCH  10  12
HETATM   12  N14   D T9001      -9.097   4.833  -1.005  1.00 86.44    -0.227 NA
BRANCH  12  13
HETATM   13  C15   D T9001      -8.406   3.875  -0.210  1.00 87.38     0.084 A 
HETATM   14  C16   D T9001      -8.254   2.515  -0.638  1.00 88.13     0.033 A 
HETATM   15  C17   D T9001      -7.573   1.568   0.160  1.00 88.88     0.087 A 
HETATM   16  C18   D T9001      -7.031   1.970   1.410  1.00 88.55     0.151 A 
HETATM   17 CL     D T9001      -7.424  -0.060  -0.406  1.00 89.26    -0.080 Cl
HETATM   18  C19   D T9001      -7.163   3.315   1.862  1.00 87.62     0.032 A 
HETATM   19  F21   D T9001      -6.382   1.083   2.182  1.00 88.92    -0.203 F 
HETATM   20  C20   D T9001      -7.851   4.264   1.055  1.00 87.82     0.021 A 
ENDBRANCH  12  13
ENDBRANCH  10  12
BRANCH   2  21
HETATM   21  O11   D T9001      -7.837  11.282  -0.756  1.00 85.44    -0.327 OA
HETATM   22  C12   D T9001      -8.608  12.238  -1.493  1.00 84.41     0.181 C 
ENDBRANCH   2  21
TORSDOF 3
ENDMDL
MODEL 7
REMARK VINA RESULT:    -7.200      3.148      5.099
REMARK INTER + INTRA:          -9.040
REMARK INTER:                  -8.475
REMARK INTRA:                  -0.565
REMARK UNBOUND:                -0.578
REMARK  3 active torsions:
REMARK  status: ('A' for Active; 'I' for Inactive)
REMARK    1  A    between atoms: C2_2  and  O11_20 
REMARK    2  A    between atoms: C10_10  and  N14_11 
REMARK    3  A    between atoms: N14_11  and  C15_12 
ROOT
HETATM    1  C1    D T9001      -9.128   5.969   0.193  1.00 83.47     0.092 A 
HETATM    2  C2    D T9001      -8.555   5.828   1.501  1.00 83.68     0.109 A 
HETATM    3  C3    D T9001      -7.954   4.584   1.886  1.00 82.47     0.044 A 
HETATM    4  C4    D T9001      -7.898   3.478   1.027  1.00 82.50     0.088 A 
HETATM    5  C5    D T9001      -8.471   3.598  -0.294  1.00 84.12     0.055 A 
HETATM    6  C6    D T9001      -9.081   4.852  -0.689  1.00 83.53     0.021 A 
HETATM    7  N7    D T9001      -7.305   2.342   1.480  1.00 81.78    -0.224 NA
HETATM    8  C8    D T9001      -7.259   1.285   0.630  1.00 83.59     0.200 A 
HETATM    9  N9    D T9001      -7.755   1.259  -0.630  1.00 84.30    -0.205 NA
HETATM   10  C10   D T9001      -8.366   2.414  -1.107  1.00 85.59     0.166 A 
HETATM   11  N13   D T9001      -9.728   7.179  -0.226  1.00 82.67    -0.099 NA
ENDROOT
BRANCH  10  12
HETATM   12  N14   D T9001      -8.907   2.420  -2.442  1.00 86.44    -0.227 NA
BRANCH  12  13
HETATM   13  C15   D T9001      -8.180   2.603  -3.652  1.00 87.38     0.084 A 
HETATM   14  C16   D T9001      -8.010   3.902  -4.236  1.00 88.13     0.033 A 
HETATM   15  C17   D T9001      -7.293   4.076  -5.441  1.00 88.88     0.087 A 
HETATM   16  C18   D T9001      -6.732   2.942  -6.088  1.00 88.55     0.151 A 
HETATM   17 CL     D T9001      -7.125   5.667  -6.101  1.00 89.26    -0.080 Cl
HETATM   18  C19   D T9001      -6.880   1.639  -5.532  1.00 87.62     0.032 A 
HETATM   19  F21   D T9001      -6.049   3.089  -7.236  1.00 88.92    -0.203 F 
HETATM   20  C20   D T9001      -7.604   1.470  -4.318  1.00 87.82     0.021 A 
ENDBRANCH  12  13
ENDBRANCH  10  12
BRANCH   2  21
HETATM   21  O11   D T9001      -8.634   6.958   2.310  1.00 85.44    -0.327 OA
HETATM   22  C12   D T9001      -7.471   7.786   2.427  1.00 84.41     0.181 C 
ENDBRANCH   2  21
TORSDOF 3
ENDMDL
MODEL 8
REMARK VINA RESULT:    -7.082      2.248      3.716
REMARK INTER + INTRA:          -8.901
REMARK INTER:                  -8.407
REMARK INTRA:                  -0.495
REMARK UNBOUND:                -0.578
REMARK  3 active torsions:
REMARK  status: ('A' for Active; 'I' for Inactive)
REMARK    1  A    between atoms: C2_2  and  O11_20 
REMARK    2  A    between atoms: C10_10  and  N14_11 
REMARK    3  A    between atoms: N14_11  and  C15_12 
ROOT
HETATM    1  C1    D T9001      -7.770   2.416   0.712  1.00 83.47     0.092 A 
HETATM    2  C2    D T9001      -7.334   1.185   0.117  1.00 83.68     0.109 A 
HETATM    3  C3    D T9001      -7.579   0.939  -1.275  1.00 82.47     0.044 A 
HETATM    4  C4    D T9001      -8.238   1.864  -2.096  1.00 82.50     0.088 A 
HETATM    5  C5    D T9001      -8.687   3.109  -1.516  1.00 84.12     0.055 A 
HETATM    6  C6    D T9001      -8.443   3.363  -0.111  1.00 83.53     0.021 A 
HETATM    7  N7    D T9001      -8.423   1.544  -3.405  1.00 81.78    -0.224 NA
HETATM    8  C8    D T9001      -9.059   2.456  -4.182  1.00 83.59     0.200 A 
HETATM    9  N9    D T9001      -9.531   3.657  -3.772  1.00 84.30    -0.205 NA
HETATM   10  C10   D T9001      -9.351   3.998  -2.436  1.00 85.59     0.166 A 
HETATM   11  N13   D T9001      -7.545   2.698   2.080  1.00 82.67    -0.099 NA
ENDROOT
BRANCH  10  12
HETATM   12  N14   D T9001      -9.843   5.266  -1.964  1.00 86.44    -0.227 NA
BRANCH  12  13
HETATM   13  C15   D T9001      -9.060   6.398  -1.599  1.00 87.38     0.084 A 
HETATM   14  C16   D T9001      -9.037   6.891  -0.253  1.00 88.13     0.033 A 
HETATM   15  C17   D T9001      -8.263   8.020   0.101  1.00 88.88     0.087 A 
HETATM   16  C18   D T9001      -7.497   8.680  -0.896  1.00 88.55     0.151 A 
HETATM   17 CL     D T9001      -8.277   8.571   1.741  1.00 89.26    -0.080 Cl
HETATM   18  C19   D T9001      -7.497   8.213  -2.242  1.00 87.62     0.032 A 
HETATM   19  F21   D T9001      -6.757   9.756  -0.578  1.00 88.92    -0.203 F 
HETATM   20  C20   D T9001      -8.278   7.077  -2.593  1.00 87.82     0.021 A 
ENDBRANCH  12  13
ENDBRANCH  10  12
BRANCH   2  21
HETATM   21  O11   D T9001      -6.681   0.306   0.978  1.00 85.44    -0.327 OA
HETATM   22  C12   D T9001      -7.079  -1.069   0.965  1.00 84.41     0.181 C 
ENDBRANCH   2  21
TORSDOF 3
ENDMDL
MODEL 9
REMARK VINA RESULT:    -7.055      4.109      7.428
REMARK INTER + INTRA:          -8.870
REMARK INTER:                  -8.363
REMARK INTRA:                  -0.507
REMARK UNBOUND:                -0.578
REMARK  3 active torsions:
REMARK  status: ('A' for Active; 'I' for Inactive)
REMARK    1  A    between atoms: C2_2  and  O11_20 
REMARK    2  A    between atoms: C10_10  and  N14_11 
REMARK    3  A    between atoms: N14_11  and  C15_12 
ROOT
HETATM    1  C1    D T9001      -8.063   7.201  -2.194  1.00 83.47     0.092 A 
HETATM    2  C2    D T9001      -7.396   7.825  -3.300  1.00 83.68     0.109 A 
HETATM    3  C3    D T9001      -7.065   7.052  -4.462  1.00 82.47     0.044 A 
HETATM    4  C4    D T9001      -7.371   5.689  -4.569  1.00 82.50     0.088 A 
HETATM    5  C5    D T9001      -8.041   5.040  -3.466  1.00 84.12     0.055 A 
HETATM    6  C6    D T9001      -8.377   5.815  -2.289  1.00 83.53     0.021 A 
HETATM    7  N7    D T9001      -7.020   5.040  -5.712  1.00 81.78    -0.224 NA
HETATM    8  C8    D T9001      -7.329   3.721  -5.795  1.00 83.59     0.200 A 
HETATM    9  N9    D T9001      -7.952   2.990  -4.840  1.00 84.30    -0.205 NA
HETATM   10  C10   D T9001      -8.316   3.640  -3.666  1.00 85.59     0.166 A 
HETATM   11  N13   D T9001      -8.410   7.929  -1.031  1.00 82.67    -0.099 NA
ENDROOT
BRANCH  10  12
HETATM   12  N14   D T9001      -8.979   2.894  -2.628  1.00 86.44    -0.227 NA
BRANCH  12  13
HETATM   13  C15   D T9001      -8.362   2.250  -1.518  1.00 87.38     0.084 A 
HETATM   14  C16   D T9001      -8.106   2.950  -0.293  1.00 88.13     0.033 A 
HETATM   15  C17   D T9001      -7.487   2.307   0.803  1.00 88.88     0.087 A 
HETATM   16  C18   D T9001      -7.108   0.943   0.687  1.00 88.55     0.151 A 
HETATM   17 CL     D T9001      -7.200   3.204   2.255  1.00 89.26    -0.080 Cl
HETATM   18  C19   D T9001      -7.350   0.219  -0.515  1.00 87.62     0.032 A 
HETATM   19  F21   D T9001      -6.516   0.317   1.719  1.00 88.92    -0.203 F 
HETATM   20  C20   D T9001      -7.974   0.872  -1.616  1.00 87.82     0.021 A 
ENDBRANCH  12  13
ENDBRANCH  10  12
BRANCH   2  21
HETATM   21  O11   D T9001      -7.122   9.182  -3.142  1.00 85.44    -0.327 OA
HETATM   22  C12   D T9001      -7.720  10.102  -4.062  1.00 84.41     0.181 C 
ENDBRANCH   2  21
TORSDOF 3
ENDMDL
