MODEL 1
REMARK VINA RESULT:    -7.932      0.000      0.000
REMARK INTER + INTRA:          -9.729
REMARK INTER:                  -9.323
REMARK INTRA:                  -0.405
REMARK UNBOUND:                -0.405
REMARK  3 active torsions:
REMARK  status: ('A' for Active; 'I' for Inactive)
REMARK    1  A    between atoms: C2_2  and  O11_20 
REMARK    2  A    between atoms: C10_10  and  N14_11 
REMARK    3  A    between atoms: N14_11  and  C15_12 
ROOT
HETATM    1  C1    D T9001       7.890   8.801  -3.183  1.00 83.47     0.092 A 
HETATM    2  C2    D T9001       7.516  10.154  -3.479  1.00 83.68     0.109 A 
HETATM    3  C3    D T9001       6.653  10.427  -4.592  1.00 82.47     0.044 A 
HETATM    4  C4    D T9001       6.147   9.414  -5.417  1.00 82.50     0.088 A 
HETATM    5  C5    D T9001       6.514   8.044  -5.137  1.00 84.12     0.055 A 
HETATM    6  C6    D T9001       7.387   7.762  -4.015  1.00 83.53     0.021 A 
HETATM    7  N7    D T9001       5.333   9.770  -6.446  1.00 81.78    -0.224 NA
HETATM    8  C8    D T9001       4.851   8.772  -7.231  1.00 83.59     0.200 A 
HETATM    9  N9    D T9001       5.113   7.452  -7.083  1.00 84.30    -0.205 NA
HETATM   10  C10   D T9001       5.946   7.073  -6.036  1.00 85.59     0.166 A 
HETATM   11  N13   D T9001       8.739   8.489  -2.095  1.00 82.67    -0.099 NA
ENDROOT
BRANCH  10  12
HETATM   12  N14   D T9001       6.246   5.676  -5.850  1.00 86.44    -0.227 NA
BRANCH  12  13
HETATM   13  C15   D T9001       5.519   4.573  -6.380  1.00 87.38     0.084 A 
HETATM   14  C16   D T9001       4.452   3.958  -5.647  1.00 88.13     0.033 A 
HETATM   15  C17   D T9001       3.739   2.858  -6.176  1.00 88.88     0.087 A 
HETATM   16  C18   D T9001       4.088   2.351  -7.455  1.00 88.55     0.151 A 
HETATM   17 CL     D T9001       2.462   2.152  -5.243  1.00 89.26    -0.080 Cl
HETATM   18  C19   D T9001       5.142   2.942  -8.209  1.00 87.62     0.032 A 
HETATM   19  F21   D T9001       3.423   1.303  -7.972  1.00 88.92    -0.203 F 
HETATM   20  C20   D T9001       5.856   4.048  -7.673  1.00 87.82     0.021 A 
ENDBRANCH  12  13
ENDBRANCH  10  12
BRANCH   2  21
HETATM   21  O11   D T9001       8.043  11.118  -2.625  1.00 85.44    -0.327 OA
HETATM   22  C12   D T9001       7.471  12.430  -2.654  1.00 84.41     0.181 C 
ENDBRANCH   2  21
TORSDOF 3
ENDMDL
MODEL 2
REMARK VINA RESULT:    -7.644      4.306      7.026
REMARK INTER + INTRA:          -9.390
REMARK INTER:                  -8.844
REMARK INTRA:                  -0.545
REMARK UNBOUND:                -0.405
REMARK  3 active torsions:
REMARK  status: ('A' for Active; 'I' for Inactive)
REMARK    1  A    between atoms: C2_2  and  O11_20 
REMARK    2  A    between atoms: C10_10  and  N14_11 
REMARK    3  A    between atoms: N14_11  and  C15_12 
ROOT
HETATM    1  C1    D T9001       6.301   2.731  -3.686  1.00 83.47     0.092 A 
HETATM    2  C2    D T9001       5.224   1.784  -3.670  1.00 83.68     0.109 A 
HETATM    3  C3    D T9001       4.201   1.851  -4.674  1.00 82.47     0.044 A 
HETATM    4  C4    D T9001       4.209   2.815  -5.691  1.00 82.50     0.088 A 
HETATM    5  C5    D T9001       5.285   3.780  -5.724  1.00 84.12     0.055 A 
HETATM    6  C6    D T9001       6.320   3.718  -4.711  1.00 83.53     0.021 A 
HETATM    7  N7    D T9001       3.199   2.797  -6.600  1.00 81.78    -0.224 NA
HETATM    8  C8    D T9001       3.227   3.738  -7.579  1.00 83.59     0.200 A 
HETATM    9  N9    D T9001       4.171   4.697  -7.728  1.00 84.30    -0.205 NA
HETATM   10  C10   D T9001       5.209   4.729  -6.804  1.00 85.59     0.166 A 
HETATM   11  N13   D T9001       7.329   2.699  -2.714  1.00 82.67    -0.099 NA
ENDROOT
BRANCH  10  12
HETATM   12  N14   D T9001       6.230   5.737  -6.932  1.00 86.44    -0.227 NA
BRANCH  12  13
HETATM   13  C15   D T9001       6.278   6.989  -6.254  1.00 87.38     0.084 A 
HETATM   14  C16   D T9001       7.106   7.184  -5.100  1.00 88.13     0.033 A 
HETATM   15  C17   D T9001       7.142   8.428  -4.428  1.00 88.88     0.087 A 
HETATM   16  C18   D T9001       6.344   9.501  -4.903  1.00 88.55     0.151 A 
HETATM   17 CL     D T9001       8.157   8.604  -3.036  1.00 89.26    -0.080 Cl
HETATM   18  C19   D T9001       5.514   9.338  -6.048  1.00 87.62     0.032 A 
HETATM   19  F21   D T9001       6.364  10.689  -4.273  1.00 88.92    -0.203 F 
HETATM   20  C20   D T9001       5.479   8.086  -6.721  1.00 87.82     0.021 A 
ENDBRANCH  12  13
ENDBRANCH  10  12
BRANCH   2  21
HETATM   21  O11   D T9001       5.270   0.847  -2.642  1.00 85.44    -0.327 OA
HETATM   22  C12   D T9001       5.057  -0.530  -2.974  1.00 84.41     0.181 C 
ENDBRANCH   2  21
TORSDOF 3
ENDMDL
MODEL 3
REMARK VINA RESULT:    -7.613      4.607      7.680
REMARK INTER + INTRA:          -9.353
REMARK INTER:                  -8.823
REMARK INTRA:                  -0.530
REMARK UNBOUND:                -0.405
REMARK  3 active torsions:
REMARK  status: ('A' for Active; 'I' for Inactive)
REMARK    1  A    between atoms: C2_2  and  O11_20 
REMARK    2  A    between atoms: C10_10  and  N14_11 
REMARK    3  A    between atoms: N14_11  and  C15_12 
ROOT
HETATM    1  C1    D T9001       5.025   5.234  -7.046  1.00 83.47     0.092 A 
HETATM    2  C2    D T9001       4.093   4.229  -6.625  1.00 83.68     0.109 A 
HETATM    3  C3    D T9001       4.096   3.779  -5.263  1.00 82.47     0.044 A 
HETATM    4  C4    D T9001       4.985   4.288  -4.306  1.00 82.50     0.088 A 
HETATM    5  C5    D T9001       5.934   5.300  -4.711  1.00 84.12     0.055 A 
HETATM    6  C6    D T9001       5.936   5.757  -6.086  1.00 83.53     0.021 A 
HETATM    7  N7    D T9001       4.911   3.802  -3.039  1.00 81.78    -0.224 NA
HETATM    8  C8    D T9001       5.779   4.311  -2.127  1.00 83.59     0.200 A 
HETATM    9  N9    D T9001       6.716   5.259  -2.368  1.00 84.30    -0.205 NA
HETATM   10  C10   D T9001       6.804   5.763  -3.661  1.00 85.59     0.166 A 
HETATM   11  N13   D T9001       5.053   5.705  -8.380  1.00 82.67    -0.099 NA
ENDROOT
BRANCH  10  12
HETATM   12  N14   D T9001       7.790   6.771  -3.953  1.00 86.44    -0.227 NA
BRANCH  12  13
HETATM   13  C15   D T9001       7.643   8.178  -3.789  1.00 87.38     0.084 A 
HETATM   14  C16   D T9001       8.274   8.876  -2.708  1.00 88.13     0.033 A 
HETATM   15  C17   D T9001       8.117  10.272  -2.547  1.00 88.88     0.087 A 
HETATM   16  C18   D T9001       7.317  10.995  -3.471  1.00 88.55     0.151 A 
HETATM   17 CL     D T9001       8.899  11.061  -1.219  1.00 89.26    -0.080 Cl
HETATM   18  C19   D T9001       6.679  10.330  -4.557  1.00 87.62     0.032 A 
HETATM   19  F21   D T9001       7.154  12.322  -3.330  1.00 88.92    -0.203 F 
HETATM   20  C20   D T9001       6.840   8.926  -4.715  1.00 87.82     0.021 A 
ENDBRANCH  12  13
ENDBRANCH  10  12
BRANCH   2  21
HETATM   21  O11   D T9001       3.231   3.763  -7.615  1.00 85.44    -0.327 OA
HETATM   22  C12   D T9001       3.270   2.369  -7.942  1.00 84.41     0.181 C 
ENDBRANCH   2  21
TORSDOF 3
ENDMDL
MODEL 4
REMARK VINA RESULT:    -7.574      1.611      1.804
REMARK INTER + INTRA:          -9.307
REMARK INTER:                  -8.850
REMARK INTRA:                  -0.457
REMARK UNBOUND:                -0.405
REMARK  3 active torsions:
REMARK  status: ('A' for Active; 'I' for Inactive)
REMARK    1  A    between atoms: C2_2  and  O11_20 
REMARK    2  A    between atoms: C10_10  and  N14_11 
REMARK    3  A    between atoms: N14_11  and  C15_12 
ROOT
HETATM    1  C1    D T9001       7.927   6.620  -4.145  1.00 83.47     0.092 A 
HETATM    2  C2    D T9001       7.799   7.952  -3.628  1.00 83.68     0.109 A 
HETATM    3  C3    D T9001       6.938   8.893  -4.285  1.00 82.47     0.044 A 
HETATM    4  C4    D T9001       6.200   8.563  -5.430  1.00 82.50     0.088 A 
HETATM    5  C5    D T9001       6.317   7.227  -5.968  1.00 84.12     0.055 A 
HETATM    6  C6    D T9001       7.186   6.272  -5.309  1.00 83.53     0.021 A 
HETATM    7  N7    D T9001       5.408   9.520  -5.981  1.00 81.78    -0.224 NA
HETATM    8  C8    D T9001       4.699   9.178  -7.087  1.00 83.59     0.200 A 
HETATM    9  N9    D T9001       4.714   7.968  -7.695  1.00 84.30    -0.205 NA
HETATM   10  C10   D T9001       5.521   6.980  -7.143  1.00 85.59     0.166 A 
HETATM   11  N13   D T9001       8.765   5.663  -3.526  1.00 82.67    -0.099 NA
ENDROOT
BRANCH  10  12
HETATM   12  N14   D T9001       5.562   5.681  -7.764  1.00 86.44    -0.227 NA
BRANCH  12  13
HETATM   13  C15   D T9001       5.213   4.439  -7.161  1.00 87.38     0.084 A 
HETATM   14  C16   D T9001       4.034   4.301  -6.358  1.00 88.13     0.033 A 
HETATM   15  C17   D T9001       3.698   3.066  -5.757  1.00 88.88     0.087 A 
HETATM   16  C18   D T9001       4.546   1.944  -5.949  1.00 88.55     0.151 A 
HETATM   17 CL     D T9001       2.263   2.960  -4.794  1.00 89.26    -0.080 Cl
HETATM   18  C19   D T9001       5.723   2.049  -6.743  1.00 87.62     0.032 A 
HETATM   19  F21   D T9001       4.243   0.763  -5.380  1.00 88.92    -0.203 F 
HETATM   20  C20   D T9001       6.057   3.292  -7.346  1.00 87.82     0.021 A 
ENDBRANCH  12  13
ENDBRANCH  10  12
BRANCH   2  21
HETATM   21  O11   D T9001       8.550   8.222  -2.487  1.00 85.44    -0.327 OA
HETATM   22  C12   D T9001       8.592   9.572  -2.012  1.00 84.41     0.181 C 
ENDBRANCH   2  21
TORSDOF 3
ENDMDL
MODEL 5
REMARK VINA RESULT:    -7.559      4.472      6.705
REMARK INTER + INTRA:          -9.290
REMARK INTER:                  -8.724
REMARK INTRA:                  -0.566
REMARK UNBOUND:                -0.405
REMARK  3 active torsions:
REMARK  status: ('A' for Active; 'I' for Inactive)
REMARK    1  A    between atoms: C2_2  and  O11_20 
REMARK    2  A    between atoms: C10_10  and  N14_11 
REMARK    3  A    between atoms: N14_11  and  C15_12 
ROOT
HETATM    1  C1    D T9001       7.254   2.822  -2.787  1.00 83.47     0.092 A 
HETATM    2  C2    D T9001       6.355   1.865  -2.210  1.00 83.68     0.109 A 
HETATM    3  C3    D T9001       5.128   1.543  -2.882  1.00 82.47     0.044 A 
HETATM    4  C4    D T9001       4.762   2.133  -4.100  1.00 82.50     0.088 A 
HETATM    5  C5    D T9001       5.653   3.102  -4.696  1.00 84.12     0.055 A 
HETATM    6  C6    D T9001       6.893   3.431  -4.022  1.00 83.53     0.021 A 
HETATM    7  N7    D T9001       3.582   1.763  -4.662  1.00 81.78    -0.224 NA
HETATM    8  C8    D T9001       3.248   2.343  -5.844  1.00 83.59     0.200 A 
HETATM    9  N9    D T9001       3.986   3.262  -6.511  1.00 84.30    -0.205 NA
HETATM   10  C10   D T9001       5.195   3.651  -5.946  1.00 85.59     0.166 A 
HETATM   11  N13   D T9001       8.473   3.165  -2.157  1.00 82.67    -0.099 NA
ENDROOT
BRANCH  10  12
HETATM   12  N14   D T9001       6.005   4.628  -6.628  1.00 86.44    -0.227 NA
BRANCH  12  13
HETATM   13  C15   D T9001       5.918   6.044  -6.499  1.00 87.38     0.084 A 
HETATM   14  C16   D T9001       6.616   6.746  -5.462  1.00 88.13     0.033 A 
HETATM   15  C17   D T9001       6.519   8.150  -5.336  1.00 88.88     0.087 A 
HETATM   16  C18   D T9001       5.713   8.879  -6.250  1.00 88.55     0.151 A 
HETATM   17 CL     D T9001       7.382   8.944  -4.061  1.00 89.26    -0.080 Cl
HETATM   18  C19   D T9001       5.009   8.210  -7.292  1.00 87.62     0.032 A 
HETATM   19  F21   D T9001       5.607  10.215  -6.141  1.00 88.92    -0.203 F 
HETATM   20  C20   D T9001       5.109   6.797  -7.415  1.00 87.82     0.021 A 
ENDBRANCH  12  13
ENDBRANCH  10  12
BRANCH   2  21
HETATM   21  O11   D T9001       6.771   1.308  -1.004  1.00 85.44    -0.327 OA
HETATM   22  C12   D T9001       6.151   1.770   0.201  1.00 84.41     0.181 C 
ENDBRANCH   2  21
TORSDOF 3
ENDMDL
MODEL 6
REMARK VINA RESULT:    -7.306      4.888      7.700
REMARK INTER + INTRA:          -8.993
REMARK INTER:                  -8.426
REMARK INTRA:                  -0.567
REMARK UNBOUND:                -0.405
REMARK  3 active torsions:
REMARK  status: ('A' for Active; 'I' for Inactive)
REMARK    1  A    between atoms: C2_2  and  O11_20 
REMARK    2  A    between atoms: C10_10  and  N14_11 
REMARK    3  A    between atoms: N14_11  and  C15_12 
ROOT
HETATM    1  C1    D T9001       5.805   1.723  -4.831  1.00 83.47     0.092 A 
HETATM    2  C2    D T9001       5.440   1.007  -3.644  1.00 83.68     0.109 A 
HETATM    3  C3    D T9001       5.781   1.540  -2.356  1.00 82.47     0.044 A 
HETATM    4  C4    D T9001       6.467   2.752  -2.203  1.00 82.50     0.088 A 
HETATM    5  C5    D T9001       6.847   3.488  -3.388  1.00 84.12     0.055 A 
HETATM    6  C6    D T9001       6.506   2.954  -4.691  1.00 83.53     0.021 A 
HETATM    7  N7    D T9001       6.744   3.178  -0.942  1.00 81.78    -0.224 NA
HETATM    8  C8    D T9001       7.406   4.357  -0.817  1.00 83.59     0.200 A 
HETATM    9  N9    D T9001       7.820   5.146  -1.837  1.00 84.30    -0.205 NA
HETATM   10  C10   D T9001       7.545   4.721  -3.132  1.00 85.59     0.166 A 
HETATM   11  N13   D T9001       5.487   1.232  -6.119  1.00 82.67    -0.099 NA
ENDROOT
BRANCH  10  12
HETATM   12  N14   D T9001       7.972   5.535  -4.241  1.00 86.44    -0.227 NA
BRANCH  12  13
HETATM   13  C15   D T9001       7.311   6.687  -4.754  1.00 87.38     0.084 A 
HETATM   14  C16   D T9001       7.527   7.988  -4.192  1.00 88.13     0.033 A 
HETATM   15  C17   D T9001       6.861   9.126  -4.703  1.00 88.88     0.087 A 
HETATM   16  C18   D T9001       5.960   8.977  -5.789  1.00 88.55     0.151 A 
HETATM   17 CL     D T9001       7.159  10.671  -3.980  1.00 89.26    -0.080 Cl
HETATM   18  C19   D T9001       5.726   7.699  -6.371  1.00 87.62     0.032 A 
HETATM   19  F21   D T9001       5.316  10.049  -6.284  1.00 88.92    -0.203 F 
HETATM   20  C20   D T9001       6.397   6.557  -5.854  1.00 87.82     0.021 A 
ENDBRANCH  12  13
ENDBRANCH  10  12
BRANCH   2  21
HETATM   21  O11   D T9001       4.756  -0.187  -3.855  1.00 85.44    -0.327 OA
HETATM   22  C12   D T9001       4.720  -1.142  -2.787  1.00 84.41     0.181 C 
ENDBRANCH   2  21
TORSDOF 3
ENDMDL
MODEL 7
REMARK VINA RESULT:    -7.263      5.052      7.424
REMARK INTER + INTRA:          -8.942
REMARK INTER:                  -8.365
REMARK INTRA:                  -0.577
REMARK UNBOUND:                -0.405
REMARK  3 active torsions:
REMARK  status: ('A' for Active; 'I' for Inactive)
REMARK    1  A    between atoms: C2_2  and  O11_20 
REMARK    2  A    between atoms: C10_10  and  N14_11 
REMARK    3  A    between atoms: N14_11  and  C15_12 
ROOT
HETATM    1  C1    D T9001       5.044  -0.174  -2.790  1.00 83.47     0.092 A 
HETATM    2  C2    D T9001       5.820  -0.177  -1.584  1.00 83.68     0.109 A 
HETATM    3  C3    D T9001       6.321   1.059  -1.055  1.00 82.47     0.044 A 
HETATM    4  C4    D T9001       6.081   2.293  -1.674  1.00 82.50     0.088 A 
HETATM    5  C5    D T9001       5.303   2.318  -2.892  1.00 84.12     0.055 A 
HETATM    6  C6    D T9001       4.795   1.072  -3.431  1.00 83.53     0.021 A 
HETATM    7  N7    D T9001       6.595   3.411  -1.097  1.00 81.78    -0.224 NA
HETATM    8  C8    D T9001       6.347   4.596  -1.711  1.00 83.59     0.200 A 
HETATM    9  N9    D T9001       5.637   4.765  -2.851  1.00 84.30    -0.205 NA
HETATM   10  C10   D T9001       5.107   3.629  -3.454  1.00 85.59     0.166 A 
HETATM   11  N13   D T9001       4.530  -1.370  -3.344  1.00 82.67    -0.099 NA
ENDROOT
BRANCH  10  12
HETATM   12  N14   D T9001       4.347   3.771  -4.670  1.00 86.44    -0.227 NA
BRANCH  12  13
HETATM   13  C15   D T9001       4.867   4.004  -5.975  1.00 87.38     0.084 A 
HETATM   14  C16   D T9001       4.566   5.204  -6.698  1.00 88.13     0.033 A 
HETATM   15  C17   D T9001       5.080   5.425  -7.996  1.00 88.88     0.087 A 
HETATM   16  C18   D T9001       5.908   4.440  -8.596  1.00 88.55     0.151 A 
HETATM   17 CL     D T9001       4.679   6.893  -8.823  1.00 89.26    -0.080 Cl
HETATM   18  C19   D T9001       6.227   3.238  -7.902  1.00 87.62     0.032 A 
HETATM   19  F21   D T9001       6.402   4.633  -9.831  1.00 88.92    -0.203 F 
HETATM   20  C20   D T9001       5.707   3.019  -6.596  1.00 87.82     0.021 A 
ENDBRANCH  12  13
ENDBRANCH  10  12
BRANCH   2  21
HETATM   21  O11   D T9001       6.022  -1.429  -1.010  1.00 85.44    -0.327 OA
HETATM   22  C12   D T9001       7.370  -1.884  -0.841  1.00 84.41     0.181 C 
ENDBRANCH   2  21
TORSDOF 3
ENDMDL
MODEL 8
REMARK VINA RESULT:    -7.227      3.553      4.843
REMARK INTER + INTRA:          -8.899
REMARK INTER:                  -8.312
REMARK INTRA:                  -0.587
REMARK UNBOUND:                -0.405
REMARK  3 active torsions:
REMARK  status: ('A' for Active; 'I' for Inactive)
REMARK    1  A    between atoms: C2_2  and  O11_20 
REMARK    2  A    between atoms: C10_10  and  N14_11 
REMARK    3  A    between atoms: N14_11  and  C15_12 
ROOT
HETATM    1  C1    D T9001       6.837   6.472  -5.304  1.00 83.47     0.092 A 
HETATM    2  C2    D T9001       6.020   7.251  -6.188  1.00 83.68     0.109 A 
HETATM    3  C3    D T9001       5.066   6.599  -7.038  1.00 82.47     0.044 A 
HETATM    4  C4    D T9001       4.891   5.208  -7.043  1.00 82.50     0.088 A 
HETATM    5  C5    D T9001       5.707   4.404  -6.161  1.00 84.12     0.055 A 
HETATM    6  C6    D T9001       6.673   5.057  -5.301  1.00 83.53     0.021 A 
HETATM    7  N7    D T9001       3.961   4.681  -7.882  1.00 81.78    -0.224 NA
HETATM    8  C8    D T9001       3.805   3.332  -7.868  1.00 83.59     0.200 A 
HETATM    9  N9    D T9001       4.499   2.463  -7.095  1.00 84.30    -0.205 NA
HETATM   10  C10   D T9001       5.456   2.988  -6.234  1.00 85.59     0.166 A 
HETATM   11  N13   D T9001       7.788   7.076  -4.448  1.00 82.67    -0.099 NA
ENDROOT
BRANCH  10  12
HETATM   12  N14   D T9001       6.214   2.092  -5.399  1.00 86.44    -0.227 NA
BRANCH  12  13
HETATM   13  C15   D T9001       5.764   1.457  -4.206  1.00 87.38     0.084 A 
HETATM   14  C16   D T9001       5.856   2.107  -2.931  1.00 88.13     0.033 A 
HETATM   15  C17   D T9001       5.414   1.468  -1.751  1.00 88.88     0.087 A 
HETATM   16  C18   D T9001       4.871   0.158  -1.827  1.00 88.55     0.151 A 
HETATM   17 CL     D T9001       5.555   2.300  -0.238  1.00 89.26    -0.080 Cl
HETATM   18  C19   D T9001       4.764  -0.512  -3.079  1.00 87.62     0.032 A 
HETATM   19  F21   D T9001       4.450  -0.465  -0.713  1.00 88.92    -0.203 F 
HETATM   20  C20   D T9001       5.210   0.134  -4.265  1.00 87.82     0.021 A 
ENDBRANCH  12  13
ENDBRANCH  10  12
BRANCH   2  21
HETATM   21  O11   D T9001       6.232   8.626  -6.137  1.00 85.44    -0.327 OA
HETATM   22  C12   D T9001       5.098   9.476  -5.931  1.00 84.41     0.181 C 
ENDBRANCH   2  21
TORSDOF 3
ENDMDL
MODEL 9
REMARK VINA RESULT:    -7.195      4.402      7.643
REMARK INTER + INTRA:          -8.862
REMARK INTER:                  -8.421
REMARK INTRA:                  -0.441
REMARK UNBOUND:                -0.405
REMARK  3 active torsions:
REMARK  status: ('A' for Active; 'I' for Inactive)
REMARK    1  A    between atoms: C2_2  and  O11_20 
REMARK    2  A    between atoms: C10_10  and  N14_11 
REMARK    3  A    between atoms: N14_11  and  C15_12 
ROOT
HETATM    1  C1    D T9001       5.906   3.398  -6.737  1.00 83.47     0.092 A 
HETATM    2  C2    D T9001       4.980   2.414  -6.257  1.00 83.68     0.109 A 
HETATM    3  C3    D T9001       4.757   2.272  -4.847  1.00 82.47     0.044 A 
HETATM    4  C4    D T9001       5.414   3.068  -3.899  1.00 82.50     0.088 A 
HETATM    5  C5    D T9001       6.352   4.065  -4.362  1.00 84.12     0.055 A 
HETATM    6  C6    D T9001       6.582   4.212  -5.785  1.00 83.53     0.021 A 
HETATM    7  N7    D T9001       5.136   2.863  -2.584  1.00 81.78    -0.224 NA
HETATM    8  C8    D T9001       5.780   3.648  -1.683  1.00 83.59     0.200 A 
HETATM    9  N9    D T9001       6.680   4.616  -1.976  1.00 84.30    -0.205 NA
HETATM   10  C10   D T9001       6.976   4.836  -3.317  1.00 85.59     0.166 A 
HETATM   11  N13   D T9001       6.153   3.571  -8.119  1.00 82.67    -0.099 NA
ENDROOT
BRANCH  10  12
HETATM   12  N14   D T9001       7.930   5.857  -3.665  1.00 86.44    -0.227 NA
BRANCH  12  13
HETATM   13  C15   D T9001       7.682   7.256  -3.757  1.00 87.38     0.084 A 
HETATM   14  C16   D T9001       6.880   7.808  -4.809  1.00 88.13     0.033 A 
HETATM   15  C17   D T9001       6.643   9.198  -4.898  1.00 88.88     0.087 A 
HETATM   16  C18   D T9001       7.212  10.066  -3.929  1.00 88.55     0.151 A 
HETATM   17 CL     D T9001       5.670   9.807  -6.194  1.00 89.26    -0.080 Cl
HETATM   18  C19   D T9001       8.012   9.548  -2.870  1.00 87.62     0.032 A 
HETATM   19  F21   D T9001       7.001  11.391  -4.001  1.00 88.92    -0.203 F 
HETATM   20  C20   D T9001       8.247   8.148  -2.785  1.00 87.82     0.021 A 
ENDBRANCH  12  13
ENDBRANCH  10  12
BRANCH   2  21
HETATM   21  O11   D T9001       4.354   1.655  -7.242  1.00 85.44    -0.327 OA
HETATM   22  C12   D T9001       3.177   2.190  -7.859  1.00 84.41     0.181 C 
ENDBRANCH   2  21
TORSDOF 3
ENDMDL
