MODEL 1
REMARK VINA RESULT:    -7.441      0.000      0.000
REMARK INTER + INTRA:          -9.144
REMARK INTER:                  -8.746
REMARK INTRA:                  -0.398
REMARK UNBOUND:                -0.398
REMARK  3 active torsions:
REMARK  status: ('A' for Active; 'I' for Inactive)
REMARK    1  A    between atoms: C2_2  and  O11_20 
REMARK    2  A    between atoms: C10_10  and  N14_11 
REMARK    3  A    between atoms: N14_11  and  C15_12 
ROOT
HETATM    1  C1    D T9001       5.930   4.569  -2.879  1.00 83.47     0.092 A 
HETATM    2  C2    D T9001       6.654   3.790  -3.840  1.00 83.68     0.109 A 
HETATM    3  C3    D T9001       5.996   3.337  -5.033  1.00 82.47     0.044 A 
HETATM    4  C4    D T9001       4.653   3.628  -5.305  1.00 82.50     0.088 A 
HETATM    5  C5    D T9001       3.904   4.408  -4.347  1.00 84.12     0.055 A 
HETATM    6  C6    D T9001       4.563   4.869  -3.141  1.00 83.53     0.021 A 
HETATM    7  N7    D T9001       4.116   3.156  -6.462  1.00 81.78    -0.224 NA
HETATM    8  C8    D T9001       2.815   3.453  -6.708  1.00 83.59     0.200 A 
HETATM    9  N9    D T9001       1.999   4.172  -5.901  1.00 84.30    -0.205 NA
HETATM   10  C10   D T9001       2.534   4.658  -4.712  1.00 85.59     0.166 A 
HETATM   11  N13   D T9001       6.544   5.036  -1.692  1.00 82.67    -0.099 NA
ENDROOT
BRANCH  10  12
HETATM   12  N14   D T9001       1.694   5.426  -3.830  1.00 86.44    -0.227 NA
BRANCH  12  13
HETATM   13  C15   D T9001       1.043   6.655  -4.130  1.00 87.38     0.084 A 
HETATM   14  C16   D T9001      -0.038   7.146  -3.326  1.00 88.13     0.033 A 
HETATM   15  C17   D T9001      -0.685   8.364  -3.634  1.00 88.88     0.087 A 
HETATM   16  C18   D T9001      -0.259   9.114  -4.762  1.00 88.55     0.151 A 
HETATM   17 CL     D T9001      -1.988   8.905  -2.629  1.00 89.26    -0.080 Cl
HETATM   18  C19   D T9001       0.812   8.654  -5.579  1.00 87.62     0.032 A 
HETATM   19  F21   D T9001      -0.866  10.272  -5.071  1.00 88.92    -0.203 F 
HETATM   20  C20   D T9001       1.460   7.427  -5.266  1.00 87.82     0.021 A 
ENDBRANCH  12  13
ENDBRANCH  10  12
BRANCH   2  21
HETATM   21  O11   D T9001       7.985   3.536  -3.521  1.00 85.44    -0.327 OA
HETATM   22  C12   D T9001       8.879   3.188  -4.584  1.00 84.41     0.181 C 
ENDBRANCH   2  21
TORSDOF 3
ENDMDL
MODEL 2
REMARK VINA RESULT:    -7.109      4.822      7.791
REMARK INTER + INTRA:          -8.754
REMARK INTER:                  -8.285
REMARK INTRA:                  -0.469
REMARK UNBOUND:                -0.398
REMARK  3 active torsions:
REMARK  status: ('A' for Active; 'I' for Inactive)
REMARK    1  A    between atoms: C2_2  and  O11_20 
REMARK    2  A    between atoms: C10_10  and  N14_11 
REMARK    3  A    between atoms: N14_11  and  C15_12 
ROOT
HETATM    1  C1    D T9001       1.340   6.936  -5.045  1.00 83.47     0.092 A 
HETATM    2  C2    D T9001       0.543   7.186  -3.881  1.00 83.68     0.109 A 
HETATM    3  C3    D T9001       0.799   6.459  -2.671  1.00 82.47     0.044 A 
HETATM    4  C4    D T9001       1.811   5.496  -2.575  1.00 82.50     0.088 A 
HETATM    5  C5    D T9001       2.625   5.225  -3.739  1.00 84.12     0.055 A 
HETATM    6  C6    D T9001       2.371   5.958  -4.963  1.00 83.53     0.021 A 
HETATM    7  N7    D T9001       1.980   4.857  -1.386  1.00 81.78    -0.224 NA
HETATM    8  C8    D T9001       2.970   3.931  -1.314  1.00 83.59     0.200 A 
HETATM    9  N9    D T9001       3.802   3.581  -2.322  1.00 84.30    -0.205 NA
HETATM   10  C10   D T9001       3.640   4.223  -3.545  1.00 85.59     0.166 A 
HETATM   11  N13   D T9001       1.121   7.636  -6.256  1.00 82.67    -0.099 NA
ENDROOT
BRANCH  10  12
HETATM   12  N14   D T9001       4.508   3.874  -4.640  1.00 86.44    -0.227 NA
BRANCH  12  13
HETATM   13  C15   D T9001       5.897   3.574  -4.562  1.00 87.38     0.084 A 
HETATM   14  C16   D T9001       6.377   2.224  -4.626  1.00 88.13     0.033 A 
HETATM   15  C17   D T9001       7.757   1.933  -4.542  1.00 88.88     0.087 A 
HETATM   16  C18   D T9001       8.686   2.997  -4.386  1.00 88.55     0.151 A 
HETATM   17 CL     D T9001       8.278   0.284  -4.621  1.00 89.26    -0.080 Cl
HETATM   18  C19   D T9001       8.241   4.347  -4.321  1.00 87.62     0.032 A 
HETATM   19  F21   D T9001      10.002   2.737  -4.300  1.00 88.92    -0.203 F 
HETATM   20  C20   D T9001       6.851   4.636  -4.406  1.00 87.82     0.021 A 
ENDBRANCH  12  13
ENDBRANCH  10  12
BRANCH   2  21
HETATM   21  O11   D T9001      -0.445   8.157  -4.031  1.00 85.44    -0.327 OA
HETATM   22  C12   D T9001      -1.718   7.925  -3.418  1.00 84.41     0.181 C 
ENDBRANCH   2  21
TORSDOF 3
ENDMDL
MODEL 3
REMARK VINA RESULT:    -7.075      3.400      5.154
REMARK INTER + INTRA:          -8.714
REMARK INTER:                  -8.283
REMARK INTRA:                  -0.431
REMARK UNBOUND:                -0.398
REMARK  3 active torsions:
REMARK  status: ('A' for Active; 'I' for Inactive)
REMARK    1  A    between atoms: C2_2  and  O11_20 
REMARK    2  A    between atoms: C10_10  and  N14_11 
REMARK    3  A    between atoms: N14_11  and  C15_12 
ROOT
HETATM    1  C1    D T9001       1.583   5.623  -2.328  1.00 83.47     0.092 A 
HETATM    2  C2    D T9001       2.406   5.420  -3.483  1.00 83.68     0.109 A 
HETATM    3  C3    D T9001       2.139   6.154  -4.688  1.00 82.47     0.044 A 
HETATM    4  C4    D T9001       1.090   7.076  -4.786  1.00 82.50     0.088 A 
HETATM    5  C5    D T9001       0.245   7.294  -3.634  1.00 84.12     0.055 A 
HETATM    6  C6    D T9001       0.511   6.556  -2.415  1.00 83.53     0.021 A 
HETATM    7  N7    D T9001       0.914   7.725  -5.969  1.00 81.78    -0.224 NA
HETATM    8  C8    D T9001      -0.105   8.618  -6.041  1.00 83.59     0.200 A 
HETATM    9  N9    D T9001      -0.969   8.918  -5.043  1.00 84.30    -0.205 NA
HETATM   10  C10   D T9001      -0.803   8.260  -3.828  1.00 85.59     0.166 A 
HETATM   11  N13   D T9001       1.817   4.922  -1.120  1.00 82.67    -0.099 NA
ENDROOT
BRANCH  10  12
HETATM   12  N14   D T9001      -1.706   8.554  -2.745  1.00 86.44    -0.227 NA
BRANCH  12  13
HETATM   13  C15   D T9001      -1.710   9.724  -1.935  1.00 87.38     0.084 A 
HETATM   14  C16   D T9001      -1.425  11.017  -2.486  1.00 88.13     0.033 A 
HETATM   15  C17   D T9001      -1.424  12.175  -1.676  1.00 88.88     0.087 A 
HETATM   16  C18   D T9001      -1.708  12.055  -0.289  1.00 88.55     0.151 A 
HETATM   17 CL     D T9001      -1.068  13.709  -2.395  1.00 89.26    -0.080 Cl
HETATM   18  C19   D T9001      -1.996  10.787   0.288  1.00 87.62     0.032 A 
HETATM   19  F21   D T9001      -1.707  13.146   0.496  1.00 88.92    -0.203 F 
HETATM   20  C20   D T9001      -1.996   9.623  -0.532  1.00 87.82     0.021 A 
ENDBRANCH  12  13
ENDBRANCH  10  12
BRANCH   2  21
HETATM   21  O11   D T9001       3.437   4.496  -3.327  1.00 85.44    -0.327 OA
HETATM   22  C12   D T9001       4.110   4.032  -4.502  1.00 84.41     0.181 C 
ENDBRANCH   2  21
TORSDOF 3
ENDMDL
MODEL 4
REMARK VINA RESULT:    -6.777      2.474      3.327
REMARK INTER + INTRA:          -8.364
REMARK INTER:                  -7.807
REMARK INTRA:                  -0.557
REMARK UNBOUND:                -0.398
REMARK  3 active torsions:
REMARK  status: ('A' for Active; 'I' for Inactive)
REMARK    1  A    between atoms: C2_2  and  O11_20 
REMARK    2  A    between atoms: C10_10  and  N14_11 
REMARK    3  A    between atoms: N14_11  and  C15_12 
ROOT
HETATM    1  C1    D T9001       6.013   3.592  -3.416  1.00 83.47     0.092 A 
HETATM    2  C2    D T9001       5.833   2.525  -2.476  1.00 83.68     0.109 A 
HETATM    3  C3    D T9001       4.711   2.544  -1.581  1.00 82.47     0.044 A 
HETATM    4  C4    D T9001       3.766   3.577  -1.586  1.00 82.50     0.088 A 
HETATM    5  C5    D T9001       3.930   4.665  -2.524  1.00 84.12     0.055 A 
HETATM    6  C6    D T9001       5.061   4.651  -3.430  1.00 83.53     0.021 A 
HETATM    7  N7    D T9001       2.735   3.509  -0.702  1.00 81.78    -0.224 NA
HETATM    8  C8    D T9001       1.828   4.518  -0.726  1.00 83.59     0.200 A 
HETATM    9  N9    D T9001       1.860   5.593  -1.549  1.00 84.30    -0.205 NA
HETATM   10  C10   D T9001       2.910   5.678  -2.457  1.00 85.59     0.166 A 
HETATM   11  N13   D T9001       7.105   3.608  -4.317  1.00 82.67    -0.099 NA
ENDROOT
BRANCH  10  12
HETATM   12  N14   D T9001       2.976   6.809  -3.346  1.00 86.44    -0.227 NA
BRANCH  12  13
HETATM   13  C15   D T9001       2.280   6.965  -4.578  1.00 87.38     0.084 A 
HETATM   14  C16   D T9001       1.256   7.956  -4.739  1.00 88.13     0.033 A 
HETATM   15  C17   D T9001       0.564   8.101  -5.963  1.00 88.88     0.087 A 
HETATM   16  C18   D T9001       0.886   7.247  -7.051  1.00 88.55     0.151 A 
HETATM   17 CL     D T9001      -0.666   9.311  -6.098  1.00 89.26    -0.080 Cl
HETATM   18  C19   D T9001       1.898   6.254  -6.923  1.00 87.62     0.032 A 
HETATM   19  F21   D T9001       0.235   7.369  -8.221  1.00 88.92    -0.203 F 
HETATM   20  C20   D T9001       2.593   6.111  -5.689  1.00 87.82     0.021 A 
ENDBRANCH  12  13
ENDBRANCH  10  12
BRANCH   2  21
HETATM   21  O11   D T9001       6.799   1.523  -2.519  1.00 85.44    -0.327 OA
HETATM   22  C12   D T9001       6.428   0.251  -3.061  1.00 84.41     0.181 C 
ENDBRANCH   2  21
TORSDOF 3
ENDMDL
MODEL 5
REMARK VINA RESULT:    -6.751      5.554      9.029
REMARK INTER + INTRA:          -8.333
REMARK INTER:                  -7.919
REMARK INTRA:                  -0.414
REMARK UNBOUND:                -0.398
REMARK  3 active torsions:
REMARK  status: ('A' for Active; 'I' for Inactive)
REMARK    1  A    between atoms: C2_2  and  O11_20 
REMARK    2  A    between atoms: C10_10  and  N14_11 
REMARK    3  A    between atoms: N14_11  and  C15_12 
ROOT
HETATM    1  C1    D T9001       3.209   4.074  -5.638  1.00 83.47     0.092 A 
HETATM    2  C2    D T9001       2.866   5.089  -4.687  1.00 83.68     0.109 A 
HETATM    3  C3    D T9001       3.730   5.342  -3.569  1.00 82.47     0.044 A 
HETATM    4  C4    D T9001       4.916   4.626  -3.362  1.00 82.50     0.088 A 
HETATM    5  C5    D T9001       5.280   3.595  -4.307  1.00 84.12     0.055 A 
HETATM    6  C6    D T9001       4.411   3.337  -5.438  1.00 83.53     0.021 A 
HETATM    7  N7    D T9001       5.672   4.936  -2.274  1.00 81.78    -0.224 NA
HETATM    8  C8    D T9001       6.819   4.234  -2.095  1.00 83.59     0.200 A 
HETATM    9  N9    D T9001       7.278   3.247  -2.899  1.00 84.30    -0.205 NA
HETATM   10  C10   D T9001       6.514   2.916  -4.014  1.00 85.59     0.166 A 
HETATM   11  N13   D T9001       2.385   3.798  -6.756  1.00 82.67    -0.099 NA
ENDROOT
BRANCH  10  12
HETATM   12  N14   D T9001       6.972   1.869  -4.891  1.00 86.44    -0.227 NA
BRANCH  12  13
HETATM   13  C15   D T9001       8.230   1.206  -4.839  1.00 87.38     0.084 A 
HETATM   14  C16   D T9001       9.354   1.672  -5.599  1.00 88.13     0.033 A 
HETATM   15  C17   D T9001      10.599   1.005  -5.549  1.00 88.88     0.087 A 
HETATM   16  C18   D T9001      10.739  -0.149  -4.733  1.00 88.55     0.151 A 
HETATM   17 CL     D T9001      11.919   1.610  -6.492  1.00 89.26    -0.080 Cl
HETATM   18  C19   D T9001       9.644  -0.635  -3.965  1.00 87.62     0.032 A 
HETATM   19  F21   D T9001      11.915  -0.797  -4.677  1.00 88.92    -0.203 F 
HETATM   20  C20   D T9001       8.392   0.039  -4.019  1.00 87.82     0.021 A 
ENDBRANCH  12  13
ENDBRANCH  10  12
BRANCH   2  21
HETATM   21  O11   D T9001       1.679   5.772  -4.945  1.00 85.44    -0.327 OA
HETATM   22  C12   D T9001       1.655   7.187  -4.731  1.00 84.41     0.181 C 
ENDBRANCH   2  21
TORSDOF 3
ENDMDL
MODEL 6
REMARK VINA RESULT:    -6.533      5.479      8.904
REMARK INTER + INTRA:          -8.077
REMARK INTER:                  -7.671
REMARK INTRA:                  -0.406
REMARK UNBOUND:                -0.398
REMARK  3 active torsions:
REMARK  status: ('A' for Active; 'I' for Inactive)
REMARK    1  A    between atoms: C2_2  and  O11_20 
REMARK    2  A    between atoms: C10_10  and  N14_11 
REMARK    3  A    between atoms: N14_11  and  C15_12 
ROOT
HETATM    1  C1    D T9001       3.085   4.077  -5.662  1.00 83.47     0.092 A 
HETATM    2  C2    D T9001       2.719   5.115  -4.744  1.00 83.68     0.109 A 
HETATM    3  C3    D T9001       3.592   5.446  -3.655  1.00 82.47     0.044 A 
HETATM    4  C4    D T9001       4.810   4.787  -3.444  1.00 82.50     0.088 A 
HETATM    5  C5    D T9001       5.198   3.734  -4.355  1.00 84.12     0.055 A 
HETATM    6  C6    D T9001       4.320   3.396  -5.458  1.00 83.53     0.021 A 
HETATM    7  N7    D T9001       5.573   5.170  -2.384  1.00 81.78    -0.224 NA
HETATM    8  C8    D T9001       6.751   4.521  -2.201  1.00 83.59     0.200 A 
HETATM    9  N9    D T9001       7.234   3.522  -2.975  1.00 84.30    -0.205 NA
HETATM   10  C10   D T9001       6.464   3.117  -4.061  1.00 85.59     0.166 A 
HETATM   11  N13   D T9001       2.252   3.724  -6.751  1.00 82.67    -0.099 NA
ENDROOT
BRANCH  10  12
HETATM   12  N14   D T9001       6.948   2.055  -4.905  1.00 86.44    -0.227 NA
BRANCH  12  13
HETATM   13  C15   D T9001       8.252   1.487  -4.894  1.00 87.38     0.084 A 
HETATM   14  C16   D T9001       8.505   0.202  -4.308  1.00 88.13     0.033 A 
HETATM   15  C17   D T9001       9.804  -0.353  -4.294  1.00 88.88     0.087 A 
HETATM   16  C18   D T9001      10.880   0.375  -4.867  1.00 88.55     0.151 A 
HETATM   17 CL     D T9001      10.050  -1.906  -3.569  1.00 89.26    -0.080 Cl
HETATM   18  C19   D T9001      10.662   1.652  -5.458  1.00 87.62     0.032 A 
HETATM   19  F21   D T9001      12.123  -0.137  -4.859  1.00 88.92    -0.203 F 
HETATM   20  C20   D T9001       9.352   2.208  -5.470  1.00 87.82     0.021 A 
ENDBRANCH  12  13
ENDBRANCH  10  12
BRANCH   2  21
HETATM   21  O11   D T9001       1.501   5.739  -5.005  1.00 85.44    -0.327 OA
HETATM   22  C12   D T9001       1.524   7.071  -5.528  1.00 84.41     0.181 C 
ENDBRANCH   2  21
TORSDOF 3
ENDMDL
MODEL 7
REMARK VINA RESULT:    -6.523      6.200      9.490
REMARK INTER + INTRA:          -8.066
REMARK INTER:                  -7.465
REMARK INTRA:                  -0.600
REMARK UNBOUND:                -0.398
REMARK  3 active torsions:
REMARK  status: ('A' for Active; 'I' for Inactive)
REMARK    1  A    between atoms: C2_2  and  O11_20 
REMARK    2  A    between atoms: C10_10  and  N14_11 
REMARK    3  A    between atoms: N14_11  and  C15_12 
ROOT
HETATM    1  C1    D T9001      -0.981  13.978  -2.695  1.00 83.47     0.092 A 
HETATM    2  C2    D T9001      -0.931  14.545  -1.380  1.00 83.68     0.109 A 
HETATM    3  C3    D T9001      -1.186  13.717  -0.236  1.00 82.47     0.044 A 
HETATM    4  C4    D T9001      -1.489  12.354  -0.350  1.00 82.50     0.088 A 
HETATM    5  C5    D T9001      -1.549  11.763  -1.667  1.00 84.12     0.055 A 
HETATM    6  C6    D T9001      -1.291  12.594  -2.826  1.00 83.53     0.021 A 
HETATM    7  N7    D T9001      -1.716  11.649   0.791  1.00 81.78    -0.224 NA
HETATM    8  C8    D T9001      -2.003  10.329   0.658  1.00 83.59     0.200 A 
HETATM    9  N9    D T9001      -2.090   9.650  -0.509  1.00 84.30    -0.205 NA
HETATM   10  C10   D T9001      -1.864  10.359  -1.685  1.00 85.59     0.166 A 
HETATM   11  N13   D T9001      -0.732  14.761  -3.848  1.00 82.67    -0.099 NA
ENDROOT
BRANCH  10  12
HETATM   12  N14   D T9001      -1.950   9.668  -2.946  1.00 86.44    -0.227 NA
BRANCH  12  13
HETATM   13  C15   D T9001      -0.906   8.955  -3.599  1.00 87.38     0.084 A 
HETATM   14  C16   D T9001      -0.325   7.779  -3.019  1.00 88.13     0.033 A 
HETATM   15  C17   D T9001       0.716   7.080  -3.669  1.00 88.88     0.087 A 
HETATM   16  C18   D T9001       1.200   7.552  -4.918  1.00 88.55     0.151 A 
HETATM   17 CL     D T9001       1.382   5.669  -2.918  1.00 89.26    -0.080 Cl
HETATM   18  C19   D T9001       0.643   8.715  -5.521  1.00 87.62     0.032 A 
HETATM   19  F21   D T9001       2.192   6.901  -5.548  1.00 88.92    -0.203 F 
HETATM   20  C20   D T9001      -0.405   9.417  -4.863  1.00 87.82     0.021 A 
ENDBRANCH  12  13
ENDBRANCH  10  12
BRANCH   2  21
HETATM   21  O11   D T9001      -0.621  15.902  -1.326  1.00 85.44    -0.327 OA
HETATM   22  C12   D T9001       0.615  16.287  -0.714  1.00 84.41     0.181 C 
ENDBRANCH   2  21
TORSDOF 3
ENDMDL
MODEL 8
REMARK VINA RESULT:    -6.504      3.424      5.157
REMARK INTER + INTRA:          -8.043
REMARK INTER:                  -7.617
REMARK INTRA:                  -0.427
REMARK UNBOUND:                -0.398
REMARK  3 active torsions:
REMARK  status: ('A' for Active; 'I' for Inactive)
REMARK    1  A    between atoms: C2_2  and  O11_20 
REMARK    2  A    between atoms: C10_10  and  N14_11 
REMARK    3  A    between atoms: N14_11  and  C15_12 
ROOT
HETATM    1  C1    D T9001       7.797  -0.644  -3.344  1.00 83.47     0.092 A 
HETATM    2  C2    D T9001       9.217  -0.457  -3.293  1.00 83.68     0.109 A 
HETATM    3  C3    D T9001       9.778   0.831  -3.583  1.00 82.47     0.044 A 
HETATM    4  C4    D T9001       8.986   1.935  -3.920  1.00 82.50     0.088 A 
HETATM    5  C5    D T9001       7.551   1.769  -3.981  1.00 84.12     0.055 A 
HETATM    6  C6    D T9001       6.979   0.470  -3.689  1.00 83.53     0.021 A 
HETATM    7  N7    D T9001       9.607   3.118  -4.178  1.00 81.78    -0.224 NA
HETATM    8  C8    D T9001       8.820   4.175  -4.498  1.00 83.59     0.200 A 
HETATM    9  N9    D T9001       7.470   4.160  -4.591  1.00 84.30    -0.205 NA
HETATM   10  C10   D T9001       6.820   2.957  -4.333  1.00 85.59     0.166 A 
HETATM   11  N13   D T9001       7.205  -1.898  -3.062  1.00 82.67    -0.099 NA
ENDROOT
BRANCH  10  12
HETATM   12  N14   D T9001       5.384   2.904  -4.424  1.00 86.44    -0.227 NA
BRANCH  12  13
HETATM   13  C15   D T9001       4.530   3.893  -4.989  1.00 87.38     0.084 A 
HETATM   14  C16   D T9001       3.791   4.804  -4.163  1.00 88.13     0.033 A 
HETATM   15  C17   D T9001       2.940   5.780  -4.730  1.00 88.88     0.087 A 
HETATM   16  C18   D T9001       2.812   5.857  -6.142  1.00 88.55     0.151 A 
HETATM   17 CL     D T9001       2.069   6.849  -3.684  1.00 89.26    -0.080 Cl
HETATM   18  C19   D T9001       3.533   4.969  -6.989  1.00 87.62     0.032 A 
HETATM   19  F21   D T9001       2.004   6.777  -6.697  1.00 88.92    -0.203 F 
HETATM   20  C20   D T9001       4.389   3.988  -6.414  1.00 87.82     0.021 A 
ENDBRANCH  12  13
ENDBRANCH  10  12
BRANCH   2  21
HETATM   21  O11   D T9001       9.955  -1.587  -2.948  1.00 85.44    -0.327 OA
HETATM   22  C12   D T9001      10.957  -2.044  -3.863  1.00 84.41     0.181 C 
ENDBRANCH   2  21
TORSDOF 3
ENDMDL
MODEL 9
REMARK VINA RESULT:    -6.449      2.806      3.365
REMARK INTER + INTRA:          -7.978
REMARK INTER:                  -7.501
REMARK INTRA:                  -0.478
REMARK UNBOUND:                -0.398
REMARK  3 active torsions:
REMARK  status: ('A' for Active; 'I' for Inactive)
REMARK    1  A    between atoms: C2_2  and  O11_20 
REMARK    2  A    between atoms: C10_10  and  N14_11 
REMARK    3  A    between atoms: N14_11  and  C15_12 
ROOT
HETATM    1  C1    D T9001       3.541   4.034   0.029  1.00 83.47     0.092 A 
HETATM    2  C2    D T9001       3.946   2.673  -0.170  1.00 83.68     0.109 A 
HETATM    3  C3    D T9001       4.101   2.162  -1.501  1.00 82.47     0.044 A 
HETATM    4  C4    D T9001       3.871   2.948  -2.638  1.00 82.50     0.088 A 
HETATM    5  C5    D T9001       3.459   4.322  -2.461  1.00 84.12     0.055 A 
HETATM    6  C6    D T9001       3.301   4.844  -1.118  1.00 83.53     0.021 A 
HETATM    7  N7    D T9001       4.044   2.376  -3.860  1.00 81.78    -0.224 NA
HETATM    8  C8    D T9001       3.820   3.157  -4.947  1.00 83.59     0.200 A 
HETATM    9  N9    D T9001       3.432   4.453  -4.926  1.00 84.30    -0.205 NA
HETATM   10  C10   D T9001       3.248   5.051  -3.683  1.00 85.59     0.166 A 
HETATM   11  N13   D T9001       3.381   4.577   1.327  1.00 82.67    -0.099 NA
ENDROOT
BRANCH  10  12
HETATM   12  N14   D T9001       2.834   6.429  -3.624  1.00 86.44    -0.227 NA
BRANCH  12  13
HETATM   13  C15   D T9001       1.496   6.916  -3.616  1.00 87.38     0.084 A 
HETATM   14  C16   D T9001       0.972   7.684  -4.708  1.00 88.13     0.033 A 
HETATM   15  C17   D T9001      -0.354   8.170  -4.690  1.00 88.88     0.087 A 
HETATM   16  C18   D T9001      -1.183   7.897  -3.569  1.00 88.55     0.151 A 
HETATM   17 CL     D T9001      -0.931   9.096  -6.035  1.00 89.26    -0.080 Cl
HETATM   18  C19   D T9001      -0.693   7.136  -2.471  1.00 87.62     0.032 A 
HETATM   19  F21   D T9001      -2.446   8.355  -3.535  1.00 88.92    -0.203 F 
HETATM   20  C20   D T9001       0.644   6.648  -2.492  1.00 87.82     0.021 A 
ENDBRANCH  12  13
ENDBRANCH  10  12
BRANCH   2  21
HETATM   21  O11   D T9001       4.166   1.941   0.994  1.00 85.44    -0.327 OA
HETATM   22  C12   D T9001       5.508   1.547   1.300  1.00 84.41     0.181 C 
ENDBRANCH   2  21
TORSDOF 3
ENDMDL
