MODEL 1
REMARK VINA RESULT:    -8.179      0.000      0.000
REMARK INTER + INTRA:          -9.660
REMARK INTER:                  -9.613
REMARK INTRA:                  -0.047
REMARK UNBOUND:                -0.047
REMARK  3 active torsions:
REMARK  status: ('A' for Active; 'I' for Inactive)
REMARK    1  A    between atoms: C2_2  and  O11_20 
REMARK    2  A    between atoms: C10_10  and  N14_11 
REMARK    3  A    between atoms: N14_11  and  C15_12 
ROOT
HETATM    1  C1    D T9001      -5.118   1.446  12.017  1.00 83.47     0.092 A 
HETATM    2  C2    D T9001      -5.584   2.799  12.118  1.00 83.68     0.109 A 
HETATM    3  C3    D T9001      -6.742   3.212  11.378  1.00 82.47     0.044 A 
HETATM    4  C4    D T9001      -7.450   2.338  10.544  1.00 82.50     0.088 A 
HETATM    5  C5    D T9001      -6.995   0.970  10.425  1.00 84.12     0.055 A 
HETATM    6  C6    D T9001      -5.827   0.548  11.171  1.00 83.53     0.021 A 
HETATM    7  N7    D T9001      -8.536   2.820   9.882  1.00 81.78    -0.224 NA
HETATM    8  C8    D T9001      -9.211   1.954   9.083  1.00 83.59     0.200 A 
HETATM    9  N9    D T9001      -8.896   0.653   8.880  1.00 84.30    -0.205 NA
HETATM   10  C10   D T9001      -7.786   0.146   9.548  1.00 85.59     0.166 A 
HETATM   11  N13   D T9001      -3.983   1.000  12.733  1.00 82.67    -0.099 NA
ENDROOT
BRANCH  10  12
HETATM   12  N14   D T9001      -7.422  -1.234   9.354  1.00 86.44    -0.227 NA
BRANCH  12  13
HETATM   13  C15   D T9001      -8.275  -2.364   9.489  1.00 87.38     0.084 A 
HETATM   14  C16   D T9001      -7.755  -3.663   9.802  1.00 88.13     0.033 A 
HETATM   15  C17   D T9001      -8.606  -4.784   9.927  1.00 88.88     0.087 A 
HETATM   16  C18   D T9001     -10.005  -4.621   9.737  1.00 88.55     0.151 A 
HETATM   17 CL     D T9001      -7.920  -6.328  10.301  1.00 89.26    -0.080 Cl
HETATM   18  C19   D T9001     -10.553  -3.344   9.428  1.00 87.62     0.032 A 
HETATM   19  F21   D T9001     -10.829  -5.676   9.848  1.00 88.92    -0.203 F 
HETATM   20  C20   D T9001      -9.691  -2.219   9.302  1.00 87.82     0.021 A 
ENDBRANCH  12  13
ENDBRANCH  10  12
BRANCH   2  21
HETATM   21  O11   D T9001      -4.845   3.622  12.965  1.00 85.44    -0.327 OA
HETATM   22  C12   D T9001      -5.443   4.846  13.406  1.00 84.41     0.181 C 
ENDBRANCH   2  21
TORSDOF 3
ENDMDL
MODEL 2
REMARK VINA RESULT:    -8.054      4.118      6.917
REMARK INTER + INTRA:          -9.513
REMARK INTER:                  -8.940
REMARK INTRA:                  -0.573
REMARK UNBOUND:                -0.047
REMARK  3 active torsions:
REMARK  status: ('A' for Active; 'I' for Inactive)
REMARK    1  A    between atoms: C2_2  and  O11_20 
REMARK    2  A    between atoms: C10_10  and  N14_11 
REMARK    3  A    between atoms: N14_11  and  C15_12 
ROOT
HETATM    1  C1    D T9001      -6.217  -4.114   9.908  1.00 83.47     0.092 A 
HETATM    2  C2    D T9001      -7.300  -5.043  10.054  1.00 83.68     0.109 A 
HETATM    3  C3    D T9001      -8.654  -4.587   9.921  1.00 82.47     0.044 A 
HETATM    4  C4    D T9001      -8.972  -3.250   9.652  1.00 82.50     0.088 A 
HETATM    5  C5    D T9001      -7.896  -2.296   9.504  1.00 84.12     0.055 A 
HETATM    6  C6    D T9001      -6.527  -2.751   9.637  1.00 83.53     0.021 A 
HETATM    7  N7    D T9001     -10.285  -2.911   9.542  1.00 81.78    -0.224 NA
HETATM    8  C8    D T9001     -10.570  -1.610   9.275  1.00 83.59     0.200 A 
HETATM    9  N9    D T9001      -9.664  -0.617   9.114  1.00 84.30    -0.205 NA
HETATM   10  C10   D T9001      -8.318  -0.948   9.226  1.00 85.59     0.166 A 
HETATM   11  N13   D T9001      -4.869  -4.525  10.029  1.00 82.67    -0.099 NA
ENDROOT
BRANCH  10  12
HETATM   12  N14   D T9001      -7.328   0.085   9.061  1.00 86.44    -0.227 NA
BRANCH  12  13
HETATM   13  C15   D T9001      -6.846   0.968  10.067  1.00 87.38     0.084 A 
HETATM   14  C16   D T9001      -5.695   0.647  10.858  1.00 88.13     0.033 A 
HETATM   15  C17   D T9001      -5.225   1.526  11.860  1.00 88.88     0.087 A 
HETATM   16  C18   D T9001      -5.909   2.750  12.091  1.00 88.55     0.151 A 
HETATM   17 CL     D T9001      -3.832   1.082  12.788  1.00 89.26    -0.080 Cl
HETATM   18  C19   D T9001      -7.054   3.099  11.320  1.00 87.62     0.032 A 
HETATM   19  F21   D T9001      -5.478   3.596  13.042  1.00 88.92    -0.203 F 
HETATM   20  C20   D T9001      -7.523   2.211  10.312  1.00 87.82     0.021 A 
ENDBRANCH  12  13
ENDBRANCH  10  12
BRANCH   2  21
HETATM   21  O11   D T9001      -6.926  -6.358  10.317  1.00 85.44    -0.327 OA
HETATM   22  C12   D T9001      -7.940  -7.276  10.742  1.00 84.41     0.181 C 
ENDBRANCH   2  21
TORSDOF 3
ENDMDL
MODEL 3
REMARK VINA RESULT:    -7.910      2.698      3.724
REMARK INTER + INTRA:          -9.344
REMARK INTER:                  -8.768
REMARK INTRA:                  -0.576
REMARK UNBOUND:                -0.047
REMARK  3 active torsions:
REMARK  status: ('A' for Active; 'I' for Inactive)
REMARK    1  A    between atoms: C2_2  and  O11_20 
REMARK    2  A    between atoms: C10_10  and  N14_11 
REMARK    3  A    between atoms: N14_11  and  C15_12 
ROOT
HETATM    1  C1    D T9001      -4.825   2.076  10.654  1.00 83.47     0.092 A 
HETATM    2  C2    D T9001      -3.555   2.025   9.990  1.00 83.68     0.109 A 
HETATM    3  C3    D T9001      -3.049   0.769   9.515  1.00 82.47     0.044 A 
HETATM    4  C4    D T9001      -3.751  -0.431   9.674  1.00 82.50     0.088 A 
HETATM    5  C5    D T9001      -5.033  -0.403  10.343  1.00 84.12     0.055 A 
HETATM    6  C6    D T9001      -5.549   0.862  10.825  1.00 83.53     0.021 A 
HETATM    7  N7    D T9001      -3.192  -1.573   9.189  1.00 81.78    -0.224 NA
HETATM    8  C8    D T9001      -3.893  -2.725   9.350  1.00 83.59     0.200 A 
HETATM    9  N9    D T9001      -5.098  -2.841   9.955  1.00 84.30    -0.205 NA
HETATM   10  C10   D T9001      -5.681  -1.683  10.458  1.00 85.59     0.166 A 
HETATM   11  N13   D T9001      -5.360   3.295  11.134  1.00 82.67    -0.099 NA
ENDROOT
BRANCH  10  12
HETATM   12  N14   D T9001      -6.963  -1.771  11.109  1.00 86.44    -0.227 NA
BRANCH  12  13
HETATM   13  C15   D T9001      -8.234  -1.861  10.475  1.00 87.38     0.084 A 
HETATM   14  C16   D T9001      -8.901  -3.119  10.307  1.00 88.13     0.033 A 
HETATM   15  C17   D T9001     -10.159  -3.202   9.670  1.00 88.88     0.087 A 
HETATM   16  C18   D T9001     -10.775  -2.017   9.184  1.00 88.55     0.151 A 
HETATM   17 CL     D T9001     -10.914  -4.750   9.490  1.00 89.26    -0.080 Cl
HETATM   18  C19   D T9001     -10.140  -0.752   9.338  1.00 87.62     0.032 A 
HETATM   19  F21   D T9001     -11.970  -2.079   8.573  1.00 88.92    -0.203 F 
HETATM   20  C20   D T9001      -8.872  -0.674   9.980  1.00 87.82     0.021 A 
ENDBRANCH  12  13
ENDBRANCH  10  12
BRANCH   2  21
HETATM   21  O11   D T9001      -2.902   3.248   9.856  1.00 85.44    -0.327 OA
HETATM   22  C12   D T9001      -1.574   3.365  10.376  1.00 84.41     0.181 C 
ENDBRANCH   2  21
TORSDOF 3
ENDMDL
MODEL 4
REMARK VINA RESULT:    -7.747      3.444      4.261
REMARK INTER + INTRA:          -9.153
REMARK INTER:                  -8.557
REMARK INTRA:                  -0.596
REMARK UNBOUND:                -0.047
REMARK  3 active torsions:
REMARK  status: ('A' for Active; 'I' for Inactive)
REMARK    1  A    between atoms: C2_2  and  O11_20 
REMARK    2  A    between atoms: C10_10  and  N14_11 
REMARK    3  A    between atoms: N14_11  and  C15_12 
ROOT
HETATM    1  C1    D T9001      -3.311  -2.688  10.456  1.00 83.47     0.092 A 
HETATM    2  C2    D T9001      -2.450  -1.743   9.807  1.00 83.68     0.109 A 
HETATM    3  C3    D T9001      -2.961  -0.459   9.422  1.00 82.47     0.044 A 
HETATM    4  C4    D T9001      -4.289  -0.080   9.653  1.00 82.50     0.088 A 
HETATM    5  C5    D T9001      -5.176  -1.019  10.303  1.00 84.12     0.055 A 
HETATM    6  C6    D T9001      -4.665  -2.317  10.695  1.00 83.53     0.021 A 
HETATM    7  N7    D T9001      -4.684   1.159   9.253  1.00 81.78    -0.224 NA
HETATM    8  C8    D T9001      -5.974   1.507   9.492  1.00 83.59     0.200 A 
HETATM    9  N9    D T9001      -6.907   0.728  10.088  1.00 84.30    -0.205 NA
HETATM   10  C10   D T9001      -6.520  -0.542  10.500  1.00 85.59     0.166 A 
HETATM   11  N13   D T9001      -2.844  -3.963  10.854  1.00 82.67    -0.099 NA
ENDROOT
BRANCH  10  12
HETATM   12  N14   D T9001      -7.488  -1.397  11.138  1.00 86.44    -0.227 NA
BRANCH  12  13
HETATM   13  C15   D T9001      -8.419  -2.257  10.491  1.00 87.38     0.084 A 
HETATM   14  C16   D T9001      -9.637  -1.754   9.926  1.00 88.13     0.033 A 
HETATM   15  C17   D T9001     -10.560  -2.615   9.291  1.00 88.88     0.087 A 
HETATM   16  C18   D T9001     -10.278  -4.005   9.213  1.00 88.55     0.151 A 
HETATM   17 CL     D T9001     -12.017  -1.951   8.632  1.00 89.26    -0.080 Cl
HETATM   18  C19   D T9001      -9.076  -4.535   9.762  1.00 87.62     0.032 A 
HETATM   19  F21   D T9001     -11.147  -4.838   8.616  1.00 88.92    -0.203 F 
HETATM   20  C20   D T9001      -8.149  -3.664  10.401  1.00 87.82     0.021 A 
ENDBRANCH  12  13
ENDBRANCH  10  12
BRANCH   2  21
HETATM   21  O11   D T9001      -1.139  -2.170   9.606  1.00 85.44    -0.327 OA
HETATM   22  C12   D T9001      -0.104  -1.559  10.383  1.00 84.41     0.181 C 
ENDBRANCH   2  21
TORSDOF 3
ENDMDL
MODEL 5
REMARK VINA RESULT:    -7.721      4.534      7.511
REMARK INTER + INTRA:          -9.122
REMARK INTER:                  -8.611
REMARK INTRA:                  -0.512
REMARK UNBOUND:                -0.047
REMARK  3 active torsions:
REMARK  status: ('A' for Active; 'I' for Inactive)
REMARK    1  A    between atoms: C2_2  and  O11_20 
REMARK    2  A    between atoms: C10_10  and  N14_11 
REMARK    3  A    between atoms: N14_11  and  C15_12 
ROOT
HETATM    1  C1    D T9001      -9.313  -1.634   9.246  1.00 83.47     0.092 A 
HETATM    2  C2    D T9001      -9.244  -3.020   9.608  1.00 83.68     0.109 A 
HETATM    3  C3    D T9001      -7.969  -3.633   9.847  1.00 82.47     0.044 A 
HETATM    4  C4    D T9001      -6.765  -2.925   9.739  1.00 82.50     0.088 A 
HETATM    5  C5    D T9001      -6.811  -1.528   9.372  1.00 84.12     0.055 A 
HETATM    6  C6    D T9001      -8.096  -0.904   9.130  1.00 83.53     0.021 A 
HETATM    7  N7    D T9001      -5.604  -3.591   9.985  1.00 81.78    -0.224 NA
HETATM    8  C8    D T9001      -4.449  -2.885   9.880  1.00 83.59     0.200 A 
HETATM    9  N9    D T9001      -4.348  -1.577   9.546  1.00 84.30    -0.205 NA
HETATM   10  C10   D T9001      -5.526  -0.884   9.288  1.00 85.59     0.166 A 
HETATM   11  N13   D T9001     -10.550  -0.993   9.006  1.00 82.67    -0.099 NA
ENDROOT
BRANCH  10  12
HETATM   12  N14   D T9001      -5.454   0.509   8.929  1.00 86.44    -0.227 NA
BRANCH  12  13
HETATM   13  C15   D T9001      -5.475   1.619   9.819  1.00 87.38     0.084 A 
HETATM   14  C16   D T9001      -4.265   2.243  10.267  1.00 88.13     0.033 A 
HETATM   15  C17   D T9001      -4.292   3.340  11.158  1.00 88.88     0.087 A 
HETATM   16  C18   D T9001      -5.542   3.833  11.619  1.00 88.55     0.151 A 
HETATM   17 CL     D T9001      -2.798   4.050  11.669  1.00 89.26    -0.080 Cl
HETATM   18  C19   D T9001      -6.762   3.237  11.190  1.00 87.62     0.032 A 
HETATM   19  F21   D T9001      -5.587   4.873  12.468  1.00 88.92    -0.203 F 
HETATM   20  C20   D T9001      -6.729   2.131  10.295  1.00 87.82     0.021 A 
ENDBRANCH  12  13
ENDBRANCH  10  12
BRANCH   2  21
HETATM   21  O11   D T9001     -10.471  -3.672   9.705  1.00 85.44    -0.327 OA
HETATM   22  C12   D T9001     -10.490  -5.097   9.567  1.00 84.41     0.181 C 
ENDBRANCH   2  21
TORSDOF 3
ENDMDL
MODEL 6
REMARK VINA RESULT:    -7.692      1.847      3.444
REMARK INTER + INTRA:          -9.088
REMARK INTER:                  -8.548
REMARK INTRA:                  -0.540
REMARK UNBOUND:                -0.047
REMARK  3 active torsions:
REMARK  status: ('A' for Active; 'I' for Inactive)
REMARK    1  A    between atoms: C2_2  and  O11_20 
REMARK    2  A    between atoms: C10_10  and  N14_11 
REMARK    3  A    between atoms: N14_11  and  C15_12 
ROOT
HETATM    1  C1    D T9001      -6.765   2.131  10.833  1.00 83.47     0.092 A 
HETATM    2  C2    D T9001      -5.900   2.629  11.863  1.00 83.68     0.109 A 
HETATM    3  C3    D T9001      -4.787   1.838  12.303  1.00 82.47     0.044 A 
HETATM    4  C4    D T9001      -4.502   0.578  11.762  1.00 82.50     0.088 A 
HETATM    5  C5    D T9001      -5.362   0.056  10.725  1.00 84.12     0.055 A 
HETATM    6  C6    D T9001      -6.488   0.850  10.277  1.00 83.53     0.021 A 
HETATM    7  N7    D T9001      -3.423  -0.098  12.243  1.00 81.78    -0.224 NA
HETATM    8  C8    D T9001      -3.162  -1.316  11.701  1.00 83.59     0.200 A 
HETATM    9  N9    D T9001      -3.883  -1.921  10.728  1.00 84.30    -0.205 NA
HETATM   10  C10   D T9001      -4.990  -1.243  10.230  1.00 85.59     0.166 A 
HETATM   11  N13   D T9001      -7.871   2.881  10.370  1.00 82.67    -0.099 NA
ENDROOT
BRANCH  10  12
HETATM   12  N14   D T9001      -5.780  -1.860   9.195  1.00 86.44    -0.227 NA
BRANCH  12  13
HETATM   13  C15   D T9001      -6.959  -2.635   9.374  1.00 87.38     0.084 A 
HETATM   14  C16   D T9001      -8.264  -2.060   9.226  1.00 88.13     0.033 A 
HETATM   15  C17   D T9001      -9.432  -2.834   9.412  1.00 88.88     0.087 A 
HETATM   16  C18   D T9001      -9.311  -4.208   9.754  1.00 88.55     0.151 A 
HETATM   17 CL     D T9001     -10.981  -2.084   9.227  1.00 89.26    -0.080 Cl
HETATM   18  C19   D T9001      -8.029  -4.809   9.905  1.00 87.62     0.032 A 
HETATM   19  F21   D T9001     -10.410  -4.957   9.939  1.00 88.92    -0.203 F 
HETATM   20  C20   D T9001      -6.856  -4.025   9.717  1.00 87.82     0.021 A 
ENDBRANCH  12  13
ENDBRANCH  10  12
BRANCH   2  21
HETATM   21  O11   D T9001      -6.228   3.887  12.361  1.00 85.44    -0.327 OA
HETATM   22  C12   D T9001      -5.408   4.997  11.982  1.00 84.41     0.181 C 
ENDBRANCH   2  21
TORSDOF 3
ENDMDL
MODEL 7
REMARK VINA RESULT:    -7.480      3.338      4.372
REMARK INTER + INTRA:          -8.838
REMARK INTER:                  -8.248
REMARK INTRA:                  -0.590
REMARK UNBOUND:                -0.047
REMARK  3 active torsions:
REMARK  status: ('A' for Active; 'I' for Inactive)
REMARK    1  A    between atoms: C2_2  and  O11_20 
REMARK    2  A    between atoms: C10_10  and  N14_11 
REMARK    3  A    between atoms: N14_11  and  C15_12 
ROOT
HETATM    1  C1    D T9001      -2.431  -2.528   9.400  1.00 83.47     0.092 A 
HETATM    2  C2    D T9001      -1.647  -1.898  10.422  1.00 83.68     0.109 A 
HETATM    3  C3    D T9001      -2.252  -0.931  11.292  1.00 82.47     0.044 A 
HETATM    4  C4    D T9001      -3.600  -0.565  11.185  1.00 82.50     0.088 A 
HETATM    5  C5    D T9001      -4.408  -1.186  10.160  1.00 84.12     0.055 A 
HETATM    6  C6    D T9001      -3.802  -2.163   9.279  1.00 83.53     0.021 A 
HETATM    7  N7    D T9001      -4.086   0.360  12.056  1.00 81.78    -0.224 NA
HETATM    8  C8    D T9001      -5.396   0.696  11.937  1.00 83.59     0.200 A 
HETATM    9  N9    D T9001      -6.263   0.195  11.026  1.00 84.30    -0.205 NA
HETATM   10  C10   D T9001      -5.780  -0.750  10.128  1.00 85.59     0.166 A 
HETATM   11  N13   D T9001      -1.872  -3.488   8.525  1.00 82.67    -0.099 NA
ENDROOT
BRANCH  10  12
HETATM   12  N14   D T9001      -6.675  -1.302   9.144  1.00 86.44    -0.227 NA
BRANCH  12  13
HETATM   13  C15   D T9001      -7.686  -2.279   9.368  1.00 87.38     0.084 A 
HETATM   14  C16   D T9001      -7.358  -3.631   9.713  1.00 88.13     0.033 A 
HETATM   15  C17   D T9001      -8.366  -4.598   9.927  1.00 88.88     0.087 A 
HETATM   16  C18   D T9001      -9.730  -4.225   9.795  1.00 88.55     0.151 A 
HETATM   17 CL     D T9001      -7.909  -6.217  10.337  1.00 89.26    -0.080 Cl
HETATM   18  C19   D T9001     -10.088  -2.889   9.456  1.00 87.62     0.032 A 
HETATM   19  F21   D T9001     -10.701  -5.132   9.991  1.00 88.92    -0.203 F 
HETATM   20  C20   D T9001      -9.070  -1.919   9.241  1.00 87.82     0.021 A 
ENDBRANCH  12  13
ENDBRANCH  10  12
BRANCH   2  21
HETATM   21  O11   D T9001      -0.315  -2.302  10.486  1.00 85.44    -0.327 OA
HETATM   22  C12   D T9001       0.699  -1.292  10.447  1.00 84.41     0.181 C 
ENDBRANCH   2  21
TORSDOF 3
ENDMDL
MODEL 8
REMARK VINA RESULT:    -7.331      2.651      3.141
REMARK INTER + INTRA:          -8.663
REMARK INTER:                  -8.194
REMARK INTRA:                  -0.469
REMARK UNBOUND:                -0.047
REMARK  3 active torsions:
REMARK  status: ('A' for Active; 'I' for Inactive)
REMARK    1  A    between atoms: C2_2  and  O11_20 
REMARK    2  A    between atoms: C10_10  and  N14_11 
REMARK    3  A    between atoms: N14_11  and  C15_12 
ROOT
HETATM    1  C1    D T9001      -2.662   0.687  10.018  1.00 83.47     0.092 A 
HETATM    2  C2    D T9001      -2.477   1.876  10.798  1.00 83.68     0.109 A 
HETATM    3  C3    D T9001      -3.613   2.670  11.168  1.00 82.47     0.044 A 
HETATM    4  C4    D T9001      -4.919   2.331  10.792  1.00 82.50     0.088 A 
HETATM    5  C5    D T9001      -5.128   1.138  10.003  1.00 84.12     0.055 A 
HETATM    6  C6    D T9001      -3.984   0.332   9.627  1.00 83.53     0.021 A 
HETATM    7  N7    D T9001      -5.934   3.146  11.190  1.00 81.78    -0.224 NA
HETATM    8  C8    D T9001      -7.193   2.795  10.819  1.00 83.59     0.200 A 
HETATM    9  N9    D T9001      -7.529   1.710  10.083  1.00 84.30    -0.205 NA
HETATM   10  C10   D T9001      -6.502   0.870   9.667  1.00 85.59     0.166 A 
HETATM   11  N13   D T9001      -1.567  -0.124   9.636  1.00 82.67    -0.099 NA
ENDROOT
BRANCH  10  12
HETATM   12  N14   D T9001      -6.824  -0.293   8.881  1.00 86.44    -0.227 NA
BRANCH  12  13
HETATM   13  C15   D T9001      -7.777  -1.299   9.203  1.00 87.38     0.084 A 
HETATM   14  C16   D T9001      -9.153  -1.178   8.823  1.00 88.13     0.033 A 
HETATM   15  C17   D T9001     -10.096  -2.178   9.152  1.00 88.88     0.087 A 
HETATM   16  C18   D T9001      -9.673  -3.324   9.877  1.00 88.55     0.151 A 
HETATM   17 CL     D T9001     -11.747  -1.973   8.670  1.00 89.26    -0.080 Cl
HETATM   18  C19   D T9001      -8.312  -3.475  10.267  1.00 87.62     0.032 A 
HETATM   19  F21   D T9001     -10.557  -4.282  10.202  1.00 88.92    -0.203 F 
HETATM   20  C20   D T9001      -7.367  -2.466   9.933  1.00 87.82     0.021 A 
ENDBRANCH  12  13
ENDBRANCH  10  12
BRANCH   2  21
HETATM   21  O11   D T9001      -1.159   2.162  11.147  1.00 85.44    -0.327 OA
HETATM   22  C12   D T9001      -0.492   3.220  10.452  1.00 84.41     0.181 C 
ENDBRANCH   2  21
TORSDOF 3
ENDMDL
MODEL 9
REMARK VINA RESULT:    -7.219      3.232      4.430
REMARK INTER + INTRA:          -8.531
REMARK INTER:                  -7.977
REMARK INTRA:                  -0.555
REMARK UNBOUND:                -0.047
REMARK  3 active torsions:
REMARK  status: ('A' for Active; 'I' for Inactive)
REMARK    1  A    between atoms: C2_2  and  O11_20 
REMARK    2  A    between atoms: C10_10  and  N14_11 
REMARK    3  A    between atoms: N14_11  and  C15_12 
ROOT
HETATM    1  C1    D T9001      -3.849   1.604  11.724  1.00 83.47     0.092 A 
HETATM    2  C2    D T9001      -2.554   1.347  11.162  1.00 83.68     0.109 A 
HETATM    3  C3    D T9001      -2.298   0.100  10.501  1.00 82.47     0.044 A 
HETATM    4  C4    D T9001      -3.273  -0.898  10.378  1.00 82.50     0.088 A 
HETATM    5  C5    D T9001      -4.584  -0.662  10.941  1.00 84.12     0.055 A 
HETATM    6  C6    D T9001      -4.848   0.596  11.609  1.00 83.53     0.021 A 
HETATM    7  N7    D T9001      -2.938  -2.049   9.733  1.00 81.78    -0.224 NA
HETATM    8  C8    D T9001      -3.900  -3.000   9.622  1.00 83.59     0.200 A 
HETATM    9  N9    D T9001      -5.163  -2.910  10.100  1.00 84.30    -0.205 NA
HETATM   10  C10   D T9001      -5.519  -1.742  10.765  1.00 85.59     0.166 A 
HETATM   11  N13   D T9001      -4.141   2.822  12.381  1.00 82.67    -0.099 NA
ENDROOT
BRANCH  10  12
HETATM   12  N14   D T9001      -6.855  -1.613  11.287  1.00 86.44    -0.227 NA
BRANCH  12  13
HETATM   13  C15   D T9001      -8.056  -1.503  10.533  1.00 87.38     0.084 A 
HETATM   14  C16   D T9001      -8.464  -0.259   9.950  1.00 88.13     0.033 A 
HETATM   15  C17   D T9001      -9.662  -0.154   9.207  1.00 88.88     0.087 A 
HETATM   16  C18   D T9001     -10.479  -1.304   9.036  1.00 88.55     0.151 A 
HETATM   17 CL     D T9001     -10.106   1.377   8.532  1.00 89.26    -0.080 Cl
HETATM   18  C19   D T9001     -10.100  -2.555   9.600  1.00 87.62     0.032 A 
HETATM   19  F21   D T9001     -11.623  -1.222   8.336  1.00 88.92    -0.203 F 
HETATM   20  C20   D T9001      -8.893  -2.655  10.347  1.00 87.82     0.021 A 
ENDBRANCH  12  13
ENDBRANCH  10  12
BRANCH   2  21
HETATM   21  O11   D T9001      -1.626   2.375  11.309  1.00 85.44    -0.327 OA
HETATM   22  C12   D T9001      -0.481   2.377  10.450  1.00 84.41     0.181 C 
ENDBRANCH   2  21
TORSDOF 3
ENDMDL
