MODEL 1
REMARK VINA RESULT:    -7.444      0.000      0.000
REMARK INTER + INTRA:          -9.295
REMARK INTER:                  -8.750
REMARK INTRA:                  -0.545
REMARK UNBOUND:                -0.545
REMARK  3 active torsions:
REMARK  status: ('A' for Active; 'I' for Inactive)
REMARK    1  A    between atoms: C2_2  and  O11_20 
REMARK    2  A    between atoms: C10_10  and  N14_11 
REMARK    3  A    between atoms: N14_11  and  C15_12 
ROOT
HETATM    1  C1    D T9001       1.580   8.117  10.912  1.00 83.47     0.092 A 
HETATM    2  C2    D T9001       1.832   8.807   9.681  1.00 83.68     0.109 A 
HETATM    3  C3    D T9001       0.918   8.667   8.584  1.00 82.47     0.044 A 
HETATM    4  C4    D T9001      -0.232   7.870   8.663  1.00 82.50     0.088 A 
HETATM    5  C5    D T9001      -0.503   7.163   9.893  1.00 84.12     0.055 A 
HETATM    6  C6    D T9001       0.416   7.301  11.005  1.00 83.53     0.021 A 
HETATM    7  N7    D T9001      -1.040   7.800   7.571  1.00 81.78    -0.224 NA
HETATM    8  C8    D T9001      -2.151   7.026   7.672  1.00 83.59     0.200 A 
HETATM    9  N9    D T9001      -2.525   6.313   8.759  1.00 84.30    -0.205 NA
HETATM   10  C10   D T9001      -1.707   6.374   9.882  1.00 85.59     0.166 A 
HETATM   11  N13   D T9001       2.455   8.231  12.018  1.00 82.67    -0.099 NA
ENDROOT
BRANCH  10  12
HETATM   12  N14   D T9001      -2.073   5.625  11.057  1.00 86.44    -0.227 NA
BRANCH  12  13
HETATM   13  C15   D T9001      -1.811   4.247  11.303  1.00 87.38     0.084 A 
HETATM   14  C16   D T9001      -0.965   3.826  12.380  1.00 88.13     0.033 A 
HETATM   15  C17   D T9001      -0.702   2.457  12.614  1.00 88.88     0.087 A 
HETATM   16  C18   D T9001      -1.287   1.480  11.765  1.00 88.55     0.151 A 
HETATM   17 CL     D T9001       0.331   2.008  13.928  1.00 89.26    -0.080 Cl
HETATM   18  C19   D T9001      -2.134   1.866  10.687  1.00 87.62     0.032 A 
HETATM   19  F21   D T9001      -1.046   0.174  11.970  1.00 88.92    -0.203 F 
HETATM   20  C20   D T9001      -2.395   3.246  10.455  1.00 87.82     0.021 A 
ENDBRANCH  12  13
ENDBRANCH  10  12
BRANCH   2  21
HETATM   21  O11   D T9001       2.985   9.588   9.660  1.00 85.44    -0.327 OA
HETATM   22  C12   D T9001       3.440  10.087   8.398  1.00 84.41     0.181 C 
ENDBRANCH   2  21
TORSDOF 3
ENDMDL
MODEL 2
REMARK VINA RESULT:    -7.338      5.702      7.458
REMARK INTER + INTRA:          -9.170
REMARK INTER:                  -8.658
REMARK INTRA:                  -0.512
REMARK UNBOUND:                -0.545
REMARK  3 active torsions:
REMARK  status: ('A' for Active; 'I' for Inactive)
REMARK    1  A    between atoms: C2_2  and  O11_20 
REMARK    2  A    between atoms: C10_10  and  N14_11 
REMARK    3  A    between atoms: N14_11  and  C15_12 
ROOT
HETATM    1  C1    D T9001       4.768   1.622  16.473  1.00 83.47     0.092 A 
HETATM    2  C2    D T9001       6.086   1.874  15.966  1.00 83.68     0.109 A 
HETATM    3  C3    D T9001       6.259   2.697  14.804  1.00 82.47     0.044 A 
HETATM    4  C4    D T9001       5.176   3.277  14.128  1.00 82.50     0.088 A 
HETATM    5  C5    D T9001       3.840   3.033  14.620  1.00 84.12     0.055 A 
HETATM    6  C6    D T9001       3.659   2.203  15.794  1.00 83.53     0.021 A 
HETATM    7  N7    D T9001       5.439   4.044  13.036  1.00 81.78    -0.224 NA
HETATM    8  C8    D T9001       4.376   4.600  12.400  1.00 83.59     0.200 A 
HETATM    9  N9    D T9001       3.076   4.455  12.751  1.00 84.30    -0.205 NA
HETATM   10  C10   D T9001       2.794   3.672  13.865  1.00 85.59     0.166 A 
HETATM   11  N13   D T9001       4.556   0.818  17.617  1.00 82.67    -0.099 NA
ENDROOT
BRANCH  10  12
HETATM   12  N14   D T9001       1.422   3.495  14.266  1.00 86.44    -0.227 NA
BRANCH  12  13
HETATM   13  C15   D T9001       0.380   2.907  13.495  1.00 87.38     0.084 A 
HETATM   14  C16   D T9001      -0.408   3.683  12.583  1.00 88.13     0.033 A 
HETATM   15  C17   D T9001      -1.446   3.095  11.826  1.00 88.88     0.087 A 
HETATM   16  C18   D T9001      -1.715   1.708  11.972  1.00 88.55     0.151 A 
HETATM   17 CL     D T9001      -2.366   4.083  10.743  1.00 89.26    -0.080 Cl
HETATM   18  C19   D T9001      -0.949   0.909  12.868  1.00 87.62     0.032 A 
HETATM   19  F21   D T9001      -2.700   1.132  11.262  1.00 88.92    -0.203 F 
HETATM   20  C20   D T9001       0.094   1.506  13.629  1.00 87.82     0.021 A 
ENDBRANCH  12  13
ENDBRANCH  10  12
BRANCH   2  21
HETATM   21  O11   D T9001       7.123   1.276  16.678  1.00 85.44    -0.327 OA
HETATM   22  C12   D T9001       8.112   2.126  17.270  1.00 84.41     0.181 C 
ENDBRANCH   2  21
TORSDOF 3
ENDMDL
MODEL 3
REMARK VINA RESULT:    -7.276      4.300      6.746
REMARK INTER + INTRA:          -9.097
REMARK INTER:                  -8.543
REMARK INTRA:                  -0.554
REMARK UNBOUND:                -0.545
REMARK  3 active torsions:
REMARK  status: ('A' for Active; 'I' for Inactive)
REMARK    1  A    between atoms: C2_2  and  O11_20 
REMARK    2  A    between atoms: C10_10  and  N14_11 
REMARK    3  A    between atoms: N14_11  and  C15_12 
ROOT
HETATM    1  C1    D T9001       0.846   4.938  12.660  1.00 83.47     0.092 A 
HETATM    2  C2    D T9001       0.178   3.676  12.794  1.00 83.68     0.109 A 
HETATM    3  C3    D T9001      -0.994   3.402  12.014  1.00 82.47     0.044 A 
HETATM    4  C4    D T9001      -1.527   4.331  11.109  1.00 82.50     0.088 A 
HETATM    5  C5    D T9001      -0.871   5.610  10.961  1.00 84.12     0.055 A 
HETATM    6  C6    D T9001       0.313   5.892  11.746  1.00 83.53     0.021 A 
HETATM    7  N7    D T9001      -2.641   3.980  10.412  1.00 81.78    -0.224 NA
HETATM    8  C8    D T9001      -3.137   4.893   9.538  1.00 83.59     0.200 A 
HETATM    9  N9    D T9001      -2.626   6.124   9.301  1.00 84.30    -0.205 NA
HETATM   10  C10   D T9001      -1.488   6.496  10.008  1.00 85.59     0.166 A 
HETATM   11  N13   D T9001       2.006   5.246  13.409  1.00 82.67    -0.099 NA
ENDROOT
BRANCH  10  12
HETATM   12  N14   D T9001      -0.918   7.800   9.782  1.00 86.44    -0.227 NA
BRANCH  12  13
HETATM   13  C15   D T9001      -0.156   8.210   8.652  1.00 87.38     0.084 A 
HETATM   14  C16   D T9001      -0.770   8.858   7.530  1.00 88.13     0.033 A 
HETATM   15  C17   D T9001      -0.009   9.256   6.407  1.00 88.88     0.087 A 
HETATM   16  C18   D T9001       1.389   9.008   6.389  1.00 88.55     0.151 A 
HETATM   17 CL     D T9001      -0.805  10.031   5.080  1.00 89.26    -0.080 Cl
HETATM   18  C19   D T9001       2.029   8.368   7.489  1.00 87.62     0.032 A 
HETATM   19  F21   D T9001       2.128   9.376   5.328  1.00 88.92    -0.203 F 
HETATM   20  C20   D T9001       1.259   7.968   8.616  1.00 87.82     0.021 A 
ENDBRANCH  12  13
ENDBRANCH  10  12
BRANCH   2  21
HETATM   21  O11   D T9001       0.753   2.791  13.703  1.00 85.44    -0.327 OA
HETATM   22  C12   D T9001       0.150   1.503  13.863  1.00 84.41     0.181 C 
ENDBRANCH   2  21
TORSDOF 3
ENDMDL
MODEL 4
REMARK VINA RESULT:    -7.155      3.366      4.913
REMARK INTER + INTRA:          -8.956
REMARK INTER:                  -8.663
REMARK INTRA:                  -0.293
REMARK UNBOUND:                -0.545
REMARK  3 active torsions:
REMARK  status: ('A' for Active; 'I' for Inactive)
REMARK    1  A    between atoms: C2_2  and  O11_20 
REMARK    2  A    between atoms: C10_10  and  N14_11 
REMARK    3  A    between atoms: N14_11  and  C15_12 
ROOT
HETATM    1  C1    D T9001       1.720   7.018  12.543  1.00 83.47     0.092 A 
HETATM    2  C2    D T9001       3.143   7.197  12.496  1.00 83.68     0.109 A 
HETATM    3  C3    D T9001       4.011   6.112  12.854  1.00 82.47     0.044 A 
HETATM    4  C4    D T9001       3.522   4.861  13.254  1.00 82.50     0.088 A 
HETATM    5  C5    D T9001       2.092   4.660  13.311  1.00 84.12     0.055 A 
HETATM    6  C6    D T9001       1.210   5.752  12.951  1.00 83.53     0.021 A 
HETATM    7  N7    D T9001       4.422   3.892  13.573  1.00 81.78    -0.224 NA
HETATM    8  C8    D T9001       3.927   2.687  13.953  1.00 83.59     0.200 A 
HETATM    9  N9    D T9001       2.616   2.363  14.050  1.00 84.30    -0.205 NA
HETATM   10  C10   D T9001       1.684   3.344  13.730  1.00 85.59     0.166 A 
HETATM   11  N13   D T9001       0.831   8.062  12.195  1.00 82.67    -0.099 NA
ENDROOT
BRANCH  10  12
HETATM   12  N14   D T9001       0.281   3.035  13.823  1.00 86.44    -0.227 NA
BRANCH  12  13
HETATM   13  C15   D T9001      -0.591   2.706  12.747  1.00 87.38     0.084 A 
HETATM   14  C16   D T9001      -1.129   3.716  11.883  1.00 88.13     0.033 A 
HETATM   15  C17   D T9001      -2.000   3.384  10.821  1.00 88.88     0.087 A 
HETATM   16  C18   D T9001      -2.350   2.024  10.605  1.00 88.55     0.151 A 
HETATM   17 CL     D T9001      -2.622   4.646   9.813  1.00 89.26    -0.080 Cl
HETATM   18  C19   D T9001      -1.830   0.998  11.444  1.00 87.62     0.032 A 
HETATM   19  F21   D T9001      -3.179   1.690   9.602  1.00 88.92    -0.203 F 
HETATM   20  C20   D T9001      -0.955   1.337  12.513  1.00 87.82     0.021 A 
ENDBRANCH  12  13
ENDBRANCH  10  12
BRANCH   2  21
HETATM   21  O11   D T9001       3.572   8.457  12.087  1.00 85.44    -0.327 OA
HETATM   22  C12   D T9001       4.696   9.037  12.758  1.00 84.41     0.181 C 
ENDBRANCH   2  21
TORSDOF 3
ENDMDL
MODEL 5
REMARK VINA RESULT:    -7.129      4.166      6.358
REMARK INTER + INTRA:          -8.924
REMARK INTER:                  -8.359
REMARK INTRA:                  -0.565
REMARK UNBOUND:                -0.545
REMARK  3 active torsions:
REMARK  status: ('A' for Active; 'I' for Inactive)
REMARK    1  A    between atoms: C2_2  and  O11_20 
REMARK    2  A    between atoms: C10_10  and  N14_11 
REMARK    3  A    between atoms: N14_11  and  C15_12 
ROOT
HETATM    1  C1    D T9001      -1.584   5.313  10.625  1.00 83.47     0.092 A 
HETATM    2  C2    D T9001      -2.494   4.400   9.997  1.00 83.68     0.109 A 
HETATM    3  C3    D T9001      -2.536   3.030  10.417  1.00 82.47     0.044 A 
HETATM    4  C4    D T9001      -1.711   2.532  11.435  1.00 82.50     0.088 A 
HETATM    5  C5    D T9001      -0.783   3.434  12.080  1.00 84.12     0.055 A 
HETATM    6  C6    D T9001      -0.737   4.820  11.658  1.00 83.53     0.021 A 
HETATM    7  N7    D T9001      -1.823   1.218  11.767  1.00 81.78    -0.224 NA
HETATM    8  C8    D T9001      -1.017   0.759  12.759  1.00 83.59     0.200 A 
HETATM    9  N9    D T9001      -0.107   1.490  13.444  1.00 84.30    -0.205 NA
HETATM   10  C10   D T9001       0.020   2.835  13.113  1.00 85.59     0.166 A 
HETATM   11  N13   D T9001      -1.514   6.673  10.240  1.00 82.67    -0.099 NA
ENDROOT
BRANCH  10  12
HETATM   12  N14   D T9001       0.980   3.642  13.821  1.00 86.44    -0.227 NA
BRANCH  12  13
HETATM   13  C15   D T9001       2.367   3.766  13.528  1.00 87.38     0.084 A 
HETATM   14  C16   D T9001       3.341   2.908  14.136  1.00 88.13     0.033 A 
HETATM   15  C17   D T9001       4.718   3.040  13.846  1.00 88.88     0.087 A 
HETATM   16  C18   D T9001       5.145   4.043  12.936  1.00 88.55     0.151 A 
HETATM   17 CL     D T9001       5.849   1.978  14.614  1.00 89.26    -0.080 Cl
HETATM   18  C19   D T9001       4.202   4.910  12.313  1.00 87.62     0.032 A 
HETATM   19  F21   D T9001       6.451   4.186  12.650  1.00 88.92    -0.203 F 
HETATM   20  C20   D T9001       2.817   4.773  12.609  1.00 87.82     0.021 A 
ENDBRANCH  12  13
ENDBRANCH  10  12
BRANCH   2  21
HETATM   21  O11   D T9001      -3.293   4.950   8.996  1.00 85.44    -0.327 OA
HETATM   22  C12   D T9001      -4.655   4.519   8.908  1.00 84.41     0.181 C 
ENDBRANCH   2  21
TORSDOF 3
ENDMDL
MODEL 6
REMARK VINA RESULT:    -7.050      4.781      7.006
REMARK INTER + INTRA:          -8.832
REMARK INTER:                  -8.295
REMARK INTRA:                  -0.537
REMARK UNBOUND:                -0.545
REMARK  3 active torsions:
REMARK  status: ('A' for Active; 'I' for Inactive)
REMARK    1  A    between atoms: C2_2  and  O11_20 
REMARK    2  A    between atoms: C10_10  and  N14_11 
REMARK    3  A    between atoms: N14_11  and  C15_12 
ROOT
HETATM    1  C1    D T9001       0.120   2.996  13.278  1.00 83.47     0.092 A 
HETATM    2  C2    D T9001      -0.964   2.994  12.339  1.00 83.68     0.109 A 
HETATM    3  C3    D T9001      -1.127   4.095  11.435  1.00 82.47     0.044 A 
HETATM    4  C4    D T9001      -0.258   5.194  11.427  1.00 82.50     0.088 A 
HETATM    5  C5    D T9001       0.839   5.218  12.367  1.00 84.12     0.055 A 
HETATM    6  C6    D T9001       1.009   4.109  13.283  1.00 83.53     0.021 A 
HETATM    7  N7    D T9001      -0.492   6.191  10.531  1.00 81.78    -0.224 NA
HETATM    8  C8    D T9001       0.365   7.243  10.538  1.00 83.59     0.200 A 
HETATM    9  N9    D T9001       1.429   7.395  11.361  1.00 84.30    -0.205 NA
HETATM   10  C10   D T9001       1.679   6.385  12.283  1.00 85.59     0.166 A 
HETATM   11  N13   D T9001       0.317   1.928  14.185  1.00 82.67    -0.099 NA
ENDROOT
BRANCH  10  12
HETATM   12  N14   D T9001       2.802   6.513  13.176  1.00 86.44    -0.227 NA
BRANCH  12  13
HETATM   13  C15   D T9001       4.155   6.170  12.895  1.00 87.38     0.084 A 
HETATM   14  C16   D T9001       5.230   7.080  13.161  1.00 88.13     0.033 A 
HETATM   15  C17   D T9001       6.570   6.736  12.872  1.00 88.88     0.087 A 
HETATM   16  C18   D T9001       6.857   5.466  12.306  1.00 88.55     0.151 A 
HETATM   17 CL     D T9001       7.827   7.878  13.212  1.00 89.26    -0.080 Cl
HETATM   18  C19   D T9001       5.812   4.539  12.032  1.00 87.62     0.032 A 
HETATM   19  F21   D T9001       8.126   5.123  12.022  1.00 88.92    -0.203 F 
HETATM   20  C20   D T9001       4.464   4.890  12.323  1.00 87.82     0.021 A 
ENDBRANCH  12  13
ENDBRANCH  10  12
BRANCH   2  21
HETATM   21  O11   D T9001      -1.792   1.875  12.388  1.00 85.44    -0.327 OA
HETATM   22  C12   D T9001      -2.489   1.499  11.195  1.00 84.41     0.181 C 
ENDBRANCH   2  21
TORSDOF 3
ENDMDL
MODEL 7
REMARK VINA RESULT:    -6.982      2.150      2.816
REMARK INTER + INTRA:          -8.752
REMARK INTER:                  -8.950
REMARK INTRA:                   0.198
REMARK UNBOUND:                -0.545
REMARK  3 active torsions:
REMARK  status: ('A' for Active; 'I' for Inactive)
REMARK    1  A    between atoms: C2_2  and  O11_20 
REMARK    2  A    between atoms: C10_10  and  N14_11 
REMARK    3  A    between atoms: N14_11  and  C15_12 
ROOT
HETATM    1  C1    D T9001       2.119   9.210   8.533  1.00 83.47     0.092 A 
HETATM    2  C2    D T9001       1.132   9.596   7.567  1.00 83.68     0.109 A 
HETATM    3  C3    D T9001      -0.182   9.024   7.619  1.00 82.47     0.044 A 
HETATM    4  C4    D T9001      -0.552   8.085   8.592  1.00 82.50     0.088 A 
HETATM    5  C5    D T9001       0.427   7.680   9.574  1.00 84.12     0.055 A 
HETATM    6  C6    D T9001       1.757   8.255   9.526  1.00 83.53     0.021 A 
HETATM    7  N7    D T9001      -1.822   7.599   8.563  1.00 81.78    -0.224 NA
HETATM    8  C8    D T9001      -2.160   6.694   9.518  1.00 83.59     0.200 A 
HETATM    9  N9    D T9001      -1.346   6.228  10.493  1.00 84.30    -0.205 NA
HETATM   10  C10   D T9001      -0.044   6.716  10.533  1.00 85.59     0.166 A 
HETATM   11  N13   D T9001       3.425   9.754   8.517  1.00 82.67    -0.099 NA
ENDROOT
BRANCH  10  12
HETATM   12  N14   D T9001       0.850   6.240  11.557  1.00 86.44    -0.227 NA
BRANCH  12  13
HETATM   13  C15   D T9001       0.717   5.040  12.312  1.00 87.38     0.084 A 
HETATM   14  C16   D T9001      -0.311   4.084  12.024  1.00 88.13     0.033 A 
HETATM   15  C17   D T9001      -0.443   2.899  12.783  1.00 88.88     0.087 A 
HETATM   16  C18   D T9001       0.459   2.651  13.851  1.00 88.55     0.151 A 
HETATM   17 CL     D T9001      -1.706   1.782  12.391  1.00 89.26    -0.080 Cl
HETATM   18  C19   D T9001       1.492   3.580  14.161  1.00 87.62     0.032 A 
HETATM   19  F21   D T9001       0.346   1.531  14.585  1.00 88.92    -0.203 F 
HETATM   20  C20   D T9001       1.620   4.773  13.396  1.00 87.82     0.021 A 
ENDBRANCH  12  13
ENDBRANCH  10  12
BRANCH   2  21
HETATM   21  O11   D T9001       1.554  10.535   6.627  1.00 85.44    -0.327 OA
HETATM   22  C12   D T9001       1.599  10.139   5.252  1.00 84.41     0.181 C 
ENDBRANCH   2  21
TORSDOF 3
ENDMDL
MODEL 8
REMARK VINA RESULT:    -6.975      4.614      6.527
REMARK INTER + INTRA:          -8.743
REMARK INTER:                  -8.376
REMARK INTRA:                  -0.367
REMARK UNBOUND:                -0.545
REMARK  3 active torsions:
REMARK  status: ('A' for Active; 'I' for Inactive)
REMARK    1  A    between atoms: C2_2  and  O11_20 
REMARK    2  A    between atoms: C10_10  and  N14_11 
REMARK    3  A    between atoms: N14_11  and  C15_12 
ROOT
HETATM    1  C1    D T9001      -1.629   2.735  11.676  1.00 83.47     0.092 A 
HETATM    2  C2    D T9001      -1.934   3.802  10.768  1.00 83.68     0.109 A 
HETATM    3  C3    D T9001      -1.157   5.008  10.797  1.00 82.47     0.044 A 
HETATM    4  C4    D T9001      -0.093   5.193  11.690  1.00 82.50     0.088 A 
HETATM    5  C5    D T9001       0.229   4.132  12.615  1.00 84.12     0.055 A 
HETATM    6  C6    D T9001      -0.553   2.911  12.591  1.00 83.53     0.021 A 
HETATM    7  N7    D T9001       0.587   6.370  11.642  1.00 81.78    -0.224 NA
HETATM    8  C8    D T9001       1.616   6.526  12.513  1.00 83.59     0.200 A 
HETATM    9  N9    D T9001       2.024   5.618  13.430  1.00 84.30    -0.205 NA
HETATM   10  C10   D T9001       1.337   4.411  13.491  1.00 85.59     0.166 A 
HETATM   11  N13   D T9001      -2.370   1.529  11.677  1.00 82.67    -0.099 NA
ENDROOT
BRANCH  10  12
HETATM   12  N14   D T9001       1.743   3.422  14.456  1.00 86.44    -0.227 NA
BRANCH  12  13
HETATM   13  C15   D T9001       3.052   2.890  14.628  1.00 87.38     0.084 A 
HETATM   14  C16   D T9001       3.481   2.344  15.882  1.00 88.13     0.033 A 
HETATM   15  C17   D T9001       4.785   1.825  16.048  1.00 88.88     0.087 A 
HETATM   16  C18   D T9001       5.688   1.844  14.953  1.00 88.55     0.151 A 
HETATM   17 CL     D T9001       5.248   1.183  17.588  1.00 89.26    -0.080 Cl
HETATM   18  C19   D T9001       5.292   2.377  13.693  1.00 87.62     0.032 A 
HETATM   19  F21   D T9001       6.933   1.357  15.093  1.00 88.92    -0.203 F 
HETATM   20  C20   D T9001       3.978   2.900  13.531  1.00 87.82     0.021 A 
ENDBRANCH  12  13
ENDBRANCH  10  12
BRANCH   2  21
HETATM   21  O11   D T9001      -2.997   3.562   9.900  1.00 85.44    -0.327 OA
HETATM   22  C12   D T9001      -3.550   4.673   9.186  1.00 84.41     0.181 C 
ENDBRANCH   2  21
TORSDOF 3
ENDMDL
MODEL 9
REMARK VINA RESULT:    -6.808      4.305      7.231
REMARK INTER + INTRA:          -8.547
REMARK INTER:                  -8.441
REMARK INTRA:                  -0.106
REMARK UNBOUND:                -0.545
REMARK  3 active torsions:
REMARK  status: ('A' for Active; 'I' for Inactive)
REMARK    1  A    between atoms: C2_2  and  O11_20 
REMARK    2  A    between atoms: C10_10  and  N14_11 
REMARK    3  A    between atoms: N14_11  and  C15_12 
ROOT
HETATM    1  C1    D T9001      -1.340   3.297  11.469  1.00 83.47     0.092 A 
HETATM    2  C2    D T9001      -0.519   2.931  12.586  1.00 83.68     0.109 A 
HETATM    3  C3    D T9001       0.465   3.850  13.080  1.00 82.47     0.044 A 
HETATM    4  C4    D T9001       0.664   5.114  12.510  1.00 82.50     0.088 A 
HETATM    5  C5    D T9001      -0.151   5.502  11.381  1.00 84.12     0.055 A 
HETATM    6  C6    D T9001      -1.147   4.578  10.878  1.00 83.53     0.021 A 
HETATM    7  N7    D T9001       1.620   5.918  13.048  1.00 81.78    -0.224 NA
HETATM    8  C8    D T9001       1.793   7.140  12.483  1.00 83.59     0.200 A 
HETATM    9  N9    D T9001       1.102   7.629  11.426  1.00 84.30    -0.205 NA
HETATM   10  C10   D T9001       0.123   6.818  10.865  1.00 85.59     0.166 A 
HETATM   11  N13   D T9001      -2.324   2.420  10.954  1.00 82.67    -0.099 NA
ENDROOT
BRANCH  10  12
HETATM   12  N14   D T9001      -0.630   7.306   9.738  1.00 86.44    -0.227 NA
BRANCH  12  13
HETATM   13  C15   D T9001      -0.115   8.007   8.611  1.00 87.38     0.084 A 
HETATM   14  C16   D T9001       1.294   8.188   8.420  1.00 88.13     0.033 A 
HETATM   15  C17   D T9001       1.799   8.891   7.303  1.00 88.88     0.087 A 
HETATM   16  C18   D T9001       0.893   9.430   6.352  1.00 88.55     0.151 A 
HETATM   17 CL     D T9001       3.510   9.081   7.128  1.00 89.26    -0.080 Cl
HETATM   18  C19   D T9001      -0.513   9.266   6.511  1.00 87.62     0.032 A 
HETATM   19  F21   D T9001       1.355  10.105   5.285  1.00 88.92    -0.203 F 
HETATM   20  C20   D T9001      -1.016   8.558   7.638  1.00 87.82     0.021 A 
ENDBRANCH  12  13
ENDBRANCH  10  12
BRANCH   2  21
HETATM   21  O11   D T9001      -0.763   1.666  13.116  1.00 85.44    -0.327 OA
HETATM   22  C12   D T9001       0.092   1.197  14.165  1.00 84.41     0.181 C 
ENDBRANCH   2  21
TORSDOF 3
ENDMDL
