MODEL 1
REMARK VINA RESULT:    -7.689      0.000      0.000
REMARK INTER + INTRA:          -9.610
REMARK INTER:                  -9.038
REMARK INTRA:                  -0.572
REMARK UNBOUND:                -0.572
REMARK  3 active torsions:
REMARK  status: ('A' for Active; 'I' for Inactive)
REMARK    1  A    between atoms: C2_2  and  O11_20 
REMARK    2  A    between atoms: C10_10  and  N14_11 
REMARK    3  A    between atoms: N14_11  and  C15_12 
ROOT
HETATM    1  C1    D T9001      -2.350   3.944   6.946  1.00 83.47     0.092 A 
HETATM    2  C2    D T9001      -1.343   4.383   6.024  1.00 83.68     0.109 A 
HETATM    3  C3    D T9001      -0.176   3.578   5.804  1.00 82.47     0.044 A 
HETATM    4  C4    D T9001       0.029   2.359   6.462  1.00 82.50     0.088 A 
HETATM    5  C5    D T9001      -0.971   1.898   7.399  1.00 84.12     0.055 A 
HETATM    6  C6    D T9001      -2.152   2.707   7.625  1.00 83.53     0.021 A 
HETATM    7  N7    D T9001       1.165   1.664   6.188  1.00 81.78    -0.224 NA
HETATM    8  C8    D T9001       1.342   0.483   6.833  1.00 83.59     0.200 A 
HETATM    9  N9    D T9001       0.490  -0.064   7.731  1.00 84.30    -0.205 NA
HETATM   10  C10   D T9001      -0.676   0.635   8.024  1.00 85.59     0.166 A 
HETATM   11  N13   D T9001      -3.516   4.707   7.189  1.00 82.67    -0.099 NA
ENDROOT
BRANCH  10  12
HETATM   12  N14   D T9001      -1.605   0.083   8.976  1.00 86.44    -0.227 NA
BRANCH  12  13
HETATM   13  C15   D T9001      -2.580  -0.923   8.726  1.00 87.38     0.084 A 
HETATM   14  C16   D T9001      -2.445  -2.247   9.259  1.00 88.13     0.033 A 
HETATM   15  C17   D T9001      -3.413  -3.244   9.001  1.00 88.88     0.087 A 
HETATM   16  C18   D T9001      -4.540  -2.928   8.196  1.00 88.55     0.151 A 
HETATM   17 CL     D T9001      -3.194  -4.826   9.668  1.00 89.26    -0.080 Cl
HETATM   18  C19   D T9001      -4.705  -1.622   7.655  1.00 87.62     0.032 A 
HETATM   19  F21   D T9001      -5.469  -3.865   7.939  1.00 88.92    -0.203 F 
HETATM   20  C20   D T9001      -3.727  -0.622   7.917  1.00 87.82     0.021 A 
ENDBRANCH  12  13
ENDBRANCH  10  12
BRANCH   2  21
HETATM   21  O11   D T9001      -1.601   5.599   5.396  1.00 85.44    -0.327 OA
HETATM   22  C12   D T9001      -1.643   5.623   3.965  1.00 84.41     0.181 C 
ENDBRANCH   2  21
TORSDOF 3
ENDMDL
MODEL 2
REMARK VINA RESULT:    -7.363      4.383      7.333
REMARK INTER + INTRA:          -9.226
REMARK INTER:                  -8.749
REMARK INTRA:                  -0.477
REMARK UNBOUND:                -0.572
REMARK  3 active torsions:
REMARK  status: ('A' for Active; 'I' for Inactive)
REMARK    1  A    between atoms: C2_2  and  O11_20 
REMARK    2  A    between atoms: C10_10  and  N14_11 
REMARK    3  A    between atoms: N14_11  and  C15_12 
ROOT
HETATM    1  C1    D T9001      -0.438  -2.499   9.880  1.00 83.47     0.092 A 
HETATM    2  C2    D T9001      -0.458  -3.919  10.084  1.00 83.68     0.109 A 
HETATM    3  C3    D T9001      -1.612  -4.679   9.701  1.00 82.47     0.044 A 
HETATM    4  C4    D T9001      -2.743  -4.087   9.125  1.00 82.50     0.088 A 
HETATM    5  C5    D T9001      -2.747  -2.657   8.912  1.00 84.12     0.055 A 
HETATM    6  C6    D T9001      -1.583  -1.884   9.297  1.00 83.53     0.021 A 
HETATM    7  N7    D T9001      -3.790  -4.890   8.792  1.00 81.78    -0.224 NA
HETATM    8  C8    D T9001      -4.874  -4.296   8.230  1.00 83.59     0.200 A 
HETATM    9  N9    D T9001      -5.010  -2.974   7.976  1.00 84.30    -0.205 NA
HETATM   10  C10   D T9001      -3.949  -2.139   8.313  1.00 85.59     0.166 A 
HETATM   11  N13   D T9001       0.681  -1.714  10.241  1.00 82.67    -0.099 NA
ENDROOT
BRANCH  10  12
HETATM   12  N14   D T9001      -4.061  -0.726   8.057  1.00 86.44    -0.227 NA
BRANCH  12  13
HETATM   13  C15   D T9001      -3.211   0.056   7.226  1.00 87.38     0.084 A 
HETATM   14  C16   D T9001      -2.660   1.300   7.676  1.00 88.13     0.033 A 
HETATM   15  C17   D T9001      -1.822   2.076   6.843  1.00 88.88     0.087 A 
HETATM   16  C18   D T9001      -1.524   1.615   5.533  1.00 88.55     0.151 A 
HETATM   17 CL     D T9001      -1.189   3.572   7.440  1.00 89.26    -0.080 Cl
HETATM   18  C19   D T9001      -2.053   0.382   5.056  1.00 87.62     0.032 A 
HETATM   19  F21   D T9001      -0.731   2.341   4.725  1.00 88.92    -0.203 F 
HETATM   20  C20   D T9001      -2.897  -0.395   5.899  1.00 87.82     0.021 A 
ENDBRANCH  12  13
ENDBRANCH  10  12
BRANCH   2  21
HETATM   21  O11   D T9001       0.693  -4.454  10.656  1.00 85.44    -0.327 OA
HETATM   22  C12   D T9001       0.603  -4.986  11.982  1.00 84.41     0.181 C 
ENDBRANCH   2  21
TORSDOF 3
ENDMDL
MODEL 3
REMARK VINA RESULT:    -7.198      2.654      3.901
REMARK INTER + INTRA:          -9.032
REMARK INTER:                  -8.456
REMARK INTRA:                  -0.576
REMARK UNBOUND:                -0.572
REMARK  3 active torsions:
REMARK  status: ('A' for Active; 'I' for Inactive)
REMARK    1  A    between atoms: C2_2  and  O11_20 
REMARK    2  A    between atoms: C10_10  and  N14_11 
REMARK    3  A    between atoms: N14_11  and  C15_12 
ROOT
HETATM    1  C1    D T9001       2.377   0.825   8.754  1.00 83.47     0.092 A 
HETATM    2  C2    D T9001       2.868   1.447   7.558  1.00 83.68     0.109 A 
HETATM    3  C3    D T9001       1.958   1.773   6.499  1.00 82.47     0.044 A 
HETATM    4  C4    D T9001       0.586   1.506   6.579  1.00 82.50     0.088 A 
HETATM    5  C5    D T9001       0.069   0.877   7.774  1.00 84.12     0.055 A 
HETATM    6  C6    D T9001       0.984   0.545   8.848  1.00 83.53     0.021 A 
HETATM    7  N7    D T9001      -0.200   1.853   5.524  1.00 81.78    -0.224 NA
HETATM    8  C8    D T9001      -1.528   1.590   5.625  1.00 83.59     0.200 A 
HETATM    9  N9    D T9001      -2.141   1.008   6.682  1.00 84.30    -0.205 NA
HETATM   10  C10   D T9001      -1.352   0.644   7.768  1.00 85.59     0.166 A 
HETATM   11  N13   D T9001       3.241   0.489   9.823  1.00 82.67    -0.099 NA
ENDROOT
BRANCH  10  12
HETATM   12  N14   D T9001      -1.972   0.020   8.908  1.00 86.44    -0.227 NA
BRANCH  12  13
HETATM   13  C15   D T9001      -2.276  -1.361   9.059  1.00 87.38     0.084 A 
HETATM   14  C16   D T9001      -1.349  -2.271   9.665  1.00 88.13     0.033 A 
HETATM   15  C17   D T9001      -1.654  -3.644   9.807  1.00 88.88     0.087 A 
HETATM   16  C18   D T9001      -2.903  -4.132   9.336  1.00 88.55     0.151 A 
HETATM   17 CL     D T9001      -0.493  -4.696  10.543  1.00 89.26    -0.080 Cl
HETATM   18  C19   D T9001      -3.846  -3.254   8.732  1.00 87.62     0.032 A 
HETATM   19  F21   D T9001      -3.208  -5.435   9.459  1.00 88.92    -0.203 F 
HETATM   20  C20   D T9001      -3.534  -1.872   8.591  1.00 87.82     0.021 A 
ENDBRANCH  12  13
ENDBRANCH  10  12
BRANCH   2  21
HETATM   21  O11   D T9001       4.238   1.692   7.534  1.00 85.44    -0.327 OA
HETATM   22  C12   D T9001       4.834   2.069   6.289  1.00 84.41     0.181 C 
ENDBRANCH   2  21
TORSDOF 3
ENDMDL
MODEL 4
REMARK VINA RESULT:    -7.116      2.143      3.497
REMARK INTER + INTRA:          -8.936
REMARK INTER:                  -8.375
REMARK INTRA:                  -0.560
REMARK UNBOUND:                -0.572
REMARK  3 active torsions:
REMARK  status: ('A' for Active; 'I' for Inactive)
REMARK    1  A    between atoms: C2_2  and  O11_20 
REMARK    2  A    between atoms: C10_10  and  N14_11 
REMARK    3  A    between atoms: N14_11  and  C15_12 
ROOT
HETATM    1  C1    D T9001       1.647   1.975   6.470  1.00 83.47     0.092 A 
HETATM    2  C2    D T9001       1.619   3.365   6.824  1.00 83.68     0.109 A 
HETATM    3  C3    D T9001       0.380   3.979   7.205  1.00 82.47     0.044 A 
HETATM    4  C4    D T9001      -0.827   3.270   7.246  1.00 82.50     0.088 A 
HETATM    5  C5    D T9001      -0.823   1.869   6.890  1.00 84.12     0.055 A 
HETATM    6  C6    D T9001       0.426   1.243   6.505  1.00 83.53     0.021 A 
HETATM    7  N7    D T9001      -1.952   3.937   7.622  1.00 81.78    -0.224 NA
HETATM    8  C8    D T9001      -3.110   3.230   7.660  1.00 83.59     0.200 A 
HETATM    9  N9    D T9001      -3.248   1.919   7.353  1.00 84.30    -0.205 NA
HETATM   10  C10   D T9001      -2.108   1.223   6.965  1.00 85.59     0.166 A 
HETATM   11  N13   D T9001       2.849   1.332   6.091  1.00 82.67    -0.099 NA
ENDROOT
BRANCH  10  12
HETATM   12  N14   D T9001      -2.218  -0.174   6.629  1.00 86.44    -0.227 NA
BRANCH  12  13
HETATM   13  C15   D T9001      -2.520  -1.240   7.522  1.00 87.38     0.084 A 
HETATM   14  C16   D T9001      -1.495  -1.903   8.272  1.00 88.13     0.033 A 
HETATM   15  C17   D T9001      -1.801  -2.966   9.152  1.00 88.88     0.087 A 
HETATM   16  C18   D T9001      -3.150  -3.387   9.293  1.00 88.55     0.151 A 
HETATM   17 CL     D T9001      -0.519  -3.732  10.028  1.00 89.26    -0.080 Cl
HETATM   18  C19   D T9001      -4.192  -2.747   8.565  1.00 87.62     0.032 A 
HETATM   19  F21   D T9001      -3.458  -4.398  10.123  1.00 88.92    -0.203 F 
HETATM   20  C20   D T9001      -3.879  -1.677   7.679  1.00 87.82     0.021 A 
ENDBRANCH  12  13
ENDBRANCH  10  12
BRANCH   2  21
HETATM   21  O11   D T9001       2.847   4.018   6.769  1.00 85.44    -0.327 OA
HETATM   22  C12   D T9001       3.414   4.493   7.995  1.00 84.41     0.181 C 
ENDBRANCH   2  21
TORSDOF 3
ENDMDL
MODEL 5
REMARK VINA RESULT:    -7.063      4.675      7.390
REMARK INTER + INTRA:          -8.874
REMARK INTER:                  -8.286
REMARK INTRA:                  -0.588
REMARK UNBOUND:                -0.572
REMARK  3 active torsions:
REMARK  status: ('A' for Active; 'I' for Inactive)
REMARK    1  A    between atoms: C2_2  and  O11_20 
REMARK    2  A    between atoms: C10_10  and  N14_11 
REMARK    3  A    between atoms: N14_11  and  C15_12 
ROOT
HETATM    1  C1    D T9001      -1.075  -2.487   9.928  1.00 83.47     0.092 A 
HETATM    2  C2    D T9001      -2.267  -3.159   9.499  1.00 83.68     0.109 A 
HETATM    3  C3    D T9001      -3.234  -2.459   8.704  1.00 82.47     0.044 A 
HETATM    4  C4    D T9001      -3.064  -1.123   8.320  1.00 82.50     0.088 A 
HETATM    5  C5    D T9001      -1.871  -0.425   8.744  1.00 84.12     0.055 A 
HETATM    6  C6    D T9001      -0.890  -1.127   9.547  1.00 83.53     0.021 A 
HETATM    7  N7    D T9001      -4.034  -0.543   7.564  1.00 81.78    -0.224 NA
HETATM    8  C8    D T9001      -3.847   0.752   7.199  1.00 83.59     0.200 A 
HETATM    9  N9    D T9001      -2.782   1.520   7.525  1.00 84.30    -0.205 NA
HETATM   10  C10   D T9001      -1.782   0.942   8.300  1.00 85.59     0.166 A 
HETATM   11  N13   D T9001      -0.096  -3.143  10.711  1.00 82.67    -0.099 NA
ENDROOT
BRANCH  10  12
HETATM   12  N14   D T9001      -0.634   1.732   8.666  1.00 86.44    -0.227 NA
BRANCH  12  13
HETATM   13  C15   D T9001       0.654   1.688   8.063  1.00 87.38     0.084 A 
HETATM   14  C16   D T9001       1.830   2.089   8.778  1.00 88.13     0.033 A 
HETATM   15  C17   D T9001       3.106   2.050   8.171  1.00 88.88     0.087 A 
HETATM   16  C18   D T9001       3.225   1.608   6.826  1.00 88.55     0.151 A 
HETATM   17 CL     D T9001       4.490   2.551   9.083  1.00 89.26    -0.080 Cl
HETATM   18  C19   D T9001       2.077   1.200   6.090  1.00 87.62     0.032 A 
HETATM   19  F21   D T9001       4.430   1.567   6.233  1.00 88.92    -0.203 F 
HETATM   20  C20   D T9001       0.794   1.242   6.706  1.00 87.82     0.021 A 
ENDBRANCH  12  13
ENDBRANCH  10  12
BRANCH   2  21
HETATM   21  O11   D T9001      -2.382  -4.486   9.906  1.00 85.44    -0.327 OA
HETATM   22  C12   D T9001      -3.219  -5.357   9.138  1.00 84.41     0.181 C 
ENDBRANCH   2  21
TORSDOF 3
ENDMDL
MODEL 6
REMARK VINA RESULT:    -6.985      2.925      3.772
REMARK INTER + INTRA:          -8.782
REMARK INTER:                  -8.208
REMARK INTRA:                  -0.574
REMARK UNBOUND:                -0.572
REMARK  3 active torsions:
REMARK  status: ('A' for Active; 'I' for Inactive)
REMARK    1  A    between atoms: C2_2  and  O11_20 
REMARK    2  A    between atoms: C10_10  and  N14_11 
REMARK    3  A    between atoms: N14_11  and  C15_12 
ROOT
HETATM    1  C1    D T9001      -2.803   0.895   7.478  1.00 83.47     0.092 A 
HETATM    2  C2    D T9001      -2.684   2.320   7.600  1.00 83.68     0.109 A 
HETATM    3  C3    D T9001      -1.393   2.914   7.793  1.00 82.47     0.044 A 
HETATM    4  C4    D T9001      -0.220   2.151   7.872  1.00 82.50     0.088 A 
HETATM    5  C5    D T9001      -0.317   0.714   7.755  1.00 84.12     0.055 A 
HETATM    6  C6    D T9001      -1.619   0.108   7.559  1.00 83.53     0.021 A 
HETATM    7  N7    D T9001       0.960   2.804   8.055  1.00 81.78    -0.224 NA
HETATM    8  C8    D T9001       2.084   2.046   8.124  1.00 83.59     0.200 A 
HETATM    9  N9    D T9001       2.137   0.697   8.030  1.00 84.30    -0.205 NA
HETATM   10  C10   D T9001       0.939   0.015   7.845  1.00 85.59     0.166 A 
HETATM   11  N13   D T9001      -4.057   0.271   7.283  1.00 82.67    -0.099 NA
ENDROOT
BRANCH  10  12
HETATM   12  N14   D T9001       0.959  -1.421   7.743  1.00 86.44    -0.227 NA
BRANCH  12  13
HETATM   13  C15   D T9001       0.700  -2.351   8.789  1.00 87.38     0.084 A 
HETATM   14  C16   D T9001      -0.468  -3.181   8.782  1.00 88.13     0.033 A 
HETATM   15  C17   D T9001      -0.723  -4.098   9.828  1.00 88.88     0.087 A 
HETATM   16  C18   D T9001       0.195  -4.195  10.908  1.00 88.55     0.151 A 
HETATM   17 CL     D T9001      -2.153  -5.071   9.767  1.00 89.26    -0.080 Cl
HETATM   18  C19   D T9001       1.365  -3.386  10.943  1.00 87.62     0.032 A 
HETATM   19  F21   D T9001      -0.034  -5.058  11.912  1.00 88.92    -0.203 F 
HETATM   20  C20   D T9001       1.617  -2.464   9.888  1.00 87.82     0.021 A 
ENDBRANCH  12  13
ENDBRANCH  10  12
BRANCH   2  21
HETATM   21  O11   D T9001      -3.879   3.027   7.510  1.00 85.44    -0.327 OA
HETATM   22  C12   D T9001      -3.903   4.376   7.989  1.00 84.41     0.181 C 
ENDBRANCH   2  21
TORSDOF 3
ENDMDL
MODEL 7
REMARK VINA RESULT:    -6.826      4.554      7.494
REMARK INTER + INTRA:          -8.595
REMARK INTER:                  -8.000
REMARK INTRA:                  -0.595
REMARK UNBOUND:                -0.572
REMARK  3 active torsions:
REMARK  status: ('A' for Active; 'I' for Inactive)
REMARK    1  A    between atoms: C2_2  and  O11_20 
REMARK    2  A    between atoms: C10_10  and  N14_11 
REMARK    3  A    between atoms: N14_11  and  C15_12 
ROOT
HETATM    1  C1    D T9001       0.337  -1.839   9.075  1.00 83.47     0.092 A 
HETATM    2  C2    D T9001      -0.639  -2.448   9.931  1.00 83.68     0.109 A 
HETATM    3  C3    D T9001      -2.037  -2.272   9.660  1.00 82.47     0.044 A 
HETATM    4  C4    D T9001      -2.501  -1.516   8.576  1.00 82.50     0.088 A 
HETATM    5  C5    D T9001      -1.535  -0.890   7.701  1.00 84.12     0.055 A 
HETATM    6  C6    D T9001      -0.122  -1.065   7.970  1.00 83.53     0.021 A 
HETATM    7  N7    D T9001      -3.845  -1.407   8.397  1.00 81.78    -0.224 NA
HETATM    8  C8    D T9001      -4.273  -0.674   7.338  1.00 83.59     0.200 A 
HETATM    9  N9    D T9001      -3.481  -0.037   6.444  1.00 84.30    -0.205 NA
HETATM   10  C10   D T9001      -2.105  -0.137   6.614  1.00 85.59     0.166 A 
HETATM   11  N13   D T9001       1.724  -1.991   9.307  1.00 82.67    -0.099 NA
ENDROOT
BRANCH  10  12
HETATM   12  N14   D T9001      -1.232   0.530   5.682  1.00 86.44    -0.227 NA
BRANCH  12  13
HETATM   13  C15   D T9001      -0.724   1.855   5.794  1.00 87.38     0.084 A 
HETATM   14  C16   D T9001      -1.563   2.999   5.593  1.00 88.13     0.033 A 
HETATM   15  C17   D T9001      -1.050   4.312   5.699  1.00 88.88     0.087 A 
HETATM   16  C18   D T9001       0.323   4.501   6.007  1.00 88.55     0.151 A 
HETATM   17 CL     D T9001      -2.111   5.656   5.440  1.00 89.26    -0.080 Cl
HETATM   18  C19   D T9001       1.182   3.385   6.215  1.00 87.62     0.032 A 
HETATM   19  F21   D T9001       0.828   5.742   6.108  1.00 88.92    -0.203 F 
HETATM   20  C20   D T9001       0.661   2.065   6.107  1.00 87.82     0.021 A 
ENDBRANCH  12  13
ENDBRANCH  10  12
BRANCH   2  21
HETATM   21  O11   D T9001      -0.122  -3.191  10.990  1.00 85.44    -0.327 OA
HETATM   22  C12   D T9001      -0.163  -4.619  10.896  1.00 84.41     0.181 C 
ENDBRANCH   2  21
TORSDOF 3
ENDMDL
MODEL 8
REMARK VINA RESULT:    -6.783      4.220      6.788
REMARK INTER + INTRA:          -8.545
REMARK INTER:                  -7.953
REMARK INTRA:                  -0.592
REMARK UNBOUND:                -0.572
REMARK  3 active torsions:
REMARK  status: ('A' for Active; 'I' for Inactive)
REMARK    1  A    between atoms: C2_2  and  O11_20 
REMARK    2  A    between atoms: C10_10  and  N14_11 
REMARK    3  A    between atoms: N14_11  and  C15_12 
ROOT
HETATM    1  C1    D T9001      -3.143  -1.528   8.623  1.00 83.47     0.092 A 
HETATM    2  C2    D T9001      -2.541  -2.809   8.861  1.00 83.68     0.109 A 
HETATM    3  C3    D T9001      -1.148  -2.892   9.192  1.00 82.47     0.044 A 
HETATM    4  C4    D T9001      -0.332  -1.758   9.294  1.00 82.50     0.088 A 
HETATM    5  C5    D T9001      -0.916  -0.458   9.055  1.00 84.12     0.055 A 
HETATM    6  C6    D T9001      -2.323  -0.367   8.720  1.00 83.53     0.021 A 
HETATM    7  N7    D T9001       0.978  -1.936   9.614  1.00 81.78    -0.224 NA
HETATM    8  C8    D T9001       1.750  -0.824   9.713  1.00 83.59     0.200 A 
HETATM    9  N9    D T9001       1.334   0.448   9.515  1.00 84.30    -0.205 NA
HETATM   10  C10   D T9001      -0.002   0.647   9.185  1.00 85.59     0.166 A 
HETATM   11  N13   D T9001      -4.513  -1.403   8.297  1.00 82.67    -0.099 NA
ENDROOT
BRANCH  10  12
HETATM   12  N14   D T9001      -0.479   1.989   8.966  1.00 86.44    -0.227 NA
BRANCH  12  13
HETATM   13  C15   D T9001      -0.670   2.628   7.709  1.00 87.38     0.084 A 
HETATM   14  C16   D T9001      -1.675   3.633   7.525  1.00 88.13     0.033 A 
HETATM   15  C17   D T9001      -1.865   4.259   6.271  1.00 88.88     0.087 A 
HETATM   16  C18   D T9001      -1.045   3.883   5.174  1.00 88.55     0.151 A 
HETATM   17 CL     D T9001      -3.098   5.463   6.107  1.00 89.26    -0.080 Cl
HETATM   18  C19   D T9001      -0.036   2.890   5.325  1.00 87.62     0.032 A 
HETATM   19  F21   D T9001      -1.214   4.466   3.975  1.00 88.92    -0.203 F 
HETATM   20  C20   D T9001       0.150   2.262   6.589  1.00 87.82     0.021 A 
ENDBRANCH  12  13
ENDBRANCH  10  12
BRANCH   2  21
HETATM   21  O11   D T9001      -3.399  -3.899   8.750  1.00 85.44    -0.327 OA
HETATM   22  C12   D T9001      -3.023  -5.122   9.393  1.00 84.41     0.181 C 
ENDBRANCH   2  21
TORSDOF 3
ENDMDL
MODEL 9
REMARK VINA RESULT:    -6.454      4.062      5.649
REMARK INTER + INTRA:          -8.158
REMARK INTER:                  -7.592
REMARK INTRA:                  -0.566
REMARK UNBOUND:                -0.572
REMARK  3 active torsions:
REMARK  status: ('A' for Active; 'I' for Inactive)
REMARK    1  A    between atoms: C2_2  and  O11_20 
REMARK    2  A    between atoms: C10_10  and  N14_11 
REMARK    3  A    between atoms: N14_11  and  C15_12 
ROOT
HETATM    1  C1    D T9001      -0.027   0.487   6.999  1.00 83.47     0.092 A 
HETATM    2  C2    D T9001      -1.327   1.090   6.947  1.00 83.68     0.109 A 
HETATM    3  C3    D T9001      -2.461   0.390   7.479  1.00 82.47     0.044 A 
HETATM    4  C4    D T9001      -2.353  -0.881   8.058  1.00 82.50     0.088 A 
HETATM    5  C5    D T9001      -1.053  -1.509   8.118  1.00 84.12     0.055 A 
HETATM    6  C6    D T9001       0.096  -0.806   7.583  1.00 83.53     0.021 A 
HETATM    7  N7    D T9001      -3.484  -1.466   8.537  1.00 81.78    -0.224 NA
HETATM    8  C8    D T9001      -3.356  -2.696   9.099  1.00 83.59     0.200 A 
HETATM    9  N9    D T9001      -2.204  -3.395   9.220  1.00 84.30    -0.205 NA
HETATM   10  C10   D T9001      -1.040  -2.812   8.732  1.00 85.59     0.166 A 
HETATM   11  N13   D T9001       1.116   1.145   6.488  1.00 82.67    -0.099 NA
ENDROOT
BRANCH  10  12
HETATM   12  N14   D T9001       0.204  -3.529   8.844  1.00 86.44    -0.227 NA
BRANCH  12  13
HETATM   13  C15   D T9001       1.131  -3.459   9.921  1.00 87.38     0.084 A 
HETATM   14  C16   D T9001       0.944  -4.221  11.121  1.00 88.13     0.033 A 
HETATM   15  C17   D T9001       1.866  -4.143  12.191  1.00 88.88     0.087 A 
HETATM   16  C18   D T9001       2.996  -3.290  12.075  1.00 88.55     0.151 A 
HETATM   17 CL     D T9001       1.585  -5.082  13.617  1.00 89.26    -0.080 Cl
HETATM   18  C19   D T9001       3.211  -2.523  10.895  1.00 87.62     0.032 A 
HETATM   19  F21   D T9001       3.880  -3.201  13.084  1.00 88.92    -0.203 F 
HETATM   20  C20   D T9001       2.281  -2.605   9.821  1.00 87.82     0.021 A 
ENDBRANCH  12  13
ENDBRANCH  10  12
BRANCH   2  21
HETATM   21  O11   D T9001      -1.374   2.354   6.365  1.00 85.44    -0.327 OA
HETATM   22  C12   D T9001      -1.908   3.434   7.140  1.00 84.41     0.181 C 
ENDBRANCH   2  21
TORSDOF 3
ENDMDL
