MODEL 1
REMARK VINA RESULT:    -8.196      0.000      0.000
REMARK INTER + INTRA:         -10.008
REMARK INTER:                  -9.633
REMARK INTRA:                  -0.375
REMARK UNBOUND:                -0.375
REMARK  3 active torsions:
REMARK  status: ('A' for Active; 'I' for Inactive)
REMARK    1  A    between atoms: C2_2  and  O11_20 
REMARK    2  A    between atoms: C10_10  and  N14_11 
REMARK    3  A    between atoms: N14_11  and  C15_12 
ROOT
HETATM    1  C1    D T9001      -3.294   0.208  -9.725  1.00 83.47     0.092 A 
HETATM    2  C2    D T9001      -2.909  -1.006  -9.066  1.00 83.68     0.109 A 
HETATM    3  C3    D T9001      -3.867  -1.721  -8.271  1.00 82.47     0.044 A 
HETATM    4  C4    D T9001      -5.186  -1.276  -8.106  1.00 82.50     0.088 A 
HETATM    5  C5    D T9001      -5.593  -0.053  -8.759  1.00 84.12     0.055 A 
HETATM    6  C6    D T9001      -4.630   0.673  -9.563  1.00 83.53     0.021 A 
HETATM    7  N7    D T9001      -6.023  -2.022  -7.336  1.00 81.78    -0.224 NA
HETATM    8  C8    D T9001      -7.297  -1.576  -7.193  1.00 83.59     0.200 A 
HETATM    9  N9    D T9001      -7.810  -0.450  -7.746  1.00 84.30    -0.205 NA
HETATM   10  C10   D T9001      -6.964   0.323  -8.535  1.00 85.59     0.166 A 
HETATM   11  N13   D T9001      -2.380   0.941 -10.519  1.00 82.67    -0.099 NA
ENDROOT
BRANCH  10  12
HETATM   12  N14   D T9001      -7.476   1.528  -9.137  1.00 86.44    -0.227 NA
BRANCH  12  13
HETATM   13  C15   D T9001      -8.622   2.263  -8.723  1.00 87.38     0.084 A 
HETATM   14  C16   D T9001      -8.511   3.403  -7.862  1.00 88.13     0.033 A 
HETATM   15  C17   D T9001      -9.654   4.124  -7.448  1.00 88.88     0.087 A 
HETATM   16  C18   D T9001     -10.937   3.711  -7.894  1.00 88.55     0.151 A 
HETATM   17 CL     D T9001      -9.458   5.489  -6.403  1.00 89.26    -0.080 Cl
HETATM   18  C19   D T9001     -11.082   2.585  -8.753  1.00 87.62     0.032 A 
HETATM   19  F21   D T9001     -12.035   4.384  -7.509  1.00 88.92    -0.203 F 
HETATM   20  C20   D T9001      -9.928   1.861  -9.166  1.00 87.82     0.021 A 
ENDBRANCH  12  13
ENDBRANCH  10  12
BRANCH   2  21
HETATM   21  O11   D T9001      -1.590  -1.402  -9.269  1.00 85.44    -0.327 OA
HETATM   22  C12   D T9001      -1.328  -2.796  -9.470  1.00 84.41     0.181 C 
ENDBRANCH   2  21
TORSDOF 3
ENDMDL
MODEL 2
REMARK VINA RESULT:    -8.128      1.720      2.042
REMARK INTER + INTRA:          -9.928
REMARK INTER:                  -9.425
REMARK INTRA:                  -0.503
REMARK UNBOUND:                -0.375
REMARK  3 active torsions:
REMARK  status: ('A' for Active; 'I' for Inactive)
REMARK    1  A    between atoms: C2_2  and  O11_20 
REMARK    2  A    between atoms: C10_10  and  N14_11 
REMARK    3  A    between atoms: N14_11  and  C15_12 
ROOT
HETATM    1  C1    D T9001      -3.315   0.154  -9.741  1.00 83.47     0.092 A 
HETATM    2  C2    D T9001      -2.929  -1.042  -9.050  1.00 83.68     0.109 A 
HETATM    3  C3    D T9001      -3.889  -1.744  -8.247  1.00 82.47     0.044 A 
HETATM    4  C4    D T9001      -5.212  -1.304  -8.104  1.00 82.50     0.088 A 
HETATM    5  C5    D T9001      -5.621  -0.100  -8.790  1.00 84.12     0.055 A 
HETATM    6  C6    D T9001      -4.656   0.613  -9.602  1.00 83.53     0.021 A 
HETATM    7  N7    D T9001      -6.051  -2.037  -7.324  1.00 81.78    -0.224 NA
HETATM    8  C8    D T9001      -7.329  -1.596  -7.203  1.00 83.59     0.200 A 
HETATM    9  N9    D T9001      -7.844  -0.488  -7.787  1.00 84.30    -0.205 NA
HETATM   10  C10   D T9001      -6.997   0.273  -8.586  1.00 85.59     0.166 A 
HETATM   11  N13   D T9001      -2.399   0.873 -10.545  1.00 82.67    -0.099 NA
ENDROOT
BRANCH  10  12
HETATM   12  N14   D T9001      -7.511   1.459  -9.222  1.00 86.44    -0.227 NA
BRANCH  12  13
HETATM   13  C15   D T9001      -7.541   2.771  -8.672  1.00 87.38     0.084 A 
HETATM   14  C16   D T9001      -6.342   3.439  -8.261  1.00 88.13     0.033 A 
HETATM   15  C17   D T9001      -6.380   4.741  -7.709  1.00 88.88     0.087 A 
HETATM   16  C18   D T9001      -7.630   5.397  -7.559  1.00 88.55     0.151 A 
HETATM   17 CL     D T9001      -4.899   5.495  -7.226  1.00 89.26    -0.080 Cl
HETATM   18  C19   D T9001      -8.839   4.762  -7.960  1.00 87.62     0.032 A 
HETATM   19  F21   D T9001      -7.684   6.633  -7.033  1.00 88.92    -0.203 F 
HETATM   20  C20   D T9001      -8.796   3.452  -8.514  1.00 87.82     0.021 A 
ENDBRANCH  12  13
ENDBRANCH  10  12
BRANCH   2  21
HETATM   21  O11   D T9001      -1.605  -1.434  -9.232  1.00 85.44    -0.327 OA
HETATM   22  C12   D T9001      -1.330  -2.833  -9.373  1.00 84.41     0.181 C 
ENDBRANCH   2  21
TORSDOF 3
ENDMDL
MODEL 3
REMARK VINA RESULT:    -8.025      4.678      7.316
REMARK INTER + INTRA:          -9.807
REMARK INTER:                  -9.267
REMARK INTRA:                  -0.540
REMARK UNBOUND:                -0.375
REMARK  3 active torsions:
REMARK  status: ('A' for Active; 'I' for Inactive)
REMARK    1  A    between atoms: C2_2  and  O11_20 
REMARK    2  A    between atoms: C10_10  and  N14_11 
REMARK    3  A    between atoms: N14_11  and  C15_12 
ROOT
HETATM    1  C1    D T9001      -6.444   3.219  -8.366  1.00 83.47     0.092 A 
HETATM    2  C2    D T9001      -7.864   3.387  -8.476  1.00 83.68     0.109 A 
HETATM    3  C3    D T9001      -8.726   2.243  -8.390  1.00 82.47     0.044 A 
HETATM    4  C4    D T9001      -8.234   0.945  -8.201  1.00 82.50     0.088 A 
HETATM    5  C5    D T9001      -6.806   0.753  -8.090  1.00 84.12     0.055 A 
HETATM    6  C6    D T9001      -5.930   1.904  -8.176  1.00 83.53     0.021 A 
HETATM    7  N7    D T9001      -9.129  -0.077  -8.130  1.00 81.78    -0.224 NA
HETATM    8  C8    D T9001      -8.632  -1.325  -7.941  1.00 83.59     0.200 A 
HETATM    9  N9    D T9001      -7.321  -1.648  -7.823  1.00 84.30    -0.205 NA
HETATM   10  C10   D T9001      -6.394  -0.612  -7.896  1.00 85.59     0.166 A 
HETATM   11  N13   D T9001      -5.560   4.321  -8.443  1.00 82.67    -0.099 NA
ENDROOT
BRANCH  10  12
HETATM   12  N14   D T9001      -4.991  -0.919  -7.775  1.00 86.44    -0.227 NA
BRANCH  12  13
HETATM   13  C15   D T9001      -4.144  -1.430  -8.797  1.00 87.38     0.084 A 
HETATM   14  C16   D T9001      -2.800  -1.843  -8.520  1.00 88.13     0.033 A 
HETATM   15  C17   D T9001      -1.961  -2.344  -9.542  1.00 88.88     0.087 A 
HETATM   16  C18   D T9001      -2.459  -2.439 -10.868  1.00 88.55     0.151 A 
HETATM   17 CL     D T9001      -0.345  -2.821  -9.148  1.00 89.26    -0.080 Cl
HETATM   18  C19   D T9001      -3.791  -2.041 -11.176  1.00 87.62     0.032 A 
HETATM   19  F21   D T9001      -1.674  -2.910 -11.852  1.00 88.92    -0.203 F 
HETATM   20  C20   D T9001      -4.631  -1.536 -10.144  1.00 87.82     0.021 A 
ENDBRANCH  12  13
ENDBRANCH  10  12
BRANCH   2  21
HETATM   21  O11   D T9001      -8.296   4.698  -8.657  1.00 85.44    -0.327 OA
HETATM   22  C12   D T9001      -9.705   4.952  -8.631  1.00 84.41     0.181 C 
ENDBRANCH   2  21
TORSDOF 3
ENDMDL
MODEL 4
REMARK VINA RESULT:    -7.971      4.862      7.934
REMARK INTER + INTRA:          -9.744
REMARK INTER:                  -9.228
REMARK INTRA:                  -0.516
REMARK UNBOUND:                -0.375
REMARK  3 active torsions:
REMARK  status: ('A' for Active; 'I' for Inactive)
REMARK    1  A    between atoms: C2_2  and  O11_20 
REMARK    2  A    between atoms: C10_10  and  N14_11 
REMARK    3  A    between atoms: N14_11  and  C15_12 
ROOT
HETATM    1  C1    D T9001      -8.830   1.045  -7.882  1.00 83.47     0.092 A 
HETATM    2  C2    D T9001      -8.890   2.337  -7.263  1.00 83.68     0.109 A 
HETATM    3  C3    D T9001      -7.783   3.241  -7.389  1.00 82.47     0.044 A 
HETATM    4  C4    D T9001      -6.623   2.911  -8.102  1.00 82.50     0.088 A 
HETATM    5  C5    D T9001      -6.540   1.613  -8.731  1.00 84.12     0.055 A 
HETATM    6  C6    D T9001      -7.656   0.696  -8.608  1.00 83.53     0.021 A 
HETATM    7  N7    D T9001      -5.626   3.834  -8.169  1.00 81.78    -0.224 NA
HETATM    8  C8    D T9001      -4.513   3.496  -8.869  1.00 83.59     0.200 A 
HETATM    9  N9    D T9001      -4.303   2.318  -9.505  1.00 84.30    -0.205 NA
HETATM   10  C10   D T9001      -5.314   1.364  -9.443  1.00 85.59     0.166 A 
HETATM   11  N13   D T9001      -9.902   0.126  -7.783  1.00 82.67    -0.099 NA
ENDROOT
BRANCH  10  12
HETATM   12  N14   D T9001      -5.124   0.099 -10.106  1.00 86.44    -0.227 NA
BRANCH  12  13
HETATM   13  C15   D T9001      -4.078  -0.835  -9.868  1.00 87.38     0.084 A 
HETATM   14  C16   D T9001      -3.397  -1.491 -10.945  1.00 88.13     0.033 A 
HETATM   15  C17   D T9001      -2.363  -2.424 -10.699  1.00 88.88     0.087 A 
HETATM   16  C18   D T9001      -1.994  -2.718  -9.360  1.00 88.55     0.151 A 
HETATM   17 CL     D T9001      -1.581  -3.188 -12.040  1.00 89.26    -0.080 Cl
HETATM   18  C19   D T9001      -2.648  -2.081  -8.267  1.00 87.62     0.032 A 
HETATM   19  F21   D T9001      -1.015  -3.604  -9.109  1.00 88.92    -0.203 F 
HETATM   20  C20   D T9001      -3.688  -1.143  -8.519  1.00 87.82     0.021 A 
ENDBRANCH  12  13
ENDBRANCH  10  12
BRANCH   2  21
HETATM   21  O11   D T9001     -10.068   2.612  -6.572  1.00 85.44    -0.327 OA
HETATM   22  C12   D T9001     -10.463   3.982  -6.434  1.00 84.41     0.181 C 
ENDBRANCH   2  21
TORSDOF 3
ENDMDL
MODEL 5
REMARK VINA RESULT:    -7.756      4.523      7.790
REMARK INTER + INTRA:          -9.492
REMARK INTER:                  -8.940
REMARK INTRA:                  -0.551
REMARK UNBOUND:                -0.375
REMARK  3 active torsions:
REMARK  status: ('A' for Active; 'I' for Inactive)
REMARK    1  A    between atoms: C2_2  and  O11_20 
REMARK    2  A    between atoms: C10_10  and  N14_11 
REMARK    3  A    between atoms: N14_11  and  C15_12 
ROOT
HETATM    1  C1    D T9001     -10.991   2.900  -7.551  1.00 83.47     0.092 A 
HETATM    2  C2    D T9001     -11.218   4.135  -8.244  1.00 83.68     0.109 A 
HETATM    3  C3    D T9001     -10.106   4.971  -8.594  1.00 82.47     0.044 A 
HETATM    4  C4    D T9001      -8.783   4.630  -8.282  1.00 82.50     0.088 A 
HETATM    5  C5    D T9001      -8.532   3.391  -7.581  1.00 84.12     0.055 A 
HETATM    6  C6    D T9001      -9.652   2.542  -7.225  1.00 83.53     0.021 A 
HETATM    7  N7    D T9001      -7.794   5.485  -8.656  1.00 81.78    -0.224 NA
HETATM    8  C8    D T9001      -6.520   5.133  -8.349  1.00 83.59     0.200 A 
HETATM    9  N9    D T9001      -6.143   4.006  -7.697  1.00 84.30    -0.205 NA
HETATM   10  C10   D T9001      -7.145   3.123  -7.306  1.00 85.59     0.166 A 
HETATM   11  N13   D T9001     -12.060   2.046  -7.191  1.00 82.67    -0.099 NA
ENDROOT
BRANCH  10  12
HETATM   12  N14   D T9001      -6.781   1.916  -6.610  1.00 86.44    -0.227 NA
BRANCH  12  13
HETATM   13  C15   D T9001      -6.389   0.682  -7.199  1.00 87.38     0.084 A 
HETATM   14  C16   D T9001      -5.719   0.634  -8.465  1.00 88.13     0.033 A 
HETATM   15  C17   D T9001      -5.339  -0.597  -9.048  1.00 88.88     0.087 A 
HETATM   16  C18   D T9001      -5.627  -1.809  -8.366  1.00 88.55     0.151 A 
HETATM   17 CL     D T9001      -4.537  -0.592 -10.582  1.00 89.26    -0.080 Cl
HETATM   18  C19   D T9001      -6.288  -1.796  -7.106  1.00 87.62     0.032 A 
HETATM   19  F21   D T9001      -5.275  -2.987  -8.908  1.00 88.92    -0.203 F 
HETATM   20  C20   D T9001      -6.670  -0.555  -6.524  1.00 87.82     0.021 A 
ENDBRANCH  12  13
ENDBRANCH  10  12
BRANCH   2  21
HETATM   21  O11   D T9001     -12.550   4.419  -8.532  1.00 85.44    -0.327 OA
HETATM   22  C12   D T9001     -12.842   5.114  -9.750  1.00 84.41     0.181 C 
ENDBRANCH   2  21
TORSDOF 3
ENDMDL
MODEL 6
REMARK VINA RESULT:    -7.648      4.533      6.907
REMARK INTER + INTRA:          -9.364
REMARK INTER:                  -8.787
REMARK INTRA:                  -0.577
REMARK UNBOUND:                -0.375
REMARK  3 active torsions:
REMARK  status: ('A' for Active; 'I' for Inactive)
REMARK    1  A    between atoms: C2_2  and  O11_20 
REMARK    2  A    between atoms: C10_10  and  N14_11 
REMARK    3  A    between atoms: N14_11  and  C15_12 
ROOT
HETATM    1  C1    D T9001      -4.867   5.473  -7.615  1.00 83.47     0.092 A 
HETATM    2  C2    D T9001      -5.631   6.472  -8.304  1.00 83.68     0.109 A 
HETATM    3  C3    D T9001      -6.996   6.206  -8.661  1.00 82.47     0.044 A 
HETATM    4  C4    D T9001      -7.626   4.991  -8.361  1.00 82.50     0.088 A 
HETATM    5  C5    D T9001      -6.873   3.970  -7.669  1.00 84.12     0.055 A 
HETATM    6  C6    D T9001      -5.495   4.233  -7.307  1.00 83.53     0.021 A 
HETATM    7  N7    D T9001      -8.924   4.831  -8.737  1.00 81.78    -0.224 NA
HETATM    8  C8    D T9001      -9.517   3.649  -8.433  1.00 83.59     0.200 A 
HETATM    9  N9    D T9001      -8.930   2.609  -7.791  1.00 84.30    -0.205 NA
HETATM   10  C10   D T9001      -7.603   2.758  -7.402  1.00 85.59     0.166 A 
HETATM   11  N13   D T9001      -3.520   5.698  -7.244  1.00 82.67    -0.099 NA
ENDROOT
BRANCH  10  12
HETATM   12  N14   D T9001      -6.948   1.672  -6.719  1.00 86.44    -0.227 NA
BRANCH  12  13
HETATM   13  C15   D T9001      -6.403   0.501  -7.315  1.00 87.38     0.084 A 
HETATM   14  C16   D T9001      -5.739   0.543  -8.584  1.00 88.13     0.033 A 
HETATM   15  C17   D T9001      -5.206  -0.626  -9.173  1.00 88.88     0.087 A 
HETATM   16  C18   D T9001      -5.332  -1.867  -8.495  1.00 88.55     0.151 A 
HETATM   17 CL     D T9001      -4.420  -0.513 -10.711  1.00 89.26    -0.080 Cl
HETATM   18  C19   D T9001      -5.982  -1.944  -7.231  1.00 87.62     0.032 A 
HETATM   19  F21   D T9001      -4.833  -2.989  -9.042  1.00 88.92    -0.203 F 
HETATM   20  C20   D T9001      -6.518  -0.764  -6.642  1.00 87.82     0.021 A 
ENDBRANCH  12  13
ENDBRANCH  10  12
BRANCH   2  21
HETATM   21  O11   D T9001      -4.956   7.660  -8.571  1.00 85.44    -0.327 OA
HETATM   22  C12   D T9001      -5.733   8.816  -8.904  1.00 84.41     0.181 C 
ENDBRANCH   2  21
TORSDOF 3
ENDMDL
MODEL 7
REMARK VINA RESULT:    -7.643      1.771      3.005
REMARK INTER + INTRA:          -9.359
REMARK INTER:                  -8.821
REMARK INTRA:                  -0.538
REMARK UNBOUND:                -0.375
REMARK  3 active torsions:
REMARK  status: ('A' for Active; 'I' for Inactive)
REMARK    1  A    between atoms: C2_2  and  O11_20 
REMARK    2  A    between atoms: C10_10  and  N14_11 
REMARK    3  A    between atoms: N14_11  and  C15_12 
ROOT
HETATM    1  C1    D T9001      -4.957  -1.264  -9.142  1.00 83.47     0.092 A 
HETATM    2  C2    D T9001      -3.721  -0.982  -9.814  1.00 83.68     0.109 A 
HETATM    3  C3    D T9001      -3.301   0.378  -9.995  1.00 82.47     0.044 A 
HETATM    4  C4    D T9001      -4.059   1.464  -9.536  1.00 82.50     0.088 A 
HETATM    5  C5    D T9001      -5.309   1.203  -8.858  1.00 84.12     0.055 A 
HETATM    6  C6    D T9001      -5.738  -0.169  -8.673  1.00 83.53     0.021 A 
HETATM    7  N7    D T9001      -3.579   2.719  -9.751  1.00 81.78    -0.224 NA
HETATM    8  C8    D T9001      -4.326   3.756  -9.294  1.00 83.59     0.200 A 
HETATM    9  N9    D T9001      -5.511   3.655  -8.646  1.00 84.30    -0.205 NA
HETATM   10  C10   D T9001      -6.016   2.378  -8.421  1.00 85.59     0.166 A 
HETATM   11  N13   D T9001      -5.404  -2.591  -8.942  1.00 82.67    -0.099 NA
ENDROOT
BRANCH  10  12
HETATM   12  N14   D T9001      -7.275   2.234  -7.736  1.00 86.44    -0.227 NA
BRANCH  12  13
HETATM   13  C15   D T9001      -8.570   2.275  -8.324  1.00 87.38     0.084 A 
HETATM   14  C16   D T9001      -9.381   3.455  -8.270  1.00 88.13     0.033 A 
HETATM   15  C17   D T9001     -10.670   3.486  -8.851  1.00 88.88     0.087 A 
HETATM   16  C18   D T9001     -11.171   2.326  -9.498  1.00 88.55     0.151 A 
HETATM   17 CL     D T9001     -11.605   4.939  -8.749  1.00 89.26    -0.080 Cl
HETATM   18  C19   D T9001     -10.389   1.139  -9.572  1.00 87.62     0.032 A 
HETATM   19  F21   D T9001     -12.395   2.338 -10.053  1.00 88.92    -0.203 F 
HETATM   20  C20   D T9001      -9.093   1.111  -8.986  1.00 87.82     0.021 A 
ENDBRANCH  12  13
ENDBRANCH  10  12
BRANCH   2  21
HETATM   21  O11   D T9001      -3.009  -2.099 -10.243  1.00 85.44    -0.327 OA
HETATM   22  C12   D T9001      -1.858  -2.495  -9.487  1.00 84.41     0.181 C 
ENDBRANCH   2  21
TORSDOF 3
ENDMDL
MODEL 8
REMARK VINA RESULT:    -7.291      1.863      3.129
REMARK INTER + INTRA:          -8.945
REMARK INTER:                  -8.514
REMARK INTRA:                  -0.430
REMARK UNBOUND:                -0.375
REMARK  3 active torsions:
REMARK  status: ('A' for Active; 'I' for Inactive)
REMARK    1  A    between atoms: C2_2  and  O11_20 
REMARK    2  A    between atoms: C10_10  and  N14_11 
REMARK    3  A    between atoms: N14_11  and  C15_12 
ROOT
HETATM    1  C1    D T9001      -4.021  -1.470  -9.866  1.00 83.47     0.092 A 
HETATM    2  C2    D T9001      -2.700  -1.047 -10.229  1.00 83.68     0.109 A 
HETATM    3  C3    D T9001      -2.360   0.347 -10.188  1.00 82.47     0.044 A 
HETATM    4  C4    D T9001      -3.280   1.332  -9.803  1.00 82.50     0.088 A 
HETATM    5  C5    D T9001      -4.618   0.927  -9.436  1.00 84.12     0.055 A 
HETATM    6  C6    D T9001      -4.966  -0.479  -9.475  1.00 83.53     0.021 A 
HETATM    7  N7    D T9001      -2.866   2.627  -9.793  1.00 81.78    -0.224 NA
HETATM    8  C8    D T9001      -3.771   3.565  -9.412  1.00 83.59     0.200 A 
HETATM    9  N9    D T9001      -5.053   3.326  -9.045  1.00 84.30    -0.205 NA
HETATM   10  C10   D T9001      -5.490   2.006  -9.053  1.00 85.59     0.166 A 
HETATM   11  N13   D T9001      -4.394  -2.835  -9.890  1.00 82.67    -0.099 NA
ENDROOT
BRANCH  10  12
HETATM   12  N14   D T9001      -6.849   1.716  -8.669  1.00 86.44    -0.227 NA
BRANCH  12  13
HETATM   13  C15   D T9001      -7.725   2.569  -7.943  1.00 87.38     0.084 A 
HETATM   14  C16   D T9001      -8.766   3.307  -8.597  1.00 88.13     0.033 A 
HETATM   15  C17   D T9001      -9.630   4.158  -7.870  1.00 88.88     0.087 A 
HETATM   16  C18   D T9001      -9.462   4.286  -6.466  1.00 88.55     0.151 A 
HETATM   17 CL     D T9001     -10.865   5.027  -8.715  1.00 89.26    -0.080 Cl
HETATM   18  C19   D T9001      -8.440   3.565  -5.786  1.00 87.62     0.032 A 
HETATM   19  F21   D T9001     -10.272   5.094  -5.760  1.00 88.92    -0.203 F 
HETATM   20  C20   D T9001      -7.573   2.710  -6.522  1.00 87.82     0.021 A 
ENDBRANCH  12  13
ENDBRANCH  10  12
BRANCH   2  21
HETATM   21  O11   D T9001      -1.828  -2.068 -10.598  1.00 85.44    -0.327 OA
HETATM   22  C12   D T9001      -0.820  -2.465  -9.660  1.00 84.41     0.181 C 
ENDBRANCH   2  21
TORSDOF 3
ENDMDL
MODEL 9
REMARK VINA RESULT:    -7.245      2.016      3.456
REMARK INTER + INTRA:          -8.890
REMARK INTER:                  -8.330
REMARK INTRA:                  -0.560
REMARK UNBOUND:                -0.375
REMARK  3 active torsions:
REMARK  status: ('A' for Active; 'I' for Inactive)
REMARK    1  A    between atoms: C2_2  and  O11_20 
REMARK    2  A    between atoms: C10_10  and  N14_11 
REMARK    3  A    between atoms: N14_11  and  C15_12 
ROOT
HETATM    1  C1    D T9001      -6.578  -0.578  -7.867  1.00 83.47     0.092 A 
HETATM    2  C2    D T9001      -5.494  -0.773  -8.786  1.00 83.68     0.109 A 
HETATM    3  C3    D T9001      -4.775   0.361  -9.292  1.00 82.47     0.044 A 
HETATM    4  C4    D T9001      -5.090   1.676  -8.923  1.00 82.50     0.088 A 
HETATM    5  C5    D T9001      -6.181   1.895  -8.001  1.00 84.12     0.055 A 
HETATM    6  C6    D T9001      -6.911   0.754  -7.486  1.00 83.53     0.021 A 
HETATM    7  N7    D T9001      -4.351   2.686  -9.454  1.00 81.78    -0.224 NA
HETATM    8  C8    D T9001      -4.670   3.951  -9.080  1.00 83.59     0.200 A 
HETATM    9  N9    D T9001      -5.664   4.299  -8.227  1.00 84.30    -0.205 NA
HETATM   10  C10   D T9001      -6.430   3.276  -7.679  1.00 85.59     0.166 A 
HETATM   11  N13   D T9001      -7.310  -1.669  -7.343  1.00 82.67    -0.099 NA
ENDROOT
BRANCH  10  12
HETATM   12  N14   D T9001      -7.497   3.610  -6.769  1.00 86.44    -0.227 NA
BRANCH  12  13
HETATM   13  C15   D T9001      -8.797   4.070  -7.119  1.00 87.38     0.084 A 
HETATM   14  C16   D T9001      -9.537   4.948  -6.263  1.00 88.13     0.033 A 
HETATM   15  C17   D T9001     -10.832   5.396  -6.614  1.00 88.88     0.087 A 
HETATM   16  C18   D T9001     -11.409   4.965  -7.837  1.00 88.55     0.151 A 
HETATM   17 CL     D T9001     -11.680   6.452  -5.537  1.00 89.26    -0.080 Cl
HETATM   18  C19   D T9001     -10.699   4.095  -8.712  1.00 87.62     0.032 A 
HETATM   19  F21   D T9001     -12.640   5.379  -8.185  1.00 88.92    -0.203 F 
HETATM   20  C20   D T9001      -9.397   3.647  -8.354  1.00 87.82     0.021 A 
ENDBRANCH  12  13
ENDBRANCH  10  12
BRANCH   2  21
HETATM   21  O11   D T9001      -5.222  -2.099  -9.112  1.00 85.44    -0.327 OA
HETATM   22  C12   D T9001      -3.851  -2.497  -9.226  1.00 84.41     0.181 C 
ENDBRANCH   2  21
TORSDOF 3
ENDMDL
