MODEL 1
REMARK VINA RESULT:    -8.037      0.000      0.000
REMARK INTER + INTRA:         -10.053
REMARK INTER:                  -9.446
REMARK INTRA:                  -0.607
REMARK UNBOUND:                -0.607
REMARK  3 active torsions:
REMARK  status: ('A' for Active; 'I' for Inactive)
REMARK    1  A    between atoms: C2_2  and  O11_20 
REMARK    2  A    between atoms: C10_10  and  N14_11 
REMARK    3  A    between atoms: N14_11  and  C15_12 
ROOT
HETATM    1  C1    D T9001       0.926  -5.854  -9.352  1.00 83.47     0.092 A 
HETATM    2  C2    D T9001      -0.084  -4.971  -8.846  1.00 83.68     0.109 A 
HETATM    3  C3    D T9001       0.233  -3.597  -8.587  1.00 82.47     0.044 A 
HETATM    4  C4    D T9001       1.511  -3.067  -8.811  1.00 82.50     0.088 A 
HETATM    5  C5    D T9001       2.545  -3.940  -9.318  1.00 84.12     0.055 A 
HETATM    6  C6    D T9001       2.231  -5.330  -9.581  1.00 83.53     0.021 A 
HETATM    7  N7    D T9001       1.717  -1.750  -8.538  1.00 81.78    -0.224 NA
HETATM    8  C8    D T9001       2.961  -1.257  -8.766  1.00 83.59     0.200 A 
HETATM    9  N9    D T9001       4.019  -1.959  -9.238  1.00 84.30    -0.205 NA
HETATM   10  C10   D T9001       3.823  -3.308  -9.519  1.00 85.59     0.166 A 
HETATM   11  N13   D T9001       0.653  -7.216  -9.622  1.00 82.67    -0.099 NA
ENDROOT
BRANCH  10  12
HETATM   12  N14   D T9001       4.927  -4.085 -10.020  1.00 86.44    -0.227 NA
BRANCH  12  13
HETATM   13  C15   D T9001       5.753  -4.968  -9.270  1.00 87.38     0.084 A 
HETATM   14  C16   D T9001       6.517  -4.508  -8.147  1.00 88.13     0.033 A 
HETATM   15  C17   D T9001       7.341  -5.389  -7.411  1.00 88.88     0.087 A 
HETATM   16  C18   D T9001       7.417  -6.755  -7.791  1.00 88.55     0.151 A 
HETATM   17 CL     D T9001       8.244  -4.775  -6.067  1.00 89.26    -0.080 Cl
HETATM   18  C19   D T9001       6.669  -7.244  -8.900  1.00 87.62     0.032 A 
HETATM   19  F21   D T9001       8.198  -7.606  -7.104  1.00 88.92    -0.203 F 
HETATM   20  C20   D T9001       5.842  -6.353  -9.639  1.00 87.82     0.021 A 
ENDBRANCH  12  13
ENDBRANCH  10  12
BRANCH   2  21
HETATM   21  O11   D T9001      -1.335  -5.550  -8.647  1.00 85.44    -0.327 OA
HETATM   22  C12   D T9001      -2.446  -5.024  -9.381  1.00 84.41     0.181 C 
ENDBRANCH   2  21
TORSDOF 3
ENDMDL
MODEL 2
REMARK VINA RESULT:    -7.951      1.534      1.992
REMARK INTER + INTRA:          -9.953
REMARK INTER:                  -9.365
REMARK INTRA:                  -0.588
REMARK UNBOUND:                -0.607
REMARK  3 active torsions:
REMARK  status: ('A' for Active; 'I' for Inactive)
REMARK    1  A    between atoms: C2_2  and  O11_20 
REMARK    2  A    between atoms: C10_10  and  N14_11 
REMARK    3  A    between atoms: N14_11  and  C15_12 
ROOT
HETATM    1  C1    D T9001       2.029  -6.204 -10.279  1.00 83.47     0.092 A 
HETATM    2  C2    D T9001       0.714  -5.642 -10.181  1.00 83.68     0.109 A 
HETATM    3  C3    D T9001       0.553  -4.235  -9.955  1.00 82.47     0.044 A 
HETATM    4  C4    D T9001       1.645  -3.367  -9.822  1.00 82.50     0.088 A 
HETATM    5  C5    D T9001       2.980  -3.913  -9.914  1.00 84.12     0.055 A 
HETATM    6  C6    D T9001       3.149  -5.334 -10.142  1.00 83.53     0.021 A 
HETATM    7  N7    D T9001       1.395  -2.047  -9.611  1.00 81.78    -0.224 NA
HETATM    8  C8    D T9001       2.467  -1.224  -9.490  1.00 83.59     0.200 A 
HETATM    9  N9    D T9001       3.767  -1.599  -9.556  1.00 84.30    -0.205 NA
HETATM   10  C10   D T9001       4.038  -2.947  -9.769  1.00 85.59     0.166 A 
HETATM   11  N13   D T9001       2.230  -7.586 -10.503  1.00 82.67    -0.099 NA
ENDROOT
BRANCH  10  12
HETATM   12  N14   D T9001       5.409  -3.382  -9.841  1.00 86.44    -0.227 NA
BRANCH  12  13
HETATM   13  C15   D T9001       6.198  -3.886  -8.770  1.00 87.38     0.084 A 
HETATM   14  C16   D T9001       6.475  -5.286  -8.637  1.00 88.13     0.033 A 
HETATM   15  C17   D T9001       7.254  -5.781  -7.567  1.00 88.88     0.087 A 
HETATM   16  C18   D T9001       7.771  -4.875  -6.603  1.00 88.55     0.151 A 
HETATM   17 CL     D T9001       7.551  -7.483  -7.455  1.00 89.26    -0.080 Cl
HETATM   18  C19   D T9001       7.516  -3.478  -6.708  1.00 87.62     0.032 A 
HETATM   19  F21   D T9001       8.511  -5.328  -5.578  1.00 88.92    -0.203 F 
HETATM   20  C20   D T9001       6.731  -2.984  -7.787  1.00 87.82     0.021 A 
ENDBRANCH  12  13
ENDBRANCH  10  12
BRANCH   2  21
HETATM   21  O11   D T9001      -0.333  -6.549 -10.325  1.00 85.44    -0.327 OA
HETATM   22  C12   D T9001      -1.139  -6.836  -9.176  1.00 84.41     0.181 C 
ENDBRANCH   2  21
TORSDOF 3
ENDMDL
MODEL 3
REMARK VINA RESULT:    -7.869      1.971      3.388
REMARK INTER + INTRA:          -9.856
REMARK INTER:                  -9.270
REMARK INTRA:                  -0.586
REMARK UNBOUND:                -0.607
REMARK  3 active torsions:
REMARK  status: ('A' for Active; 'I' for Inactive)
REMARK    1  A    between atoms: C2_2  and  O11_20 
REMARK    2  A    between atoms: C10_10  and  N14_11 
REMARK    3  A    between atoms: N14_11  and  C15_12 
ROOT
HETATM    1  C1    D T9001       2.492  -1.883 -10.107  1.00 83.47     0.092 A 
HETATM    2  C2    D T9001       1.099  -2.221 -10.126  1.00 83.68     0.109 A 
HETATM    3  C3    D T9001       0.698  -3.597 -10.077  1.00 82.47     0.044 A 
HETATM    4  C4    D T9001       1.624  -4.646 -10.011  1.00 82.50     0.088 A 
HETATM    5  C5    D T9001       3.034  -4.328  -9.994  1.00 84.12     0.055 A 
HETATM    6  C6    D T9001       3.445  -2.939 -10.042  1.00 83.53     0.021 A 
HETATM    7  N7    D T9001       1.149  -5.920  -9.967  1.00 81.78    -0.224 NA
HETATM    8  C8    D T9001       2.064  -6.921  -9.899  1.00 83.59     0.200 A 
HETATM    9  N9    D T9001       3.409  -6.766  -9.874  1.00 84.30    -0.205 NA
HETATM   10  C10   D T9001       3.909  -5.469  -9.921  1.00 85.59     0.166 A 
HETATM   11  N13   D T9001       2.929  -0.537 -10.150  1.00 82.67    -0.099 NA
ENDROOT
BRANCH  10  12
HETATM   12  N14   D T9001       5.335  -5.267  -9.901  1.00 86.44    -0.227 NA
BRANCH  12  13
HETATM   13  C15   D T9001       6.175  -5.261  -8.753  1.00 87.38     0.084 A 
HETATM   14  C16   D T9001       6.509  -4.043  -8.074  1.00 88.13     0.033 A 
HETATM   15  C17   D T9001       7.350  -4.043  -6.939  1.00 88.88     0.087 A 
HETATM   16  C18   D T9001       7.878  -5.273  -6.462  1.00 88.55     0.151 A 
HETATM   17 CL     D T9001       7.722  -2.541  -6.163  1.00 89.26    -0.080 Cl
HETATM   18  C19   D T9001       7.564  -6.500  -7.112  1.00 87.62     0.032 A 
HETATM   19  F21   D T9001       8.681  -5.291  -5.385  1.00 88.92    -0.203 F 
HETATM   20  C20   D T9001       6.717  -6.495  -8.255  1.00 87.82     0.021 A 
ENDBRANCH  12  13
ENDBRANCH  10  12
BRANCH   2  21
HETATM   21  O11   D T9001       0.224  -1.139 -10.188  1.00 85.44    -0.327 OA
HETATM   22  C12   D T9001      -0.495  -0.785  -9.002  1.00 84.41     0.181 C 
ENDBRANCH   2  21
TORSDOF 3
ENDMDL
MODEL 4
REMARK VINA RESULT:    -7.761      2.149      3.524
REMARK INTER + INTRA:          -9.729
REMARK INTER:                  -9.197
REMARK INTRA:                  -0.532
REMARK UNBOUND:                -0.607
REMARK  3 active torsions:
REMARK  status: ('A' for Active; 'I' for Inactive)
REMARK    1  A    between atoms: C2_2  and  O11_20 
REMARK    2  A    between atoms: C10_10  and  N14_11 
REMARK    3  A    between atoms: N14_11  and  C15_12 
ROOT
HETATM    1  C1    D T9001       1.822  -1.324  -9.917  1.00 83.47     0.092 A 
HETATM    2  C2    D T9001       0.513  -1.394  -9.338  1.00 83.68     0.109 A 
HETATM    3  C3    D T9001      -0.003  -2.653  -8.887  1.00 82.47     0.044 A 
HETATM    4  C4    D T9001       0.730  -3.844  -8.988  1.00 82.50     0.088 A 
HETATM    5  C5    D T9001       2.052  -3.797  -9.570  1.00 84.12     0.055 A 
HETATM    6  C6    D T9001       2.578  -2.527 -10.028  1.00 83.53     0.021 A 
HETATM    7  N7    D T9001       0.159  -4.990  -8.530  1.00 81.78    -0.224 NA
HETATM    8  C8    D T9001       0.889  -6.130  -8.634  1.00 83.59     0.200 A 
HETATM    9  N9    D T9001       2.135  -6.230  -9.155  1.00 84.30    -0.205 NA
HETATM   10  C10   D T9001       2.730  -5.066  -9.629  1.00 85.59     0.166 A 
HETATM   11  N13   D T9001       2.368  -0.101 -10.372  1.00 82.67    -0.099 NA
ENDROOT
BRANCH  10  12
HETATM   12  N14   D T9001       4.053  -5.136 -10.194  1.00 86.44    -0.227 NA
BRANCH  12  13
HETATM   13  C15   D T9001       5.283  -4.954  -9.502  1.00 87.38     0.084 A 
HETATM   14  C16   D T9001       5.926  -6.037  -8.817  1.00 88.13     0.033 A 
HETATM   15  C17   D T9001       7.144  -5.849  -8.126  1.00 88.88     0.087 A 
HETATM   16  C18   D T9001       7.741  -4.560  -8.106  1.00 88.55     0.151 A 
HETATM   17 CL     D T9001       7.871  -7.194  -7.315  1.00 89.26    -0.080 Cl
HETATM   18  C19   D T9001       7.129  -3.464  -8.777  1.00 87.62     0.032 A 
HETATM   19  F21   D T9001       8.898  -4.362  -7.451  1.00 88.92    -0.203 F 
HETATM   20  C20   D T9001       5.903  -3.659  -9.471  1.00 87.82     0.021 A 
ENDBRANCH  12  13
ENDBRANCH  10  12
BRANCH   2  21
HETATM   21  O11   D T9001      -0.168  -0.181  -9.260  1.00 85.44    -0.327 OA
HETATM   22  C12   D T9001      -1.592  -0.196  -9.413  1.00 84.41     0.181 C 
ENDBRANCH   2  21
TORSDOF 3
ENDMDL
MODEL 5
REMARK VINA RESULT:    -7.344      3.946      6.201
REMARK INTER + INTRA:          -9.239
REMARK INTER:                  -8.960
REMARK INTRA:                  -0.279
REMARK UNBOUND:                -0.607
REMARK  3 active torsions:
REMARK  status: ('A' for Active; 'I' for Inactive)
REMARK    1  A    between atoms: C2_2  and  O11_20 
REMARK    2  A    between atoms: C10_10  and  N14_11 
REMARK    3  A    between atoms: N14_11  and  C15_12 
ROOT
HETATM    1  C1    D T9001       4.515  -7.585  -9.081  1.00 83.47     0.092 A 
HETATM    2  C2    D T9001       5.408  -8.323  -8.235  1.00 83.68     0.109 A 
HETATM    3  C3    D T9001       6.588  -7.692  -7.720  1.00 82.47     0.044 A 
HETATM    4  C4    D T9001       6.916  -6.361  -8.012  1.00 82.50     0.088 A 
HETATM    5  C5    D T9001       6.031  -5.600  -8.866  1.00 84.12     0.055 A 
HETATM    6  C6    D T9001       4.837  -6.232  -9.389  1.00 83.53     0.021 A 
HETATM    7  N7    D T9001       8.055  -5.847  -7.476  1.00 81.78    -0.224 NA
HETATM    8  C8    D T9001       8.351  -4.555  -7.769  1.00 83.59     0.200 A 
HETATM    9  N9    D T9001       7.614  -3.730  -8.550  1.00 84.30    -0.205 NA
HETATM   10  C10   D T9001       6.447  -4.243  -9.107  1.00 85.59     0.166 A 
HETATM   11  N13   D T9001       3.339  -8.170  -9.607  1.00 82.67    -0.099 NA
ENDROOT
BRANCH  10  12
HETATM   12  N14   D T9001       5.640  -3.394  -9.946  1.00 86.44    -0.227 NA
BRANCH  12  13
HETATM   13  C15   D T9001       4.316  -2.948  -9.681  1.00 87.38     0.084 A 
HETATM   14  C16   D T9001       3.202  -3.396 -10.465  1.00 88.13     0.033 A 
HETATM   15  C17   D T9001       1.890  -2.944 -10.201  1.00 88.88     0.087 A 
HETATM   16  C18   D T9001       1.669  -2.026  -9.139  1.00 88.55     0.151 A 
HETATM   17 CL     D T9001       0.585  -3.516 -11.185  1.00 89.26    -0.080 Cl
HETATM   18  C19   D T9001       2.753  -1.564  -8.340  1.00 87.62     0.032 A 
HETATM   19  F21   D T9001       0.428  -1.584  -8.875  1.00 88.92    -0.203 F 
HETATM   20  C20   D T9001       4.073  -2.021  -8.611  1.00 87.82     0.021 A 
ENDBRANCH  12  13
ENDBRANCH  10  12
BRANCH   2  21
HETATM   21  O11   D T9001       5.031  -9.638  -7.975  1.00 85.44    -0.327 OA
HETATM   22  C12   D T9001       5.491 -10.660  -8.867  1.00 84.41     0.181 C 
ENDBRANCH   2  21
TORSDOF 3
ENDMDL
MODEL 6
REMARK VINA RESULT:    -7.077      4.066      7.142
REMARK INTER + INTRA:          -8.925
REMARK INTER:                  -8.375
REMARK INTRA:                  -0.550
REMARK UNBOUND:                -0.607
REMARK  3 active torsions:
REMARK  status: ('A' for Active; 'I' for Inactive)
REMARK    1  A    between atoms: C2_2  and  O11_20 
REMARK    2  A    between atoms: C10_10  and  N14_11 
REMARK    3  A    between atoms: N14_11  and  C15_12 
ROOT
HETATM    1  C1    D T9001       6.608  -4.549  -8.850  1.00 83.47     0.092 A 
HETATM    2  C2    D T9001       7.509  -5.361  -8.086  1.00 83.68     0.109 A 
HETATM    3  C3    D T9001       7.194  -6.738  -7.838  1.00 82.47     0.044 A 
HETATM    4  C4    D T9001       6.023  -7.338  -8.319  1.00 82.50     0.088 A 
HETATM    5  C5    D T9001       5.099  -6.537  -9.089  1.00 84.12     0.055 A 
HETATM    6  C6    D T9001       5.411  -5.145  -9.343  1.00 83.53     0.021 A 
HETATM    7  N7    D T9001       5.811  -8.651  -8.036  1.00 81.78    -0.224 NA
HETATM    8  C8    D T9001       4.672  -9.213  -8.515  1.00 83.59     0.200 A 
HETATM    9  N9    D T9001       3.724  -8.583  -9.248  1.00 84.30    -0.205 NA
HETATM   10  C10   D T9001       3.926  -7.238  -9.543  1.00 85.59     0.166 A 
HETATM   11  N13   D T9001       6.882  -3.187  -9.118  1.00 82.67    -0.099 NA
ENDROOT
BRANCH  10  12
HETATM   12  N14   D T9001       2.936  -6.535 -10.319  1.00 86.44    -0.227 NA
BRANCH  12  13
HETATM   13  C15   D T9001       1.924  -5.670  -9.820  1.00 87.38     0.084 A 
HETATM   14  C16   D T9001       1.904  -4.273 -10.142  1.00 88.13     0.033 A 
HETATM   15  C17   D T9001       0.900  -3.418  -9.637  1.00 88.88     0.087 A 
HETATM   16  C18   D T9001      -0.110  -3.950  -8.792  1.00 88.55     0.151 A 
HETATM   17 CL     D T9001       0.931  -1.739 -10.058  1.00 89.26    -0.080 Cl
HETATM   18  C19   D T9001      -0.121  -5.334  -8.454  1.00 87.62     0.032 A 
HETATM   19  F21   D T9001      -1.071  -3.151  -8.301  1.00 88.92    -0.203 F 
HETATM   20  C20   D T9001       0.894  -6.191  -8.964  1.00 87.82     0.021 A 
ENDBRANCH  12  13
ENDBRANCH  10  12
BRANCH   2  21
HETATM   21  O11   D T9001       8.658  -4.714  -7.637  1.00 85.44    -0.327 OA
HETATM   22  C12   D T9001       8.666  -4.204  -6.299  1.00 84.41     0.181 C 
ENDBRANCH   2  21
TORSDOF 3
ENDMDL
MODEL 7
REMARK VINA RESULT:    -6.890      4.355      7.149
REMARK INTER + INTRA:          -8.705
REMARK INTER:                  -8.156
REMARK INTRA:                  -0.549
REMARK UNBOUND:                -0.607
REMARK  3 active torsions:
REMARK  status: ('A' for Active; 'I' for Inactive)
REMARK    1  A    between atoms: C2_2  and  O11_20 
REMARK    2  A    between atoms: C10_10  and  N14_11 
REMARK    3  A    between atoms: N14_11  and  C15_12 
ROOT
HETATM    1  C1    D T9001       6.790  -4.425  -8.832  1.00 83.47     0.092 A 
HETATM    2  C2    D T9001       7.157  -5.611  -8.116  1.00 83.68     0.109 A 
HETATM    3  C3    D T9001       6.318  -6.772  -8.179  1.00 82.47     0.044 A 
HETATM    4  C4    D T9001       5.130  -6.799  -8.923  1.00 82.50     0.088 A 
HETATM    5  C5    D T9001       4.739  -5.613  -9.650  1.00 84.12     0.055 A 
HETATM    6  C6    D T9001       5.584  -4.437  -9.590  1.00 83.53     0.021 A 
HETATM    7  N7    D T9001       4.400  -7.946  -8.925  1.00 81.78    -0.224 NA
HETATM    8  C8    D T9001       3.256  -7.953  -9.656  1.00 83.59     0.200 A 
HETATM    9  N9    D T9001       2.773  -6.916 -10.382  1.00 84.30    -0.205 NA
HETATM   10  C10   D T9001       3.509  -5.736 -10.387  1.00 85.59     0.166 A 
HETATM   11  N13   D T9001       7.592  -3.259  -8.798  1.00 82.67    -0.099 NA
ENDROOT
BRANCH  10  12
HETATM   12  N14   D T9001       3.023  -4.612 -11.147  1.00 86.44    -0.227 NA
BRANCH  12  13
HETATM   13  C15   D T9001       2.252  -3.523 -10.654  1.00 87.38     0.084 A 
HETATM   14  C16   D T9001       0.846  -3.653 -10.402  1.00 88.13     0.033 A 
HETATM   15  C17   D T9001       0.085  -2.565  -9.918  1.00 88.88     0.087 A 
HETATM   16  C18   D T9001       0.722  -1.318  -9.680  1.00 88.55     0.151 A 
HETATM   17 CL     D T9001      -1.610  -2.780  -9.637  1.00 89.26    -0.080 Cl
HETATM   18  C19   D T9001       2.117  -1.158  -9.918  1.00 87.62     0.032 A 
HETATM   19  F21   D T9001       0.013  -0.273  -9.223  1.00 88.92    -0.203 F 
HETATM   20  C20   D T9001       2.879  -2.255 -10.405  1.00 87.82     0.021 A 
ENDBRANCH  12  13
ENDBRANCH  10  12
BRANCH   2  21
HETATM   21  O11   D T9001       8.347  -5.528  -7.398  1.00 85.44    -0.327 OA
HETATM   22  C12   D T9001       8.268  -5.326  -5.982  1.00 84.41     0.181 C 
ENDBRANCH   2  21
TORSDOF 3
ENDMDL
MODEL 8
REMARK VINA RESULT:    -6.886      4.355      6.764
REMARK INTER + INTRA:          -8.700
REMARK INTER:                  -8.181
REMARK INTRA:                  -0.519
REMARK UNBOUND:                -0.607
REMARK  3 active torsions:
REMARK  status: ('A' for Active; 'I' for Inactive)
REMARK    1  A    between atoms: C2_2  and  O11_20 
REMARK    2  A    between atoms: C10_10  and  N14_11 
REMARK    3  A    between atoms: N14_11  and  C15_12 
ROOT
HETATM    1  C1    D T9001       6.417  -6.527  -8.491  1.00 83.47     0.092 A 
HETATM    2  C2    D T9001       7.084  -5.330  -8.072  1.00 83.68     0.109 A 
HETATM    3  C3    D T9001       6.553  -4.050  -8.441  1.00 82.47     0.044 A 
HETATM    4  C4    D T9001       5.389  -3.914  -9.210  1.00 82.50     0.088 A 
HETATM    5  C5    D T9001       4.703  -5.109  -9.647  1.00 84.12     0.055 A 
HETATM    6  C6    D T9001       5.234  -6.405  -9.276  1.00 83.53     0.021 A 
HETATM    7  N7    D T9001       4.960  -2.659  -9.511  1.00 81.78    -0.224 NA
HETATM    8  C8    D T9001       3.829  -2.551 -10.252  1.00 83.59     0.200 A 
HETATM    9  N9    D T9001       3.088  -3.582 -10.725  1.00 84.30    -0.205 NA
HETATM   10  C10   D T9001       3.517  -4.872 -10.427  1.00 85.59     0.166 A 
HETATM   11  N13   D T9001       6.907  -7.809  -8.145  1.00 82.67    -0.099 NA
ENDROOT
BRANCH  10  12
HETATM   12  N14   D T9001       2.755  -5.992 -10.917  1.00 86.44    -0.227 NA
BRANCH  12  13
HETATM   13  C15   D T9001       1.490  -6.433 -10.439  1.00 87.38     0.084 A 
HETATM   14  C16   D T9001       0.711  -7.398 -11.158  1.00 88.13     0.033 A 
HETATM   15  C17   D T9001      -0.548  -7.827 -10.681  1.00 88.88     0.087 A 
HETATM   16  C18   D T9001      -1.054  -7.290  -9.467  1.00 88.55     0.151 A 
HETATM   17 CL     D T9001      -1.446  -8.992 -11.595  1.00 89.26    -0.080 Cl
HETATM   18  C19   D T9001      -0.304  -6.332  -8.727  1.00 87.62     0.032 A 
HETATM   19  F21   D T9001      -2.250  -7.685  -9.000  1.00 88.92    -0.203 F 
HETATM   20  C20   D T9001       0.963  -5.903  -9.212  1.00 87.82     0.021 A 
ENDBRANCH  12  13
ENDBRANCH  10  12
BRANCH   2  21
HETATM   21  O11   D T9001       8.232  -5.524  -7.307  1.00 85.44    -0.327 OA
HETATM   22  C12   D T9001       8.201  -5.127  -5.931  1.00 84.41     0.181 C 
ENDBRANCH   2  21
TORSDOF 3
ENDMDL
MODEL 9
REMARK VINA RESULT:    -6.672      2.000      2.298
REMARK INTER + INTRA:          -8.449
REMARK INTER:                  -8.195
REMARK INTRA:                  -0.254
REMARK UNBOUND:                -0.607
REMARK  3 active torsions:
REMARK  status: ('A' for Active; 'I' for Inactive)
REMARK    1  A    between atoms: C2_2  and  O11_20 
REMARK    2  A    between atoms: C10_10  and  N14_11 
REMARK    3  A    between atoms: N14_11  and  C15_12 
ROOT
HETATM    1  C1    D T9001      -0.565  -4.405 -10.627  1.00 83.47     0.092 A 
HETATM    2  C2    D T9001      -1.207  -3.173 -10.276  1.00 83.68     0.109 A 
HETATM    3  C3    D T9001      -0.416  -2.014  -9.981  1.00 82.47     0.044 A 
HETATM    4  C4    D T9001       0.985  -2.032 -10.021  1.00 82.50     0.088 A 
HETATM    5  C5    D T9001       1.653  -3.265 -10.371  1.00 84.12     0.055 A 
HETATM    6  C6    D T9001       0.859  -4.439 -10.670  1.00 83.53     0.021 A 
HETATM    7  N7    D T9001       1.651  -0.883  -9.728  1.00 81.78    -0.224 NA
HETATM    8  C8    D T9001       3.007  -0.921  -9.778  1.00 83.59     0.200 A 
HETATM    9  N9    D T9001       3.759  -2.004 -10.090  1.00 84.30    -0.205 NA
HETATM   10  C10   D T9001       3.091  -3.187 -10.390  1.00 85.59     0.166 A 
HETATM   11  N13   D T9001      -1.310  -5.570 -10.928  1.00 82.67    -0.099 NA
ENDROOT
BRANCH  10  12
HETATM   12  N14   D T9001       3.859  -4.359 -10.723  1.00 86.44    -0.227 NA
BRANCH  12  13
HETATM   13  C15   D T9001       4.809  -5.016  -9.893  1.00 87.38     0.084 A 
HETATM   14  C16   D T9001       4.789  -6.438  -9.710  1.00 88.13     0.033 A 
HETATM   15  C17   D T9001       5.731  -7.084  -8.879  1.00 88.88     0.087 A 
HETATM   16  C18   D T9001       6.716  -6.311  -8.209  1.00 88.55     0.151 A 
HETATM   17 CL     D T9001       5.655  -8.804  -8.693  1.00 89.26    -0.080 Cl
HETATM   18  C19   D T9001       6.765  -4.897  -8.371  1.00 87.62     0.032 A 
HETATM   19  F21   D T9001       7.618  -6.908  -7.412  1.00 88.92    -0.203 F 
HETATM   20  C20   D T9001       5.813  -4.251  -9.208  1.00 87.82     0.021 A 
ENDBRANCH  12  13
ENDBRANCH  10  12
BRANCH   2  21
HETATM   21  O11   D T9001      -2.599  -3.211 -10.255  1.00 85.44    -0.327 OA
HETATM   22  C12   D T9001      -3.259  -3.068  -8.992  1.00 84.41     0.181 C 
ENDBRANCH   2  21
TORSDOF 3
ENDMDL
