MODEL 1
REMARK VINA RESULT:    -7.185      0.000      0.000
REMARK INTER + INTRA:          -9.008
REMARK INTER:                  -8.445
REMARK INTRA:                  -0.563
REMARK UNBOUND:                -0.563
REMARK  3 active torsions:
REMARK  status: ('A' for Active; 'I' for Inactive)
REMARK    1  A    between atoms: C2_2  and  O11_20 
REMARK    2  A    between atoms: C10_10  and  N14_11 
REMARK    3  A    between atoms: N14_11  and  C15_12 
ROOT
HETATM    1  C1    D T9001       6.538   4.900  -7.474  1.00 83.47     0.092 A 
HETATM    2  C2    D T9001       5.757   4.094  -8.367  1.00 83.68     0.109 A 
HETATM    3  C3    D T9001       5.881   2.665  -8.332  1.00 82.47     0.044 A 
HETATM    4  C4    D T9001       6.746   2.009  -7.446  1.00 82.50     0.088 A 
HETATM    5  C5    D T9001       7.544   2.803  -6.539  1.00 84.12     0.055 A 
HETATM    6  C6    D T9001       7.422   4.246  -6.570  1.00 83.53     0.021 A 
HETATM    7  N7    D T9001       6.795   0.650  -7.485  1.00 81.78    -0.224 NA
HETATM    8  C8    D T9001       7.635   0.034  -6.615  1.00 83.59     0.200 A 
HETATM    9  N9    D T9001       8.437   0.652  -5.715  1.00 84.30    -0.205 NA
HETATM   10  C10   D T9001       8.400   2.041  -5.667  1.00 85.59     0.166 A 
HETATM   11  N13   D T9001       6.442   6.311  -7.476  1.00 82.67    -0.099 NA
ENDROOT
BRANCH  10  12
HETATM   12  N14   D T9001       9.241   2.732  -4.722  1.00 86.44    -0.227 NA
BRANCH  12  13
HETATM   13  C15   D T9001       8.993   2.902  -3.331  1.00 87.38     0.084 A 
HETATM   14  C16   D T9001       9.584   2.036  -2.353  1.00 88.13     0.033 A 
HETATM   15  C17   D T9001       9.329   2.206  -0.974  1.00 88.88     0.087 A 
HETATM   16  C18   D T9001       8.468   3.253  -0.548  1.00 88.55     0.151 A 
HETATM   17 CL     D T9001      10.066   1.127   0.161  1.00 89.26    -0.080 Cl
HETATM   18  C19   D T9001       7.868   4.133  -1.494  1.00 87.62     0.032 A 
HETATM   19  F21   D T9001       8.212   3.427   0.760  1.00 88.92    -0.203 F 
HETATM   20  C20   D T9001       8.128   3.956  -2.882  1.00 87.82     0.021 A 
ENDBRANCH  12  13
ENDBRANCH  10  12
BRANCH   2  21
HETATM   21  O11   D T9001       4.912   4.799  -9.221  1.00 85.44    -0.327 OA
HETATM   22  C12   D T9001       4.230   4.069 -10.247  1.00 84.41     0.181 C 
ENDBRANCH   2  21
TORSDOF 3
ENDMDL
MODEL 2
REMARK VINA RESULT:    -7.103      4.222      6.901
REMARK INTER + INTRA:          -8.911
REMARK INTER:                  -8.325
REMARK INTRA:                  -0.586
REMARK UNBOUND:                -0.563
REMARK  3 active torsions:
REMARK  status: ('A' for Active; 'I' for Inactive)
REMARK    1  A    between atoms: C2_2  and  O11_20 
REMARK    2  A    between atoms: C10_10  and  N14_11 
REMARK    3  A    between atoms: N14_11  and  C15_12 
ROOT
HETATM    1  C1    D T9001       8.607   4.088  -2.179  1.00 83.47     0.092 A 
HETATM    2  C2    D T9001       9.946   3.689  -1.851  1.00 83.68     0.109 A 
HETATM    3  C3    D T9001      10.573   2.626  -2.583  1.00 82.47     0.044 A 
HETATM    4  C4    D T9001       9.925   1.948  -3.623  1.00 82.50     0.088 A 
HETATM    5  C5    D T9001       8.575   2.332  -3.968  1.00 84.12     0.055 A 
HETATM    6  C6    D T9001       7.937   3.405  -3.232  1.00 83.53     0.021 A 
HETATM    7  N7    D T9001      10.601   0.954  -4.261  1.00 81.78    -0.224 NA
HETATM    8  C8    D T9001       9.957   0.313  -5.269  1.00 83.59     0.200 A 
HETATM    9  N9    D T9001       8.697   0.569  -5.694  1.00 84.30    -0.205 NA
HETATM   10  C10   D T9001       7.993   1.581  -5.050  1.00 85.59     0.166 A 
HETATM   11  N13   D T9001       7.956   5.133  -1.482  1.00 82.67    -0.099 NA
ENDROOT
BRANCH  10  12
HETATM   12  N14   D T9001       6.649   1.880  -5.475  1.00 86.44    -0.227 NA
BRANCH  12  13
HETATM   13  C15   D T9001       6.268   2.724  -6.555  1.00 87.38     0.084 A 
HETATM   14  C16   D T9001       6.055   4.130  -6.368  1.00 88.13     0.033 A 
HETATM   15  C17   D T9001       5.671   4.962  -7.444  1.00 88.88     0.087 A 
HETATM   16  C18   D T9001       5.489   4.394  -8.734  1.00 88.55     0.151 A 
HETATM   17 CL     D T9001       5.423   6.651  -7.159  1.00 89.26    -0.080 Cl
HETATM   18  C19   D T9001       5.696   3.002  -8.953  1.00 87.62     0.032 A 
HETATM   19  F21   D T9001       5.120   5.171  -9.767  1.00 88.92    -0.203 F 
HETATM   20  C20   D T9001       6.082   2.169  -7.866  1.00 87.82     0.021 A 
ENDBRANCH  12  13
ENDBRANCH  10  12
BRANCH   2  21
HETATM   21  O11   D T9001      10.542   4.401  -0.813  1.00 85.44    -0.327 OA
HETATM   22  C12   D T9001      10.974   3.672   0.342  1.00 84.41     0.181 C 
ENDBRANCH   2  21
TORSDOF 3
ENDMDL
MODEL 3
REMARK VINA RESULT:    -7.060      2.013      2.275
REMARK INTER + INTRA:          -8.861
REMARK INTER:                  -8.261
REMARK INTRA:                  -0.601
REMARK UNBOUND:                -0.563
REMARK  3 active torsions:
REMARK  status: ('A' for Active; 'I' for Inactive)
REMARK    1  A    between atoms: C2_2  and  O11_20 
REMARK    2  A    between atoms: C10_10  and  N14_11 
REMARK    3  A    between atoms: N14_11  and  C15_12 
ROOT
HETATM    1  C1    D T9001       6.084   4.402  -6.834  1.00 83.47     0.092 A 
HETATM    2  C2    D T9001       6.137   3.614  -8.032  1.00 83.68     0.109 A 
HETATM    3  C3    D T9001       6.535   2.237  -7.963  1.00 82.47     0.044 A 
HETATM    4  C4    D T9001       6.880   1.616  -6.756  1.00 82.50     0.088 A 
HETATM    5  C5    D T9001       6.836   2.392  -5.538  1.00 84.12     0.055 A 
HETATM    6  C6    D T9001       6.435   3.783  -5.601  1.00 83.53     0.021 A 
HETATM    7  N7    D T9001       7.243   0.305  -6.790  1.00 81.78    -0.224 NA
HETATM    8  C8    D T9001       7.569  -0.279  -5.608  1.00 83.59     0.200 A 
HETATM    9  N9    D T9001       7.572   0.328  -4.398  1.00 84.30    -0.205 NA
HETATM   10  C10   D T9001       7.205   1.669  -4.349  1.00 85.59     0.166 A 
HETATM   11  N13   D T9001       5.695   5.762  -6.861  1.00 82.67    -0.099 NA
ENDROOT
BRANCH  10  12
HETATM   12  N14   D T9001       7.198   2.347  -3.077  1.00 86.44    -0.227 NA
BRANCH  12  13
HETATM   13  C15   D T9001       8.248   3.134  -2.529  1.00 87.38     0.084 A 
HETATM   14  C16   D T9001       8.002   4.436  -1.981  1.00 88.13     0.033 A 
HETATM   15  C17   D T9001       9.051   5.215  -1.444  1.00 88.88     0.087 A 
HETATM   16  C18   D T9001      10.376   4.702  -1.451  1.00 88.55     0.151 A 
HETATM   17 CL     D T9001       8.695   6.782  -0.799  1.00 89.26    -0.080 Cl
HETATM   18  C19   D T9001      10.653   3.411  -1.986  1.00 87.62     0.032 A 
HETATM   19  F21   D T9001      11.386   5.431  -0.948  1.00 88.92    -0.203 F 
HETATM   20  C20   D T9001       9.593   2.630  -2.526  1.00 87.82     0.021 A 
ENDBRANCH  12  13
ENDBRANCH  10  12
BRANCH   2  21
HETATM   21  O11   D T9001       5.779   4.282  -9.200  1.00 85.44    -0.327 OA
HETATM   22  C12   D T9001       4.554   3.909  -9.842  1.00 84.41     0.181 C 
ENDBRANCH   2  21
TORSDOF 3
ENDMDL
MODEL 4
REMARK VINA RESULT:    -7.031      2.115      3.278
REMARK INTER + INTRA:          -8.827
REMARK INTER:                  -8.555
REMARK INTRA:                  -0.271
REMARK UNBOUND:                -0.563
REMARK  3 active torsions:
REMARK  status: ('A' for Active; 'I' for Inactive)
REMARK    1  A    between atoms: C2_2  and  O11_20 
REMARK    2  A    between atoms: C10_10  and  N14_11 
REMARK    3  A    between atoms: N14_11  and  C15_12 
ROOT
HETATM    1  C1    D T9001       5.733   1.998  -8.569  1.00 83.47     0.092 A 
HETATM    2  C2    D T9001       5.648   3.293  -9.179  1.00 83.68     0.109 A 
HETATM    3  C3    D T9001       6.407   4.387  -8.641  1.00 82.47     0.044 A 
HETATM    4  C4    D T9001       7.243   4.242  -7.526  1.00 82.50     0.088 A 
HETATM    5  C5    D T9001       7.341   2.946  -6.894  1.00 84.12     0.055 A 
HETATM    6  C6    D T9001       6.577   1.838  -7.434  1.00 83.53     0.021 A 
HETATM    7  N7    D T9001       7.924   5.336  -7.089  1.00 81.78    -0.224 NA
HETATM    8  C8    D T9001       8.732   5.173  -6.011  1.00 83.59     0.200 A 
HETATM    9  N9    D T9001       8.917   4.020  -5.325  1.00 84.30    -0.205 NA
HETATM   10  C10   D T9001       8.225   2.894  -5.759  1.00 85.59     0.166 A 
HETATM   11  N13   D T9001       5.003   0.895  -9.071  1.00 82.67    -0.099 NA
ENDROOT
BRANCH  10  12
HETATM   12  N14   D T9001       8.397   1.650  -5.053  1.00 86.44    -0.227 NA
BRANCH  12  13
HETATM   13  C15   D T9001       9.350   1.379  -4.032  1.00 87.38     0.084 A 
HETATM   14  C16   D T9001      10.446   0.480  -4.249  1.00 88.13     0.033 A 
HETATM   15  C17   D T9001      11.385   0.210  -3.228  1.00 88.88     0.087 A 
HETATM   16  C18   D T9001      11.239   0.837  -1.962  1.00 88.55     0.151 A 
HETATM   17 CL     D T9001      12.686  -0.887  -3.546  1.00 89.26    -0.080 Cl
HETATM   18  C19   D T9001      10.163   1.738  -1.716  1.00 87.62     0.032 A 
HETATM   19  F21   D T9001      12.121   0.589  -0.979  1.00 88.92    -0.203 F 
HETATM   20  C20   D T9001       9.220   2.006  -2.746  1.00 87.82     0.021 A 
ENDBRANCH  12  13
ENDBRANCH  10  12
BRANCH   2  21
HETATM   21  O11   D T9001       4.806   3.377 -10.285  1.00 85.44    -0.327 OA
HETATM   22  C12   D T9001       3.828   4.423 -10.309  1.00 84.41     0.181 C 
ENDBRANCH   2  21
TORSDOF 3
ENDMDL
MODEL 5
REMARK VINA RESULT:    -6.789      2.375      3.727
REMARK INTER + INTRA:          -8.542
REMARK INTER:                  -8.036
REMARK INTRA:                  -0.506
REMARK UNBOUND:                -0.563
REMARK  3 active torsions:
REMARK  status: ('A' for Active; 'I' for Inactive)
REMARK    1  A    between atoms: C2_2  and  O11_20 
REMARK    2  A    between atoms: C10_10  and  N14_11 
REMARK    3  A    between atoms: N14_11  and  C15_12 
ROOT
HETATM    1  C1    D T9001       7.089   0.882  -7.255  1.00 83.47     0.092 A 
HETATM    2  C2    D T9001       6.190   1.282  -8.300  1.00 83.68     0.109 A 
HETATM    3  C3    D T9001       5.989   2.677  -8.573  1.00 82.47     0.044 A 
HETATM    4  C4    D T9001       6.644   3.684  -7.852  1.00 82.50     0.088 A 
HETATM    5  C5    D T9001       7.552   3.302  -6.794  1.00 84.12     0.055 A 
HETATM    6  C6    D T9001       7.759   1.896  -6.514  1.00 83.53     0.021 A 
HETATM    7  N7    D T9001       6.392   4.979  -8.184  1.00 81.78    -0.224 NA
HETATM    8  C8    D T9001       7.041   5.939  -7.477  1.00 83.59     0.200 A 
HETATM    9  N9    D T9001       7.914   5.723  -6.464  1.00 84.30    -0.205 NA
HETATM   10  C10   D T9001       8.180   4.405  -6.112  1.00 85.59     0.166 A 
HETATM   11  N13   D T9001       7.315  -0.482  -6.958  1.00 82.67    -0.099 NA
ENDROOT
BRANCH  10  12
HETATM   12  N14   D T9001       9.103   4.139  -5.038  1.00 86.44    -0.227 NA
BRANCH  12  13
HETATM   13  C15   D T9001       9.046   4.670  -3.719  1.00 87.38     0.084 A 
HETATM   14  C16   D T9001       9.842   5.797  -3.330  1.00 88.13     0.033 A 
HETATM   15  C17   D T9001       9.786   6.314  -2.016  1.00 88.88     0.087 A 
HETATM   16  C18   D T9001       8.927   5.705  -1.062  1.00 88.55     0.151 A 
HETATM   17 CL     D T9001      10.772   7.675  -1.601  1.00 89.26    -0.080 Cl
HETATM   18  C19   D T9001       8.121   4.586  -1.419  1.00 87.62     0.032 A 
HETATM   19  F21   D T9001       8.864   6.182   0.192  1.00 88.92    -0.203 F 
HETATM   20  C20   D T9001       8.182   4.067  -2.743  1.00 87.82     0.021 A 
ENDBRANCH  12  13
ENDBRANCH  10  12
BRANCH   2  21
HETATM   21  O11   D T9001       5.571   0.240  -8.985  1.00 85.44    -0.327 OA
HETATM   22  C12   D T9001       4.150   0.296  -9.154  1.00 84.41     0.181 C 
ENDBRANCH   2  21
TORSDOF 3
ENDMDL
MODEL 6
REMARK VINA RESULT:    -6.704      4.557      7.707
REMARK INTER + INTRA:          -8.443
REMARK INTER:                  -8.166
REMARK INTRA:                  -0.277
REMARK UNBOUND:                -0.563
REMARK  3 active torsions:
REMARK  status: ('A' for Active; 'I' for Inactive)
REMARK    1  A    between atoms: C2_2  and  O11_20 
REMARK    2  A    between atoms: C10_10  and  N14_11 
REMARK    3  A    between atoms: N14_11  and  C15_12 
ROOT
HETATM    1  C1    D T9001      11.061   0.547  -2.970  1.00 83.47     0.092 A 
HETATM    2  C2    D T9001      10.893   1.066  -1.644  1.00 83.68     0.109 A 
HETATM    3  C3    D T9001       9.856   2.022  -1.378  1.00 82.47     0.044 A 
HETATM    4  C4    D T9001       8.984   2.479  -2.374  1.00 82.50     0.088 A 
HETATM    5  C5    D T9001       9.138   1.971  -3.719  1.00 84.12     0.055 A 
HETATM    6  C6    D T9001      10.183   1.005  -3.993  1.00 83.53     0.021 A 
HETATM    7  N7    D T9001       8.031   3.386  -2.027  1.00 81.78    -0.224 NA
HETATM    8  C8    D T9001       7.193   3.812  -3.007  1.00 83.59     0.200 A 
HETATM    9  N9    D T9001       7.225   3.420  -4.303  1.00 84.30    -0.205 NA
HETATM   10  C10   D T9001       8.196   2.496  -4.673  1.00 85.59     0.166 A 
HETATM   11  N13   D T9001      12.069  -0.399  -3.271  1.00 82.67    -0.099 NA
ENDROOT
BRANCH  10  12
HETATM   12  N14   D T9001       8.259   2.058  -6.044  1.00 86.44    -0.227 NA
BRANCH  12  13
HETATM   13  C15   D T9001       7.312   2.336  -7.069  1.00 87.38     0.084 A 
HETATM   14  C16   D T9001       6.471   1.309  -7.611  1.00 88.13     0.033 A 
HETATM   15  C17   D T9001       5.538   1.591  -8.634  1.00 88.88     0.087 A 
HETATM   16  C18   D T9001       5.432   2.916  -9.136  1.00 88.55     0.151 A 
HETATM   17 CL     D T9001       4.552   0.311  -9.254  1.00 89.26    -0.080 Cl
HETATM   18  C19   D T9001       6.251   3.959  -8.616  1.00 87.62     0.032 A 
HETATM   19  F21   D T9001       4.552   3.201 -10.111  1.00 88.92    -0.203 F 
HETATM   20  C20   D T9001       7.190   3.670  -7.587  1.00 87.82     0.021 A 
ENDBRANCH  12  13
ENDBRANCH  10  12
BRANCH   2  21
HETATM   21  O11   D T9001      11.784   0.574  -0.694  1.00 85.44    -0.327 OA
HETATM   22  C12   D T9001      11.250   0.095   0.546  1.00 84.41     0.181 C 
ENDBRANCH   2  21
TORSDOF 3
ENDMDL
MODEL 7
REMARK VINA RESULT:    -6.697      4.555      7.912
REMARK INTER + INTRA:          -8.434
REMARK INTER:                  -8.011
REMARK INTRA:                  -0.423
REMARK UNBOUND:                -0.563
REMARK  3 active torsions:
REMARK  status: ('A' for Active; 'I' for Inactive)
REMARK    1  A    between atoms: C2_2  and  O11_20 
REMARK    2  A    between atoms: C10_10  and  N14_11 
REMARK    3  A    between atoms: N14_11  and  C15_12 
ROOT
HETATM    1  C1    D T9001      11.228   0.853  -1.605  1.00 83.47     0.092 A 
HETATM    2  C2    D T9001      10.901   1.309  -0.285  1.00 83.68     0.109 A 
HETATM    3  C3    D T9001       9.880   2.302  -0.105  1.00 82.47     0.044 A 
HETATM    4  C4    D T9001       9.175   2.855  -1.182  1.00 82.50     0.088 A 
HETATM    5  C5    D T9001       9.490   2.412  -2.521  1.00 84.12     0.055 A 
HETATM    6  C6    D T9001      10.520   1.409  -2.708  1.00 83.53     0.021 A 
HETATM    7  N7    D T9001       8.223   3.790  -0.913  1.00 81.78    -0.224 NA
HETATM    8  C8    D T9001       7.548   4.310  -1.970  1.00 83.59     0.200 A 
HETATM    9  N9    D T9001       7.741   3.986  -3.270  1.00 84.30    -0.205 NA
HETATM   10  C10   D T9001       8.712   3.034  -3.560  1.00 85.59     0.166 A 
HETATM   11  N13   D T9001      12.225  -0.126  -1.824  1.00 82.67    -0.099 NA
ENDROOT
BRANCH  10  12
HETATM   12  N14   D T9001       8.945   2.667  -4.934  1.00 86.44    -0.227 NA
BRANCH  12  13
HETATM   13  C15   D T9001       8.009   2.741  -6.003  1.00 87.38     0.084 A 
HETATM   14  C16   D T9001       7.872   3.925  -6.799  1.00 88.13     0.033 A 
HETATM   15  C17   D T9001       6.935   3.994  -7.855  1.00 88.88     0.087 A 
HETATM   16  C18   D T9001       6.112   2.869  -8.131  1.00 88.55     0.151 A 
HETATM   17 CL     D T9001       6.810   5.452  -8.780  1.00 89.26    -0.080 Cl
HETATM   18  C19   D T9001       6.226   1.677  -7.361  1.00 87.62     0.032 A 
HETATM   19  F21   D T9001       5.213   2.919  -9.129  1.00 88.92    -0.203 F 
HETATM   20  C20   D T9001       7.170   1.613  -6.298  1.00 87.82     0.021 A 
ENDBRANCH  12  13
ENDBRANCH  10  12
BRANCH   2  21
HETATM   21  O11   D T9001      11.630   0.722   0.745  1.00 85.44    -0.327 OA
HETATM   22  C12   D T9001      10.912  -0.006   1.748  1.00 84.41     0.181 C 
ENDBRANCH   2  21
TORSDOF 3
ENDMDL
MODEL 8
REMARK VINA RESULT:    -6.461      6.453      8.839
REMARK INTER + INTRA:          -8.157
REMARK INTER:                  -7.653
REMARK INTRA:                  -0.504
REMARK UNBOUND:                -0.563
REMARK  3 active torsions:
REMARK  status: ('A' for Active; 'I' for Inactive)
REMARK    1  A    between atoms: C2_2  and  O11_20 
REMARK    2  A    between atoms: C10_10  and  N14_11 
REMARK    3  A    between atoms: N14_11  and  C15_12 
ROOT
HETATM    1  C1    D T9001      12.340  -2.150  -1.774  1.00 83.47     0.092 A 
HETATM    2  C2    D T9001      12.125  -3.478  -1.277  1.00 83.68     0.109 A 
HETATM    3  C3    D T9001      11.651  -3.671   0.064  1.00 82.47     0.044 A 
HETATM    4  C4    D T9001      11.381  -2.599   0.925  1.00 82.50     0.088 A 
HETATM    5  C5    D T9001      11.593  -1.252   0.445  1.00 84.12     0.055 A 
HETATM    6  C6    D T9001      12.072  -1.052  -0.908  1.00 83.53     0.021 A 
HETATM    7  N7    D T9001      10.933  -2.880   2.179  1.00 81.78    -0.224 NA
HETATM    8  C8    D T9001      10.673  -1.827   2.995  1.00 83.59     0.200 A 
HETATM    9  N9    D T9001      10.827  -0.520   2.676  1.00 84.30    -0.205 NA
HETATM   10  C10   D T9001      11.287  -0.218   1.399  1.00 85.59     0.166 A 
HETATM   11  N13   D T9001      12.804  -1.919  -3.090  1.00 82.67    -0.099 NA
ENDROOT
BRANCH  10  12
HETATM   12  N14   D T9001      11.463   1.163   1.026  1.00 86.44    -0.227 NA
BRANCH  12  13
HETATM   13  C15   D T9001      10.478   2.024   0.466  1.00 87.38     0.084 A 
HETATM   14  C16   D T9001       9.725   1.647  -0.694  1.00 88.13     0.033 A 
HETATM   15  C17   D T9001       8.753   2.510  -1.248  1.00 88.88     0.087 A 
HETATM   16  C18   D T9001       8.519   3.776  -0.646  1.00 88.55     0.151 A 
HETATM   17 CL     D T9001       7.877   2.004  -2.653  1.00 89.26    -0.080 Cl
HETATM   18  C19   D T9001       9.249   4.178   0.509  1.00 87.62     0.032 A 
HETATM   19  F21   D T9001       7.601   4.610  -1.163  1.00 88.92    -0.203 F 
HETATM   20  C20   D T9001      10.227   3.306   1.063  1.00 87.82     0.021 A 
ENDBRANCH  12  13
ENDBRANCH  10  12
BRANCH   2  21
HETATM   21  O11   D T9001      12.405  -4.504  -2.176  1.00 85.44    -0.327 OA
HETATM   22  C12   D T9001      12.448  -5.845  -1.677  1.00 84.41     0.181 C 
ENDBRANCH   2  21
TORSDOF 3
ENDMDL
MODEL 9
REMARK VINA RESULT:    -6.413      4.303      6.575
REMARK INTER + INTRA:          -8.101
REMARK INTER:                  -7.495
REMARK INTRA:                  -0.606
REMARK UNBOUND:                -0.563
REMARK  3 active torsions:
REMARK  status: ('A' for Active; 'I' for Inactive)
REMARK    1  A    between atoms: C2_2  and  O11_20 
REMARK    2  A    between atoms: C10_10  and  N14_11 
REMARK    3  A    between atoms: N14_11  and  C15_12 
ROOT
HETATM    1  C1    D T9001      10.099   1.392  -3.844  1.00 83.47     0.092 A 
HETATM    2  C2    D T9001       9.020   2.318  -4.035  1.00 83.68     0.109 A 
HETATM    3  C3    D T9001       8.445   2.986  -2.902  1.00 82.47     0.044 A 
HETATM    4  C4    D T9001       8.900   2.772  -1.595  1.00 82.50     0.088 A 
HETATM    5  C5    D T9001       9.985   1.840  -1.380  1.00 84.12     0.055 A 
HETATM    6  C6    D T9001      10.569   1.163  -2.520  1.00 83.53     0.021 A 
HETATM    7  N7    D T9001       8.293   3.452  -0.584  1.00 81.78    -0.224 NA
HETATM    8  C8    D T9001       8.752   3.233   0.674  1.00 83.59     0.200 A 
HETATM    9  N9    D T9001       9.757   2.391   1.016  1.00 84.30    -0.205 NA
HETATM   10  C10   D T9001      10.384   1.687  -0.005  1.00 85.59     0.166 A 
HETATM   11  N13   D T9001      10.694   0.716  -4.935  1.00 82.67    -0.099 NA
ENDROOT
BRANCH  10  12
HETATM   12  N14   D T9001      11.456   0.782   0.323  1.00 86.44    -0.227 NA
BRANCH  12  13
HETATM   13  C15   D T9001      11.335  -0.604   0.623  1.00 87.38     0.084 A 
HETATM   14  C16   D T9001      11.757  -1.611  -0.306  1.00 88.13     0.033 A 
HETATM   15  C17   D T9001      11.627  -2.986  -0.005  1.00 88.88     0.087 A 
HETATM   16  C18   D T9001      11.068  -3.377   1.241  1.00 88.55     0.151 A 
HETATM   17 CL     D T9001      12.149  -4.157  -1.167  1.00 89.26    -0.080 Cl
HETATM   18  C19   D T9001      10.643  -2.400   2.187  1.00 87.62     0.032 A 
HETATM   19  F21   D T9001      10.935  -4.680   1.542  1.00 88.92    -0.203 F 
HETATM   20  C20   D T9001      10.774  -1.017   1.878  1.00 87.82     0.021 A 
ENDBRANCH  12  13
ENDBRANCH  10  12
BRANCH   2  21
HETATM   21  O11   D T9001       8.613   2.495  -5.354  1.00 85.44    -0.327 OA
HETATM   22  C12   D T9001       7.322   2.005  -5.733  1.00 84.41     0.181 C 
ENDBRANCH   2  21
TORSDOF 3
ENDMDL
