MODEL 1
REMARK VINA RESULT:    -7.484      0.000      0.000
REMARK INTER + INTRA:          -9.354
REMARK INTER:                  -8.797
REMARK INTRA:                  -0.557
REMARK UNBOUND:                -0.557
REMARK  3 active torsions:
REMARK  status: ('A' for Active; 'I' for Inactive)
REMARK    1  A    between atoms: C2_2  and  O11_20 
REMARK    2  A    between atoms: C10_10  and  N14_11 
REMARK    3  A    between atoms: N14_11  and  C15_12 
ROOT
HETATM    1  C1    D T9001       0.399   7.782   5.832  1.00 83.47     0.092 A 
HETATM    2  C2    D T9001      -0.831   7.125   5.498  1.00 83.68     0.109 A 
HETATM    3  C3    D T9001      -1.246   5.968   6.237  1.00 82.47     0.044 A 
HETATM    4  C4    D T9001      -0.487   5.440   7.291  1.00 82.50     0.088 A 
HETATM    5  C5    D T9001       0.757   6.085   7.643  1.00 84.12     0.055 A 
HETATM    6  C6    D T9001       1.181   7.255   6.900  1.00 83.53     0.021 A 
HETATM    7  N7    D T9001      -0.962   4.340   7.934  1.00 81.78    -0.224 NA
HETATM    8  C8    D T9001      -0.215   3.848   8.956  1.00 83.59     0.200 A 
HETATM    9  N9    D T9001       0.965   4.351   9.389  1.00 84.30    -0.205 NA
HETATM   10  C10   D T9001       1.464   5.475   8.738  1.00 85.59     0.166 A 
HETATM   11  N13   D T9001       0.842   8.928   5.129  1.00 82.67    -0.099 NA
ENDROOT
BRANCH  10  12
HETATM   12  N14   D T9001       2.718   6.036   9.172  1.00 86.44    -0.227 NA
BRANCH  12  13
HETATM   13  C15   D T9001       4.014   5.679   8.705  1.00 87.38     0.084 A 
HETATM   14  C16   D T9001       4.634   6.370   7.613  1.00 88.13     0.033 A 
HETATM   15  C17   D T9001       5.919   6.007   7.150  1.00 88.88     0.087 A 
HETATM   16  C18   D T9001       6.609   4.934   7.777  1.00 88.55     0.151 A 
HETATM   17 CL     D T9001       6.617   6.875   5.825  1.00 89.26    -0.080 Cl
HETATM   18  C19   D T9001       6.021   4.229   8.866  1.00 87.62     0.032 A 
HETATM   19  F21   D T9001       7.830   4.573   7.347  1.00 88.92    -0.203 F 
HETATM   20  C20   D T9001       4.726   4.598   9.327  1.00 87.82     0.021 A 
ENDBRANCH  12  13
ENDBRANCH  10  12
BRANCH   2  21
HETATM   21  O11   D T9001      -1.544   7.695   4.446  1.00 85.44    -0.327 OA
HETATM   22  C12   D T9001      -2.922   7.336   4.294  1.00 84.41     0.181 C 
ENDBRANCH   2  21
TORSDOF 3
ENDMDL
MODEL 2
REMARK VINA RESULT:    -7.404      3.785      5.265
REMARK INTER + INTRA:          -9.260
REMARK INTER:                  -8.709
REMARK INTRA:                  -0.550
REMARK UNBOUND:                -0.557
REMARK  3 active torsions:
REMARK  status: ('A' for Active; 'I' for Inactive)
REMARK    1  A    between atoms: C2_2  and  O11_20 
REMARK    2  A    between atoms: C10_10  and  N14_11 
REMARK    3  A    between atoms: N14_11  and  C15_12 
ROOT
HETATM    1  C1    D T9001       2.111   9.855   5.211  1.00 83.47     0.092 A 
HETATM    2  C2    D T9001       2.953   9.853   4.051  1.00 83.68     0.109 A 
HETATM    3  C3    D T9001       4.126   9.028   4.023  1.00 82.47     0.044 A 
HETATM    4  C4    D T9001       4.493   8.209   5.099  1.00 82.50     0.088 A 
HETATM    5  C5    D T9001       3.659   8.198   6.279  1.00 84.12     0.055 A 
HETATM    6  C6    D T9001       2.472   9.029   6.314  1.00 83.53     0.021 A 
HETATM    7  N7    D T9001       5.623   7.460   4.980  1.00 81.78    -0.224 NA
HETATM    8  C8    D T9001       5.957   6.670   6.032  1.00 83.59     0.200 A 
HETATM    9  N9    D T9001       5.269   6.563   7.194  1.00 84.30    -0.205 NA
HETATM   10  C10   D T9001       4.113   7.325   7.331  1.00 85.59     0.166 A 
HETATM   11  N13   D T9001       0.943  10.653   5.278  1.00 82.67    -0.099 NA
ENDROOT
BRANCH  10  12
HETATM   12  N14   D T9001       3.358   7.238   8.554  1.00 86.44    -0.227 NA
BRANCH  12  13
HETATM   13  C15   D T9001       2.638   6.106   9.029  1.00 87.38     0.084 A 
HETATM   14  C16   D T9001       1.322   5.799   8.550  1.00 88.13     0.033 A 
HETATM   15  C17   D T9001       0.610   4.678   9.031  1.00 88.88     0.087 A 
HETATM   16  C18   D T9001       1.208   3.839  10.010  1.00 88.55     0.151 A 
HETATM   17 CL     D T9001      -0.977   4.358   8.419  1.00 89.26    -0.080 Cl
HETATM   18  C19   D T9001       2.514   4.116  10.505  1.00 87.62     0.032 A 
HETATM   19  F21   D T9001       0.544   2.771  10.481  1.00 88.92    -0.203 F 
HETATM   20  C20   D T9001       3.227   5.247  10.018  1.00 87.82     0.021 A 
ENDBRANCH  12  13
ENDBRANCH  10  12
BRANCH   2  21
HETATM   21  O11   D T9001       2.539  10.682   3.012  1.00 85.44    -0.327 OA
HETATM   22  C12   D T9001       2.914  10.327   1.676  1.00 84.41     0.181 C 
ENDBRANCH   2  21
TORSDOF 3
ENDMDL
MODEL 3
REMARK VINA RESULT:    -7.254      4.113      7.326
REMARK INTER + INTRA:          -9.083
REMARK INTER:                  -8.521
REMARK INTRA:                  -0.562
REMARK UNBOUND:                -0.557
REMARK  3 active torsions:
REMARK  status: ('A' for Active; 'I' for Inactive)
REMARK    1  A    between atoms: C2_2  and  O11_20 
REMARK    2  A    between atoms: C10_10  and  N14_11 
REMARK    3  A    between atoms: N14_11  and  C15_12 
ROOT
HETATM    1  C1    D T9001       4.466   4.248  10.478  1.00 83.47     0.092 A 
HETATM    2  C2    D T9001       5.790   3.872  10.075  1.00 83.68     0.109 A 
HETATM    3  C3    D T9001       6.354   4.421   8.875  1.00 82.47     0.044 A 
HETATM    4  C4    D T9001       5.654   5.324   8.063  1.00 82.50     0.088 A 
HETATM    5  C5    D T9001       4.317   5.713   8.449  1.00 84.12     0.055 A 
HETATM    6  C6    D T9001       3.743   5.163   9.661  1.00 83.53     0.021 A 
HETATM    7  N7    D T9001       6.271   5.791   6.944  1.00 81.78    -0.224 NA
HETATM    8  C8    D T9001       5.577   6.669   6.175  1.00 83.59     0.200 A 
HETATM    9  N9    D T9001       4.323   7.117   6.417  1.00 84.30    -0.205 NA
HETATM   10  C10   D T9001       3.678   6.646   7.556  1.00 85.59     0.166 A 
HETATM   11  N13   D T9001       3.876   3.731  11.656  1.00 82.67    -0.099 NA
ENDROOT
BRANCH  10  12
HETATM   12  N14   D T9001       2.343   7.100   7.844  1.00 86.44    -0.227 NA
BRANCH  12  13
HETATM   13  C15   D T9001       1.133   6.569   7.316  1.00 87.38     0.084 A 
HETATM   14  C16   D T9001       0.432   7.219   6.248  1.00 88.13     0.033 A 
HETATM   15  C17   D T9001      -0.773   6.690   5.733  1.00 88.88     0.087 A 
HETATM   16  C18   D T9001      -1.302   5.493   6.286  1.00 88.55     0.151 A 
HETATM   17 CL     D T9001      -1.578   7.520   4.445  1.00 89.26    -0.080 Cl
HETATM   18  C19   D T9001      -0.629   4.823   7.347  1.00 87.62     0.032 A 
HETATM   19  F21   D T9001      -2.449   4.978   5.811  1.00 88.92    -0.203 F 
HETATM   20  C20   D T9001       0.583   5.360   7.862  1.00 87.82     0.021 A 
ENDBRANCH  12  13
ENDBRANCH  10  12
BRANCH   2  21
HETATM   21  O11   D T9001       6.439   2.977  10.921  1.00 85.44    -0.327 OA
HETATM   22  C12   D T9001       7.559   3.453  11.677  1.00 84.41     0.181 C 
ENDBRANCH   2  21
TORSDOF 3
ENDMDL
MODEL 4
REMARK VINA RESULT:    -7.181      3.105      5.082
REMARK INTER + INTRA:          -8.998
REMARK INTER:                  -8.416
REMARK INTRA:                  -0.582
REMARK UNBOUND:                -0.557
REMARK  3 active torsions:
REMARK  status: ('A' for Active; 'I' for Inactive)
REMARK    1  A    between atoms: C2_2  and  O11_20 
REMARK    2  A    between atoms: C10_10  and  N14_11 
REMARK    3  A    between atoms: N14_11  and  C15_12 
ROOT
HETATM    1  C1    D T9001       1.916   6.035   9.117  1.00 83.47     0.092 A 
HETATM    2  C2    D T9001       0.899   5.031   9.234  1.00 83.68     0.109 A 
HETATM    3  C3    D T9001      -0.157   4.968   8.266  1.00 82.47     0.044 A 
HETATM    4  C4    D T9001      -0.242   5.863   7.191  1.00 82.50     0.088 A 
HETATM    5  C5    D T9001       0.770   6.885   7.055  1.00 84.12     0.055 A 
HETATM    6  C6    D T9001       1.841   6.953   8.031  1.00 83.53     0.021 A 
HETATM    7  N7    D T9001      -1.280   5.726   6.322  1.00 81.78    -0.224 NA
HETATM    8  C8    D T9001      -1.341   6.600   5.285  1.00 83.59     0.200 A 
HETATM    9  N9    D T9001      -0.463   7.601   5.039  1.00 84.30    -0.205 NA
HETATM   10  C10   D T9001       0.602   7.755   5.920  1.00 85.59     0.166 A 
HETATM   11  N13   D T9001       2.976   6.128  10.051  1.00 82.67    -0.099 NA
ENDROOT
BRANCH  10  12
HETATM   12  N14   D T9001       1.554   8.811   5.691  1.00 86.44    -0.227 NA
BRANCH  12  13
HETATM   13  C15   D T9001       2.679   8.766   4.820  1.00 87.38     0.084 A 
HETATM   14  C16   D T9001       3.893   8.104   5.197  1.00 88.13     0.033 A 
HETATM   15  C17   D T9001       5.009   8.069   4.331  1.00 88.88     0.087 A 
HETATM   16  C18   D T9001       4.927   8.704   3.062  1.00 88.55     0.151 A 
HETATM   17 CL     D T9001       6.450   7.258   4.841  1.00 89.26    -0.080 Cl
HETATM   18  C19   D T9001       3.734   9.369   2.657  1.00 87.62     0.032 A 
HETATM   19  F21   D T9001       5.980   8.684   2.227  1.00 88.92    -0.203 F 
HETATM   20  C20   D T9001       2.614   9.402   3.534  1.00 87.82     0.021 A 
ENDBRANCH  12  13
ENDBRANCH  10  12
BRANCH   2  21
HETATM   21  O11   D T9001       1.036   4.167  10.318  1.00 85.44    -0.327 OA
HETATM   22  C12   D T9001       1.137   2.764  10.054  1.00 84.41     0.181 C 
ENDBRANCH   2  21
TORSDOF 3
ENDMDL
MODEL 5
REMARK VINA RESULT:    -7.131      4.144      5.992
REMARK INTER + INTRA:          -8.939
REMARK INTER:                  -8.374
REMARK INTRA:                  -0.564
REMARK UNBOUND:                -0.557
REMARK  3 active torsions:
REMARK  status: ('A' for Active; 'I' for Inactive)
REMARK    1  A    between atoms: C2_2  and  O11_20 
REMARK    2  A    between atoms: C10_10  and  N14_11 
REMARK    3  A    between atoms: N14_11  and  C15_12 
ROOT
HETATM    1  C1    D T9001       3.206   9.534   4.304  1.00 83.47     0.092 A 
HETATM    2  C2    D T9001       4.306   9.277   3.422  1.00 83.68     0.109 A 
HETATM    3  C3    D T9001       5.301   8.310   3.785  1.00 82.47     0.044 A 
HETATM    4  C4    D T9001       5.245   7.592   4.988  1.00 82.50     0.088 A 
HETATM    5  C5    D T9001       4.146   7.838   5.893  1.00 84.12     0.055 A 
HETATM    6  C6    D T9001       3.137   8.814   5.531  1.00 83.53     0.021 A 
HETATM    7  N7    D T9001       6.235   6.695   5.247  1.00 81.78    -0.224 NA
HETATM    8  C8    D T9001       6.158   6.006   6.415  1.00 83.59     0.200 A 
HETATM    9  N9    D T9001       5.188   6.137   7.350  1.00 84.30    -0.205 NA
HETATM   10  C10   D T9001       4.171   7.053   7.100  1.00 85.59     0.166 A 
HETATM   11  N13   D T9001       2.202  10.479   3.981  1.00 82.67    -0.099 NA
ENDROOT
BRANCH  10  12
HETATM   12  N14   D T9001       3.123   7.219   8.074  1.00 86.44    -0.227 NA
BRANCH  12  13
HETATM   13  C15   D T9001       1.964   6.407   8.222  1.00 87.38     0.084 A 
HETATM   14  C16   D T9001       1.932   5.307   9.141  1.00 88.13     0.033 A 
HETATM   15  C17   D T9001       0.780   4.500   9.278  1.00 88.88     0.087 A 
HETATM   16  C18   D T9001      -0.367   4.782   8.488  1.00 88.55     0.151 A 
HETATM   17 CL     D T9001       0.799   3.184  10.401  1.00 89.26    -0.080 Cl
HETATM   18  C19   D T9001      -0.367   5.868   7.566  1.00 87.62     0.032 A 
HETATM   19  F21   D T9001      -1.470   4.022   8.602  1.00 88.92    -0.203 F 
HETATM   20  C20   D T9001       0.796   6.677   7.432  1.00 87.82     0.021 A 
ENDBRANCH  12  13
ENDBRANCH  10  12
BRANCH   2  21
HETATM   21  O11   D T9001       4.309  10.015   2.241  1.00 85.44    -0.327 OA
HETATM   22  C12   D T9001       5.573  10.359   1.663  1.00 84.41     0.181 C 
ENDBRANCH   2  21
TORSDOF 3
ENDMDL
MODEL 6
REMARK VINA RESULT:    -7.113      4.058      7.349
REMARK INTER + INTRA:          -8.918
REMARK INTER:                  -8.396
REMARK INTRA:                  -0.522
REMARK UNBOUND:                -0.557
REMARK  3 active torsions:
REMARK  status: ('A' for Active; 'I' for Inactive)
REMARK    1  A    between atoms: C2_2  and  O11_20 
REMARK    2  A    between atoms: C10_10  and  N14_11 
REMARK    3  A    between atoms: N14_11  and  C15_12 
ROOT
HETATM    1  C1    D T9001       4.540   5.225   9.221  1.00 83.47     0.092 A 
HETATM    2  C2    D T9001       5.836   4.803   8.779  1.00 83.68     0.109 A 
HETATM    3  C3    D T9001       6.386   5.337   7.566  1.00 82.47     0.044 A 
HETATM    4  C4    D T9001       5.698   6.269   6.778  1.00 82.50     0.088 A 
HETATM    5  C5    D T9001       4.388   6.707   7.203  1.00 84.12     0.055 A 
HETATM    6  C6    D T9001       3.828   6.171   8.428  1.00 83.53     0.021 A 
HETATM    7  N7    D T9001       6.300   6.720   5.644  1.00 81.78    -0.224 NA
HETATM    8  C8    D T9001       5.618   7.627   4.898  1.00 83.59     0.200 A 
HETATM    9  N9    D T9001       4.389   8.120   5.178  1.00 84.30    -0.205 NA
HETATM   10  C10   D T9001       3.760   7.667   6.333  1.00 85.59     0.166 A 
HETATM   11  N13   D T9001       3.964   4.724  10.413  1.00 82.67    -0.099 NA
ENDROOT
BRANCH  10  12
HETATM   12  N14   D T9001       2.451   8.169   6.661  1.00 86.44    -0.227 NA
BRANCH  12  13
HETATM   13  C15   D T9001       1.203   7.606   6.273  1.00 87.38     0.084 A 
HETATM   14  C16   D T9001       0.630   6.496   6.977  1.00 88.13     0.033 A 
HETATM   15  C17   D T9001      -0.606   5.936   6.581  1.00 88.88     0.087 A 
HETATM   16  C18   D T9001      -1.293   6.482   5.464  1.00 88.55     0.151 A 
HETATM   17 CL     D T9001      -1.248   4.595   7.466  1.00 89.26    -0.080 Cl
HETATM   18  C19   D T9001      -0.752   7.586   4.745  1.00 87.62     0.032 A 
HETATM   19  F21   D T9001      -2.468   5.961   5.072  1.00 88.92    -0.203 F 
HETATM   20  C20   D T9001       0.494   8.145   5.146  1.00 87.82     0.021 A 
ENDBRANCH  12  13
ENDBRANCH  10  12
BRANCH   2  21
HETATM   21  O11   D T9001       6.475   3.879   9.602  1.00 85.44    -0.327 OA
HETATM   22  C12   D T9001       7.624   4.313  10.339  1.00 84.41     0.181 C 
ENDBRANCH   2  21
TORSDOF 3
ENDMDL
MODEL 7
REMARK VINA RESULT:    -6.883      3.821      6.518
REMARK INTER + INTRA:          -8.647
REMARK INTER:                  -8.059
REMARK INTRA:                  -0.588
REMARK UNBOUND:                -0.557
REMARK  3 active torsions:
REMARK  status: ('A' for Active; 'I' for Inactive)
REMARK    1  A    between atoms: C2_2  and  O11_20 
REMARK    2  A    between atoms: C10_10  and  N14_11 
REMARK    3  A    between atoms: N14_11  and  C15_12 
ROOT
HETATM    1  C1    D T9001       5.591   7.814   7.057  1.00 83.47     0.092 A 
HETATM    2  C2    D T9001       6.818   7.072   7.048  1.00 83.68     0.109 A 
HETATM    3  C3    D T9001       6.887   5.800   7.707  1.00 82.47     0.044 A 
HETATM    4  C4    D T9001       5.788   5.240   8.374  1.00 82.50     0.088 A 
HETATM    5  C5    D T9001       4.543   5.972   8.397  1.00 84.12     0.055 A 
HETATM    6  C6    D T9001       4.467   7.258   7.733  1.00 83.53     0.021 A 
HETATM    7  N7    D T9001       5.949   4.027   8.969  1.00 81.78    -0.224 NA
HETATM    8  C8    D T9001       4.870   3.501   9.605  1.00 83.59     0.200 A 
HETATM    9  N9    D T9001       3.649   4.077   9.704  1.00 84.30    -0.205 NA
HETATM   10  C10   D T9001       3.471   5.318   9.102  1.00 85.59     0.166 A 
HETATM   11  N13   D T9001       5.482   9.072   6.417  1.00 82.67    -0.099 NA
ENDROOT
BRANCH  10  12
HETATM   12  N14   D T9001       2.186   5.961   9.189  1.00 86.44    -0.227 NA
BRANCH  12  13
HETATM   13  C15   D T9001       1.063   5.733   8.345  1.00 87.38     0.084 A 
HETATM   14  C16   D T9001       0.812   6.550   7.194  1.00 88.13     0.033 A 
HETATM   15  C17   D T9001      -0.309   6.322   6.364  1.00 88.88     0.087 A 
HETATM   16  C18   D T9001      -1.206   5.266   6.678  1.00 88.55     0.151 A 
HETATM   17 CL     D T9001      -0.563   7.342   4.989  1.00 89.26    -0.080 Cl
HETATM   18  C19   D T9001      -0.984   4.436   7.814  1.00 87.62     0.032 A 
HETATM   19  F21   D T9001      -2.279   5.038   5.901  1.00 88.92    -0.203 F 
HETATM   20  C20   D T9001       0.145   4.670   8.646  1.00 87.82     0.021 A 
ENDBRANCH  12  13
ENDBRANCH  10  12
BRANCH   2  21
HETATM   21  O11   D T9001       7.874   7.673   6.369  1.00 85.44    -0.327 OA
HETATM   22  C12   D T9001       9.127   7.803   7.049  1.00 84.41     0.181 C 
ENDBRANCH   2  21
TORSDOF 3
ENDMDL
MODEL 8
REMARK VINA RESULT:    -6.788      4.118      6.991
REMARK INTER + INTRA:          -8.536
REMARK INTER:                  -7.945
REMARK INTRA:                  -0.590
REMARK UNBOUND:                -0.557
REMARK  3 active torsions:
REMARK  status: ('A' for Active; 'I' for Inactive)
REMARK    1  A    between atoms: C2_2  and  O11_20 
REMARK    2  A    between atoms: C10_10  and  N14_11 
REMARK    3  A    between atoms: N14_11  and  C15_12 
ROOT
HETATM    1  C1    D T9001       6.110   7.936   6.908  1.00 83.47     0.092 A 
HETATM    2  C2    D T9001       6.891   8.017   5.708  1.00 83.68     0.109 A 
HETATM    3  C3    D T9001       6.243   8.242   4.448  1.00 82.47     0.044 A 
HETATM    4  C4    D T9001       4.853   8.387   4.336  1.00 82.50     0.088 A 
HETATM    5  C5    D T9001       4.047   8.306   5.532  1.00 84.12     0.055 A 
HETATM    6  C6    D T9001       4.697   8.079   6.808  1.00 83.53     0.021 A 
HETATM    7  N7    D T9001       4.329   8.598   3.098  1.00 81.78    -0.224 NA
HETATM    8  C8    D T9001       2.981   8.742   3.013  1.00 83.59     0.200 A 
HETATM    9  N9    D T9001       2.110   8.688   4.048  1.00 84.30    -0.205 NA
HETATM   10  C10   D T9001       2.632   8.470   5.319  1.00 85.59     0.166 A 
HETATM   11  N13   D T9001       6.712   7.717   8.170  1.00 82.67    -0.099 NA
ENDROOT
BRANCH  10  12
HETATM   12  N14   D T9001       1.735   8.405   6.443  1.00 86.44    -0.227 NA
BRANCH  12  13
HETATM   13  C15   D T9001       1.042   7.253   6.912  1.00 87.38     0.084 A 
HETATM   14  C16   D T9001       1.501   6.515   8.052  1.00 88.13     0.033 A 
HETATM   15  C17   D T9001       0.812   5.368   8.507  1.00 88.88     0.087 A 
HETATM   16  C18   D T9001      -0.355   4.937   7.822  1.00 88.55     0.151 A 
HETATM   17 CL     D T9001       1.414   4.514   9.887  1.00 89.26    -0.080 Cl
HETATM   18  C19   D T9001      -0.838   5.650   6.687  1.00 87.62     0.032 A 
HETATM   19  F21   D T9001      -1.021   3.847   8.239  1.00 88.92    -0.203 F 
HETATM   20  C20   D T9001      -0.140   6.803   6.232  1.00 87.82     0.021 A 
ENDBRANCH  12  13
ENDBRANCH  10  12
BRANCH   2  21
HETATM   21  O11   D T9001       8.265   7.869   5.880  1.00 85.44    -0.327 OA
HETATM   22  C12   D T9001       9.133   8.767   5.179  1.00 84.41     0.181 C 
ENDBRANCH   2  21
TORSDOF 3
ENDMDL
MODEL 9
REMARK VINA RESULT:    -6.714      4.229      5.817
REMARK INTER + INTRA:          -8.449
REMARK INTER:                  -8.319
REMARK INTRA:                  -0.130
REMARK UNBOUND:                -0.557
REMARK  3 active torsions:
REMARK  status: ('A' for Active; 'I' for Inactive)
REMARK    1  A    between atoms: C2_2  and  O11_20 
REMARK    2  A    between atoms: C10_10  and  N14_11 
REMARK    3  A    between atoms: N14_11  and  C15_12 
ROOT
HETATM    1  C1    D T9001       5.817   8.230   4.593  1.00 83.47     0.092 A 
HETATM    2  C2    D T9001       5.284   8.709   3.352  1.00 83.68     0.109 A 
HETATM    3  C3    D T9001       3.875   8.943   3.222  1.00 82.47     0.044 A 
HETATM    4  C4    D T9001       2.978   8.718   4.276  1.00 82.50     0.088 A 
HETATM    5  C5    D T9001       3.493   8.232   5.535  1.00 84.12     0.055 A 
HETATM    6  C6    D T9001       4.917   7.995   5.672  1.00 83.53     0.021 A 
HETATM    7  N7    D T9001       1.658   8.968   4.059  1.00 81.78    -0.224 NA
HETATM    8  C8    D T9001       0.807   8.749   5.095  1.00 83.59     0.200 A 
HETATM    9  N9    D T9001       1.153   8.297   6.323  1.00 84.30    -0.205 NA
HETATM   10  C10   D T9001       2.499   8.034   6.558  1.00 85.59     0.166 A 
HETATM   11  N13   D T9001       7.202   7.990   4.762  1.00 82.67    -0.099 NA
ENDROOT
BRANCH  10  12
HETATM   12  N14   D T9001       2.903   7.550   7.853  1.00 86.44    -0.227 NA
BRANCH  12  13
HETATM   13  C15   D T9001       2.375   6.421   8.540  1.00 87.38     0.084 A 
HETATM   14  C16   D T9001       1.094   5.870   8.205  1.00 88.13     0.033 A 
HETATM   15  C17   D T9001       0.573   4.754   8.896  1.00 88.88     0.087 A 
HETATM   16  C18   D T9001       1.330   4.167   9.945  1.00 88.55     0.151 A 
HETATM   17 CL     D T9001      -0.981   4.134   8.451  1.00 89.26    -0.080 Cl
HETATM   18  C19   D T9001       2.607   4.689  10.301  1.00 87.62     0.032 A 
HETATM   19  F21   D T9001       0.848   3.106  10.615  1.00 88.92    -0.203 F 
HETATM   20  C20   D T9001       3.127   5.814   9.602  1.00 87.82     0.021 A 
ENDBRANCH  12  13
ENDBRANCH  10  12
BRANCH   2  21
HETATM   21  O11   D T9001       6.220   8.919   2.343  1.00 85.44    -0.327 OA
HETATM   22  C12   D T9001       5.915   9.884   1.329  1.00 84.41     0.181 C 
ENDBRANCH   2  21
TORSDOF 3
ENDMDL
