MODEL 1
REMARK VINA RESULT:    -8.837      0.000      0.000
REMARK INTER + INTRA:         -10.964
REMARK INTER:                 -10.387
REMARK INTRA:                  -0.577
REMARK UNBOUND:                -0.577
REMARK  3 active torsions:
REMARK  status: ('A' for Active; 'I' for Inactive)
REMARK    1  A    between atoms: C2_2  and  O11_20 
REMARK    2  A    between atoms: C10_10  and  N14_11 
REMARK    3  A    between atoms: N14_11  and  C15_12 
ROOT
HETATM    1  C1    D T9001      -2.509  -3.619  11.968  1.00 83.47     0.092 A 
HETATM    2  C2    D T9001      -2.646  -4.909  11.359  1.00 83.68     0.109 A 
HETATM    3  C3    D T9001      -3.709  -5.149  10.424  1.00 82.47     0.044 A 
HETATM    4  C4    D T9001      -4.636  -4.159  10.074  1.00 82.50     0.088 A 
HETATM    5  C5    D T9001      -4.519  -2.852  10.678  1.00 84.12     0.055 A 
HETATM    6  C6    D T9001      -3.447  -2.604  11.623  1.00 83.53     0.021 A 
HETATM    7  N7    D T9001      -5.608  -4.479   9.177  1.00 81.78    -0.224 NA
HETATM    8  C8    D T9001      -6.493  -3.504   8.849  1.00 83.59     0.200 A 
HETATM    9  N9    D T9001      -6.500  -2.241   9.337  1.00 84.30    -0.205 NA
HETATM   10  C10   D T9001      -5.513  -1.901  10.256  1.00 85.59     0.166 A 
HETATM   11  N13   D T9001      -1.474  -3.342  12.892  1.00 82.67    -0.099 NA
ENDROOT
BRANCH  10  12
HETATM   12  N14   D T9001      -5.491  -0.565  10.797  1.00 86.44    -0.227 NA
BRANCH  12  13
HETATM   13  C15   D T9001      -4.819   0.562  10.250  1.00 87.38     0.084 A 
HETATM   14  C16   D T9001      -5.384   1.324   9.175  1.00 88.13     0.033 A 
HETATM   15  C17   D T9001      -4.707   2.439   8.632  1.00 88.88     0.087 A 
HETATM   16  C18   D T9001      -3.440   2.810   9.158  1.00 88.55     0.151 A 
HETATM   17 CL     D T9001      -5.437   3.320   7.333  1.00 89.26    -0.080 Cl
HETATM   18  C19   D T9001      -2.852   2.075  10.226  1.00 87.62     0.032 A 
HETATM   19  F21   D T9001      -2.780   3.865   8.650  1.00 88.92    -0.203 F 
HETATM   20  C20   D T9001      -3.538   0.953  10.770  1.00 87.82     0.021 A 
ENDBRANCH  12  13
ENDBRANCH  10  12
BRANCH   2  21
HETATM   21  O11   D T9001      -1.694  -5.852  11.741  1.00 85.44    -0.327 OA
HETATM   22  C12   D T9001      -2.155  -7.133  12.185  1.00 84.41     0.181 C 
ENDBRANCH   2  21
TORSDOF 3
ENDMDL
MODEL 2
REMARK VINA RESULT:    -8.567      3.984      6.586
REMARK INTER + INTRA:         -10.646
REMARK INTER:                 -10.056
REMARK INTRA:                  -0.590
REMARK UNBOUND:                -0.577
REMARK  3 active torsions:
REMARK  status: ('A' for Active; 'I' for Inactive)
REMARK    1  A    between atoms: C2_2  and  O11_20 
REMARK    2  A    between atoms: C10_10  and  N14_11 
REMARK    3  A    between atoms: N14_11  and  C15_12 
ROOT
HETATM    1  C1    D T9001      -1.061   1.105  11.090  1.00 83.47     0.092 A 
HETATM    2  C2    D T9001      -0.689   2.231  10.284  1.00 83.68     0.109 A 
HETATM    3  C3    D T9001      -1.656   2.832   9.410  1.00 82.47     0.044 A 
HETATM    4  C4    D T9001      -2.970   2.359   9.306  1.00 82.50     0.088 A 
HETATM    5  C5    D T9001      -3.365   1.223  10.107  1.00 84.12     0.055 A 
HETATM    6  C6    D T9001      -2.393   0.612  10.992  1.00 83.53     0.021 A 
HETATM    7  N7    D T9001      -3.815   2.996   8.451  1.00 81.78    -0.224 NA
HETATM    8  C8    D T9001      -5.086   2.524   8.370  1.00 83.59     0.200 A 
HETATM    9  N9    D T9001      -5.587   1.472   9.060  1.00 84.30    -0.205 NA
HETATM   10  C10   D T9001      -4.733   0.811   9.936  1.00 85.59     0.166 A 
HETATM   11  N13   D T9001      -0.138   0.485  11.965  1.00 82.67    -0.099 NA
ENDROOT
BRANCH  10  12
HETATM   12  N14   D T9001      -5.233  -0.314  10.685  1.00 86.44    -0.227 NA
BRANCH  12  13
HETATM   13  C15   D T9001      -5.162  -1.684  10.309  1.00 87.38     0.084 A 
HETATM   14  C16   D T9001      -4.258  -2.592  10.952  1.00 88.13     0.033 A 
HETATM   15  C17   D T9001      -4.188  -3.951  10.569  1.00 88.88     0.087 A 
HETATM   16  C18   D T9001      -5.025  -4.425   9.525  1.00 88.55     0.151 A 
HETATM   17 CL     D T9001      -3.075  -5.001  11.380  1.00 89.26    -0.080 Cl
HETATM   18  C19   D T9001      -5.935  -3.549   8.866  1.00 87.62     0.032 A 
HETATM   19  F21   D T9001      -4.968  -5.713   9.144  1.00 88.92    -0.203 F 
HETATM   20  C20   D T9001      -6.002  -2.182   9.256  1.00 87.82     0.021 A 
ENDBRANCH  12  13
ENDBRANCH  10  12
BRANCH   2  21
HETATM   21  O11   D T9001       0.627   2.661  10.431  1.00 85.44    -0.327 OA
HETATM   22  C12   D T9001       0.858   4.048  10.704  1.00 84.41     0.181 C 
ENDBRANCH   2  21
TORSDOF 3
ENDMDL
MODEL 3
REMARK VINA RESULT:    -8.320      2.679      3.809
REMARK INTER + INTRA:         -10.355
REMARK INTER:                  -9.803
REMARK INTRA:                  -0.552
REMARK UNBOUND:                -0.577
REMARK  3 active torsions:
REMARK  status: ('A' for Active; 'I' for Inactive)
REMARK    1  A    between atoms: C2_2  and  O11_20 
REMARK    2  A    between atoms: C10_10  and  N14_11 
REMARK    3  A    between atoms: N14_11  and  C15_12 
ROOT
HETATM    1  C1    D T9001      -0.376  -2.879  11.950  1.00 83.47     0.092 A 
HETATM    2  C2    D T9001       0.561  -3.875  11.522  1.00 83.68     0.109 A 
HETATM    3  C3    D T9001       0.090  -5.066  10.874  1.00 82.47     0.044 A 
HETATM    4  C4    D T9001      -1.270  -5.303  10.636  1.00 82.50     0.088 A 
HETATM    5  C5    D T9001      -2.232  -4.313  11.062  1.00 84.12     0.055 A 
HETATM    6  C6    D T9001      -1.762  -3.108  11.717  1.00 83.53     0.021 A 
HETATM    7  N7    D T9001      -1.620  -6.460  10.013  1.00 81.78    -0.224 NA
HETATM    8  C8    D T9001      -2.942  -6.668   9.788  1.00 83.59     0.200 A 
HETATM    9  N9    D T9001      -3.947  -5.827  10.134  1.00 84.30    -0.205 NA
HETATM   10  C10   D T9001      -3.603  -4.641  10.773  1.00 85.59     0.166 A 
HETATM   11  N13   D T9001       0.047  -1.690  12.590  1.00 82.67    -0.099 NA
ENDROOT
BRANCH  10  12
HETATM   12  N14   D T9001      -4.647  -3.725  11.155  1.00 86.44    -0.227 NA
BRANCH  12  13
HETATM   13  C15   D T9001      -4.997  -2.513  10.498  1.00 87.38     0.084 A 
HETATM   14  C16   D T9001      -4.835  -1.239  11.136  1.00 88.13     0.033 A 
HETATM   15  C17   D T9001      -5.191  -0.040  10.479  1.00 88.88     0.087 A 
HETATM   16  C18   D T9001      -5.722  -0.097   9.163  1.00 88.55     0.151 A 
HETATM   17 CL     D T9001      -4.976   1.469  11.301  1.00 89.26    -0.080 Cl
HETATM   18  C19   D T9001      -5.893  -1.345   8.500  1.00 87.62     0.032 A 
HETATM   19  F21   D T9001      -6.069   1.034   8.524  1.00 88.92    -0.203 F 
HETATM   20  C20   D T9001      -5.533  -2.551   9.166  1.00 87.82     0.021 A 
ENDBRANCH  12  13
ENDBRANCH  10  12
BRANCH   2  21
HETATM   21  O11   D T9001       1.899  -3.586  11.781  1.00 85.44    -0.327 OA
HETATM   22  C12   D T9001       2.604  -4.422  12.705  1.00 84.41     0.181 C 
ENDBRANCH   2  21
TORSDOF 3
ENDMDL
MODEL 4
REMARK VINA RESULT:    -8.189      4.702      7.414
REMARK INTER + INTRA:         -10.202
REMARK INTER:                  -9.779
REMARK INTRA:                  -0.424
REMARK UNBOUND:                -0.577
REMARK  3 active torsions:
REMARK  status: ('A' for Active; 'I' for Inactive)
REMARK    1  A    between atoms: C2_2  and  O11_20 
REMARK    2  A    between atoms: C10_10  and  N14_11 
REMARK    3  A    between atoms: N14_11  and  C15_12 
ROOT
HETATM    1  C1    D T9001      -3.897   0.280  10.475  1.00 83.47     0.092 A 
HETATM    2  C2    D T9001      -5.014   0.683   9.672  1.00 83.68     0.109 A 
HETATM    3  C3    D T9001      -5.912  -0.307   9.149  1.00 82.47     0.044 A 
HETATM    4  C4    D T9001      -5.742  -1.677   9.393  1.00 82.50     0.088 A 
HETATM    5  C5    D T9001      -4.621  -2.105  10.197  1.00 84.12     0.055 A 
HETATM    6  C6    D T9001      -3.711  -1.109  10.728  1.00 83.53     0.021 A 
HETATM    7  N7    D T9001      -6.646  -2.540   8.856  1.00 81.78    -0.224 NA
HETATM    8  C8    D T9001      -6.465  -3.862   9.108  1.00 83.59     0.200 A 
HETATM    9  N9    D T9001      -5.462  -4.399   9.843  1.00 84.30    -0.205 NA
HETATM   10  C10   D T9001      -4.530  -3.528  10.395  1.00 85.59     0.166 A 
HETATM   11  N13   D T9001      -2.991   1.225  11.011  1.00 82.67    -0.099 NA
ENDROOT
BRANCH  10  12
HETATM   12  N14   D T9001      -3.449  -4.066  11.181  1.00 86.44    -0.227 NA
BRANCH  12  13
HETATM   13  C15   D T9001      -2.944  -5.395  11.134  1.00 87.38     0.084 A 
HETATM   14  C16   D T9001      -3.477  -6.430  11.971  1.00 88.13     0.033 A 
HETATM   15  C17   D T9001      -2.966  -7.747  11.923  1.00 88.88     0.087 A 
HETATM   16  C18   D T9001      -1.902  -8.050  11.032  1.00 88.55     0.151 A 
HETATM   17 CL     D T9001      -3.647  -8.955  12.960  1.00 89.26    -0.080 Cl
HETATM   18  C19   D T9001      -1.351  -7.046  10.186  1.00 87.62     0.032 A 
HETATM   19  F21   D T9001      -1.401  -9.297  10.977  1.00 88.92    -0.203 F 
HETATM   20  C20   D T9001      -1.870  -5.721  10.238  1.00 87.82     0.021 A 
ENDBRANCH  12  13
ENDBRANCH  10  12
BRANCH   2  21
HETATM   21  O11   D T9001      -5.136   2.055   9.466  1.00 85.44    -0.327 OA
HETATM   22  C12   D T9001      -5.164   2.535   8.117  1.00 84.41     0.181 C 
ENDBRANCH   2  21
TORSDOF 3
ENDMDL
MODEL 5
REMARK VINA RESULT:    -8.087      4.382      7.078
REMARK INTER + INTRA:         -10.082
REMARK INTER:                  -9.724
REMARK INTRA:                  -0.358
REMARK UNBOUND:                -0.577
REMARK  3 active torsions:
REMARK  status: ('A' for Active; 'I' for Inactive)
REMARK    1  A    between atoms: C2_2  and  O11_20 
REMARK    2  A    between atoms: C10_10  and  N14_11 
REMARK    3  A    between atoms: N14_11  and  C15_12 
ROOT
HETATM    1  C1    D T9001      -4.225   0.238  10.506  1.00 83.47     0.092 A 
HETATM    2  C2    D T9001      -5.202   0.337   9.461  1.00 83.68     0.109 A 
HETATM    3  C3    D T9001      -5.765  -0.857   8.895  1.00 82.47     0.044 A 
HETATM    4  C4    D T9001      -5.396  -2.137   9.327  1.00 82.50     0.088 A 
HETATM    5  C5    D T9001      -4.410  -2.260  10.377  1.00 84.12     0.055 A 
HETATM    6  C6    D T9001      -3.839  -1.058  10.952  1.00 83.53     0.021 A 
HETATM    7  N7    D T9001      -5.986  -3.209   8.732  1.00 81.78    -0.224 NA
HETATM    8  C8    D T9001      -5.616  -4.441   9.168  1.00 83.59     0.200 A 
HETATM    9  N9    D T9001      -4.709  -4.699  10.139  1.00 84.30    -0.205 NA
HETATM   10  C10   D T9001      -4.097  -3.612  10.755  1.00 85.59     0.166 A 
HETATM   11  N13   D T9001      -3.649   1.390  11.091  1.00 82.67    -0.099 NA
ENDROOT
BRANCH  10  12
HETATM   12  N14   D T9001      -3.125  -3.851  11.792  1.00 86.44    -0.227 NA
BRANCH  12  13
HETATM   13  C15   D T9001      -2.115  -4.853  11.795  1.00 87.38     0.084 A 
HETATM   14  C16   D T9001      -0.755  -4.546  11.461  1.00 88.13     0.033 A 
HETATM   15  C17   D T9001       0.243  -5.548  11.459  1.00 88.88     0.087 A 
HETATM   16  C18   D T9001      -0.109  -6.883  11.791  1.00 88.55     0.151 A 
HETATM   17 CL     D T9001       1.868  -5.120  11.045  1.00 89.26    -0.080 Cl
HETATM   18  C19   D T9001      -1.451  -7.220  12.128  1.00 87.62     0.032 A 
HETATM   19  F21   D T9001       0.826  -7.849  11.790  1.00 88.92    -0.203 F 
HETATM   20  C20   D T9001      -2.452  -6.208  12.129  1.00 87.82     0.021 A 
ENDBRANCH  12  13
ENDBRANCH  10  12
BRANCH   2  21
HETATM   21  O11   D T9001      -5.534   1.633   9.076  1.00 85.44    -0.327 OA
HETATM   22  C12   D T9001      -5.219   2.041   7.740  1.00 84.41     0.181 C 
ENDBRANCH   2  21
TORSDOF 3
ENDMDL
MODEL 6
REMARK VINA RESULT:    -8.026      3.922      6.172
REMARK INTER + INTRA:         -10.010
REMARK INTER:                  -9.446
REMARK INTRA:                  -0.565
REMARK UNBOUND:                -0.577
REMARK  3 active torsions:
REMARK  status: ('A' for Active; 'I' for Inactive)
REMARK    1  A    between atoms: C2_2  and  O11_20 
REMARK    2  A    between atoms: C10_10  and  N14_11 
REMARK    3  A    between atoms: N14_11  and  C15_12 
ROOT
HETATM    1  C1    D T9001      -4.154   0.217  10.504  1.00 83.47     0.092 A 
HETATM    2  C2    D T9001      -5.206   0.281   9.532  1.00 83.68     0.109 A 
HETATM    3  C3    D T9001      -5.788  -0.931   9.030  1.00 82.47     0.044 A 
HETATM    4  C4    D T9001      -5.367  -2.198   9.455  1.00 82.50     0.088 A 
HETATM    5  C5    D T9001      -4.305  -2.285  10.432  1.00 84.12     0.055 A 
HETATM    6  C6    D T9001      -3.714  -1.064  10.943  1.00 83.53     0.021 A 
HETATM    7  N7    D T9001      -5.980  -3.289   8.924  1.00 81.78    -0.224 NA
HETATM    8  C8    D T9001      -5.559  -4.507   9.353  1.00 83.59     0.200 A 
HETATM    9  N9    D T9001      -4.579  -4.733  10.260  1.00 84.30    -0.205 NA
HETATM   10  C10   D T9001      -3.942  -3.625  10.810  1.00 85.59     0.166 A 
HETATM   11  N13   D T9001      -3.556   1.389  11.025  1.00 82.67    -0.099 NA
ENDROOT
BRANCH  10  12
HETATM   12  N14   D T9001      -2.893  -3.830  11.777  1.00 86.44    -0.227 NA
BRANCH  12  13
HETATM   13  C15   D T9001      -1.494  -3.721  11.547  1.00 87.38     0.084 A 
HETATM   14  C16   D T9001      -0.703  -2.716  12.195  1.00 88.13     0.033 A 
HETATM   15  C17   D T9001       0.686  -2.610  11.957  1.00 88.88     0.087 A 
HETATM   16  C18   D T9001       1.310  -3.513  11.057  1.00 88.55     0.151 A 
HETATM   17 CL     D T9001       1.589  -1.374  12.766  1.00 89.26    -0.080 Cl
HETATM   18  C19   D T9001       0.553  -4.524  10.398  1.00 87.62     0.032 A 
HETATM   19  F21   D T9001       2.630  -3.424  10.816  1.00 88.92    -0.203 F 
HETATM   20  C20   D T9001      -0.845  -4.627  10.641  1.00 87.82     0.021 A 
ENDBRANCH  12  13
ENDBRANCH  10  12
BRANCH   2  21
HETATM   21  O11   D T9001      -5.587   1.565   9.150  1.00 85.44    -0.327 OA
HETATM   22  C12   D T9001      -5.195   2.026   7.852  1.00 84.41     0.181 C 
ENDBRANCH   2  21
TORSDOF 3
ENDMDL
MODEL 7
REMARK VINA RESULT:    -8.020      2.573      4.296
REMARK INTER + INTRA:         -10.003
REMARK INTER:                  -9.640
REMARK INTRA:                  -0.363
REMARK UNBOUND:                -0.577
REMARK  3 active torsions:
REMARK  status: ('A' for Active; 'I' for Inactive)
REMARK    1  A    between atoms: C2_2  and  O11_20 
REMARK    2  A    between atoms: C10_10  and  N14_11 
REMARK    3  A    between atoms: N14_11  and  C15_12 
ROOT
HETATM    1  C1    D T9001      -2.789  -7.740  12.181  1.00 83.47     0.092 A 
HETATM    2  C2    D T9001      -1.389  -8.038  12.087  1.00 83.68     0.109 A 
HETATM    3  C3    D T9001      -0.463  -7.007  11.713  1.00 82.47     0.044 A 
HETATM    4  C4    D T9001      -0.873  -5.698  11.430  1.00 82.50     0.088 A 
HETATM    5  C5    D T9001      -2.280  -5.377  11.516  1.00 84.12     0.055 A 
HETATM    6  C6    D T9001      -3.219  -6.414  11.894  1.00 83.53     0.021 A 
HETATM    7  N7    D T9001       0.078  -4.789  11.086  1.00 81.78    -0.224 NA
HETATM    8  C8    D T9001      -0.341  -3.525  10.820  1.00 83.59     0.200 A 
HETATM    9  N9    D T9001      -1.622  -3.089  10.862  1.00 84.30    -0.205 NA
HETATM   10  C10   D T9001      -2.605  -4.008  11.210  1.00 85.59     0.166 A 
HETATM   11  N13   D T9001      -3.733  -8.728  12.549  1.00 82.67    -0.099 NA
ENDROOT
BRANCH  10  12
HETATM   12  N14   D T9001      -3.979  -3.578  11.263  1.00 86.44    -0.227 NA
BRANCH  12  13
HETATM   13  C15   D T9001      -4.549  -2.470  10.577  1.00 87.38     0.084 A 
HETATM   14  C16   D T9001      -4.441  -1.135  11.088  1.00 88.13     0.033 A 
HETATM   15  C17   D T9001      -5.016  -0.039  10.404  1.00 88.88     0.087 A 
HETATM   16  C18   D T9001      -5.717  -0.266   9.190  1.00 88.55     0.151 A 
HETATM   17 CL     D T9001      -4.855   1.550  11.071  1.00 89.26    -0.080 Cl
HETATM   18  C19   D T9001      -5.841  -1.579   8.655  1.00 87.62     0.032 A 
HETATM   19  F21   D T9001      -6.273   0.764   8.528  1.00 88.92    -0.203 F 
HETATM   20  C20   D T9001      -5.260  -2.679   9.346  1.00 87.82     0.021 A 
ENDBRANCH  12  13
ENDBRANCH  10  12
BRANCH   2  21
HETATM   21  O11   D T9001      -1.039  -9.354  12.384  1.00 85.44    -0.327 OA
HETATM   22  C12   D T9001       0.338  -9.639  12.658  1.00 84.41     0.181 C 
ENDBRANCH   2  21
TORSDOF 3
ENDMDL
MODEL 8
REMARK VINA RESULT:    -7.924      4.518      6.090
REMARK INTER + INTRA:          -9.891
REMARK INTER:                  -9.294
REMARK INTRA:                  -0.596
REMARK UNBOUND:                -0.577
REMARK  3 active torsions:
REMARK  status: ('A' for Active; 'I' for Inactive)
REMARK    1  A    between atoms: C2_2  and  O11_20 
REMARK    2  A    between atoms: C10_10  and  N14_11 
REMARK    3  A    between atoms: N14_11  and  C15_12 
ROOT
HETATM    1  C1    D T9001       0.824  -2.182  10.036  1.00 83.47     0.092 A 
HETATM    2  C2    D T9001       1.766  -1.266   9.462  1.00 83.68     0.109 A 
HETATM    3  C3    D T9001       1.409   0.115   9.299  1.00 82.47     0.044 A 
HETATM    4  C4    D T9001       0.159   0.617   9.682  1.00 82.50     0.088 A 
HETATM    5  C5    D T9001      -0.806  -0.290  10.260  1.00 84.12     0.055 A 
HETATM    6  C6    D T9001      -0.452  -1.686  10.427  1.00 83.53     0.021 A 
HETATM    7  N7    D T9001      -0.086   1.941   9.490  1.00 81.78    -0.224 NA
HETATM    8  C8    D T9001      -1.303   2.408   9.872  1.00 83.59     0.200 A 
HETATM    9  N9    D T9001      -2.297   1.672  10.424  1.00 84.30    -0.205 NA
HETATM   10  C10   D T9001      -2.060   0.316  10.625  1.00 85.59     0.166 A 
HETATM   11  N13   D T9001       1.138  -3.550  10.215  1.00 82.67    -0.099 NA
ENDROOT
BRANCH  10  12
HETATM   12  N14   D T9001      -3.096  -0.497  11.208  1.00 86.44    -0.227 NA
BRANCH  12  13
HETATM   13  C15   D T9001      -3.990  -1.360  10.516  1.00 87.38     0.084 A 
HETATM   14  C16   D T9001      -4.087  -2.754  10.839  1.00 88.13     0.033 A 
HETATM   15  C17   D T9001      -4.973  -3.607  10.142  1.00 88.88     0.087 A 
HETATM   16  C18   D T9001      -5.778  -3.076   9.100  1.00 88.55     0.151 A 
HETATM   17 CL     D T9001      -5.046  -5.282  10.574  1.00 89.26    -0.080 Cl
HETATM   18  C19   D T9001      -5.705  -1.696   8.755  1.00 87.62     0.032 A 
HETATM   19  F21   D T9001      -6.622  -3.874   8.424  1.00 88.92    -0.203 F 
HETATM   20  C20   D T9001      -4.813  -0.841   9.460  1.00 87.82     0.021 A 
ENDBRANCH  12  13
ENDBRANCH  10  12
BRANCH   2  21
HETATM   21  O11   D T9001       2.993  -1.819   9.103  1.00 85.44    -0.327 OA
HETATM   22  C12   D T9001       4.184  -1.117   9.478  1.00 84.41     0.181 C 
ENDBRANCH   2  21
TORSDOF 3
ENDMDL
MODEL 9
REMARK VINA RESULT:    -7.884      3.207      4.369
REMARK INTER + INTRA:          -9.843
REMARK INTER:                  -9.342
REMARK INTRA:                  -0.501
REMARK UNBOUND:                -0.577
REMARK  3 active torsions:
REMARK  status: ('A' for Active; 'I' for Inactive)
REMARK    1  A    between atoms: C2_2  and  O11_20 
REMARK    2  A    between atoms: C10_10  and  N14_11 
REMARK    3  A    between atoms: N14_11  and  C15_12 
ROOT
HETATM    1  C1    D T9001      -3.754  -2.735  10.766  1.00 83.47     0.092 A 
HETATM    2  C2    D T9001      -4.807  -3.084   9.858  1.00 83.68     0.109 A 
HETATM    3  C3    D T9001      -5.497  -2.053   9.135  1.00 82.47     0.044 A 
HETATM    4  C4    D T9001      -5.180  -0.696   9.279  1.00 82.50     0.088 A 
HETATM    5  C5    D T9001      -4.124  -0.322  10.192  1.00 84.12     0.055 A 
HETATM    6  C6    D T9001      -3.424  -1.359  10.924  1.00 83.53     0.021 A 
HETATM    7  N7    D T9001      -5.888   0.208   8.550  1.00 81.78    -0.224 NA
HETATM    8  C8    D T9001      -5.562   1.517   8.702  1.00 83.59     0.200 A 
HETATM    9  N9    D T9001      -4.598   2.005   9.519  1.00 84.30    -0.205 NA
HETATM   10  C10   D T9001      -3.869   1.092  10.272  1.00 85.59     0.166 A 
HETATM   11  N13   D T9001      -3.049  -3.722  11.495  1.00 82.67    -0.099 NA
ENDROOT
BRANCH  10  12
HETATM   12  N14   D T9001      -2.836   1.577  11.152  1.00 86.44    -0.227 NA
BRANCH  12  13
HETATM   13  C15   D T9001      -1.472   1.800  10.819  1.00 87.38     0.084 A 
HETATM   14  C16   D T9001      -0.632   2.641  11.622  1.00 88.13     0.033 A 
HETATM   15  C17   D T9001       0.722   2.864  11.281  1.00 88.88     0.087 A 
HETATM   16  C18   D T9001       1.259   2.247  10.120  1.00 88.55     0.151 A 
HETATM   17 CL     D T9001       1.687   3.891  12.287  1.00 89.26    -0.080 Cl
HETATM   18  C19   D T9001       0.452   1.406   9.303  1.00 87.62     0.032 A 
HETATM   19  F21   D T9001       2.543   2.452   9.779  1.00 88.92    -0.203 F 
HETATM   20  C20   D T9001      -0.910   1.184   9.650  1.00 87.82     0.021 A 
ENDBRANCH  12  13
ENDBRANCH  10  12
BRANCH   2  21
HETATM   21  O11   D T9001      -5.076  -4.447   9.751  1.00 85.44    -0.327 OA
HETATM   22  C12   D T9001      -6.137  -4.989  10.546  1.00 84.41     0.181 C 
ENDBRANCH   2  21
TORSDOF 3
ENDMDL
