MODEL 1
REMARK VINA RESULT:    -7.437      0.000      0.000
REMARK INTER + INTRA:          -9.119
REMARK INTER:                  -8.741
REMARK INTRA:                  -0.377
REMARK UNBOUND:                -0.377
REMARK  3 active torsions:
REMARK  status: ('A' for Active; 'I' for Inactive)
REMARK    1  A    between atoms: C2_2  and  O11_20 
REMARK    2  A    between atoms: C10_10  and  N14_11 
REMARK    3  A    between atoms: N14_11  and  C15_12 
ROOT
HETATM    1  C1    D T9001       2.535   1.654  11.168  1.00 83.47     0.092 A 
HETATM    2  C2    D T9001       2.611   2.608  10.099  1.00 83.68     0.109 A 
HETATM    3  C3    D T9001       1.699   3.714  10.063  1.00 82.47     0.044 A 
HETATM    4  C4    D T9001       0.719   3.909  11.045  1.00 82.50     0.088 A 
HETATM    5  C5    D T9001       0.622   2.959  12.129  1.00 84.12     0.055 A 
HETATM    6  C6    D T9001       1.541   1.839  12.170  1.00 83.53     0.021 A 
HETATM    7  N7    D T9001      -0.101   4.989  10.929  1.00 81.78    -0.224 NA
HETATM    8  C8    D T9001      -1.041   5.162  11.893  1.00 83.59     0.200 A 
HETATM    9  N9    D T9001      -1.241   4.352  12.960  1.00 84.30    -0.205 NA
HETATM   10  C10   D T9001      -0.412   3.242  13.090  1.00 85.59     0.166 A 
HETATM   11  N13   D T9001       3.418   0.551  11.239  1.00 82.67    -0.099 NA
ENDROOT
BRANCH  10  12
HETATM   12  N14   D T9001      -0.598   2.358  14.212  1.00 86.44    -0.227 NA
BRANCH  12  13
HETATM   13  C15   D T9001      -1.694   1.474  14.424  1.00 87.38     0.084 A 
HETATM   14  C16   D T9001      -2.966   1.696  13.803  1.00 88.13     0.033 A 
HETATM   15  C17   D T9001      -4.053   0.818  14.022  1.00 88.88     0.087 A 
HETATM   16  C18   D T9001      -3.880  -0.303  14.877  1.00 88.55     0.151 A 
HETATM   17 CL     D T9001      -5.567   1.139  13.249  1.00 89.26    -0.080 Cl
HETATM   18  C19   D T9001      -2.628  -0.552  15.507  1.00 87.62     0.032 A 
HETATM   19  F21   D T9001      -4.903  -1.146  15.101  1.00 88.92    -0.203 F 
HETATM   20  C20   D T9001      -1.538   0.334  15.283  1.00 87.82     0.021 A 
ENDBRANCH  12  13
ENDBRANCH  10  12
BRANCH   2  21
HETATM   21  O11   D T9001       3.606   2.367   9.155  1.00 85.44    -0.327 OA
HETATM   22  C12   D T9001       4.667   3.321   9.034  1.00 84.41     0.181 C 
ENDBRANCH   2  21
TORSDOF 3
ENDMDL
MODEL 2
REMARK VINA RESULT:    -7.424      1.646      1.828
REMARK INTER + INTRA:          -9.103
REMARK INTER:                  -8.631
REMARK INTRA:                  -0.471
REMARK UNBOUND:                -0.377
REMARK  3 active torsions:
REMARK  status: ('A' for Active; 'I' for Inactive)
REMARK    1  A    between atoms: C2_2  and  O11_20 
REMARK    2  A    between atoms: C10_10  and  N14_11 
REMARK    3  A    between atoms: N14_11  and  C15_12 
ROOT
HETATM    1  C1    D T9001       1.785   3.262  11.924  1.00 83.47     0.092 A 
HETATM    2  C2    D T9001       1.802   3.696  10.557  1.00 83.68     0.109 A 
HETATM    3  C3    D T9001       0.576   4.057   9.908  1.00 82.47     0.044 A 
HETATM    4  C4    D T9001      -0.662   4.005  10.562  1.00 82.50     0.088 A 
HETATM    5  C5    D T9001      -0.703   3.567  11.938  1.00 84.12     0.055 A 
HETATM    6  C6    D T9001       0.534   3.201  12.599  1.00 83.53     0.021 A 
HETATM    7  N7    D T9001      -1.773   4.368   9.865  1.00 81.78    -0.224 NA
HETATM    8  C8    D T9001      -2.962   4.314  10.519  1.00 83.59     0.200 A 
HETATM    9  N9    D T9001      -3.143   3.924  11.803  1.00 84.30    -0.205 NA
HETATM   10  C10   D T9001      -2.017   3.548  12.527  1.00 85.59     0.166 A 
HETATM   11  N13   D T9001       2.974   2.899  12.600  1.00 82.67    -0.099 NA
ENDROOT
BRANCH  10  12
HETATM   12  N14   D T9001      -2.173   3.125  13.895  1.00 86.44    -0.227 NA
BRANCH  12  13
HETATM   13  C15   D T9001      -2.299   1.786  14.362  1.00 87.38     0.084 A 
HETATM   14  C16   D T9001      -3.560   1.105  14.353  1.00 88.13     0.033 A 
HETATM   15  C17   D T9001      -3.680  -0.223  14.823  1.00 88.88     0.087 A 
HETATM   16  C18   D T9001      -2.530  -0.893  15.317  1.00 88.55     0.151 A 
HETATM   17 CL     D T9001      -5.230  -0.993  14.792  1.00 89.26    -0.080 Cl
HETATM   18  C19   D T9001      -1.263  -0.245  15.337  1.00 87.62     0.032 A 
HETATM   19  F21   D T9001      -2.625  -2.154  15.772  1.00 88.92    -0.203 F 
HETATM   20  C20   D T9001      -1.147   1.092  14.863  1.00 87.82     0.021 A 
ENDBRANCH  12  13
ENDBRANCH  10  12
BRANCH   2  21
HETATM   21  O11   D T9001       3.059   3.734   9.959  1.00 85.44    -0.327 OA
HETATM   22  C12   D T9001       3.784   4.968   9.988  1.00 84.41     0.181 C 
ENDBRANCH   2  21
TORSDOF 3
ENDMDL
MODEL 3
REMARK VINA RESULT:    -7.412      1.935      2.394
REMARK INTER + INTRA:          -9.089
REMARK INTER:                  -8.505
REMARK INTRA:                  -0.584
REMARK UNBOUND:                -0.377
REMARK  3 active torsions:
REMARK  status: ('A' for Active; 'I' for Inactive)
REMARK    1  A    between atoms: C2_2  and  O11_20 
REMARK    2  A    between atoms: C10_10  and  N14_11 
REMARK    3  A    between atoms: N14_11  and  C15_12 
ROOT
HETATM    1  C1    D T9001       2.108   2.324  13.443  1.00 83.47     0.092 A 
HETATM    2  C2    D T9001       2.916   2.591  12.289  1.00 83.68     0.109 A 
HETATM    3  C3    D T9001       2.324   3.182  11.124  1.00 82.47     0.044 A 
HETATM    4  C4    D T9001       0.965   3.517  11.062  1.00 82.50     0.088 A 
HETATM    5  C5    D T9001       0.131   3.253  12.212  1.00 84.12     0.055 A 
HETATM    6  C6    D T9001       0.724   2.656  13.392  1.00 83.53     0.021 A 
HETATM    7  N7    D T9001       0.493   4.076   9.914  1.00 81.78    -0.224 NA
HETATM    8  C8    D T9001      -0.826   4.397   9.877  1.00 83.59     0.200 A 
HETATM    9  N9    D T9001      -1.717   4.205  10.879  1.00 84.30    -0.205 NA
HETATM   10  C10   D T9001      -1.249   3.632  12.057  1.00 85.59     0.166 A 
HETATM   11  N13   D T9001       2.655   1.744  14.611  1.00 82.67    -0.099 NA
ENDROOT
BRANCH  10  12
HETATM   12  N14   D T9001      -2.170   3.412  13.142  1.00 86.44    -0.227 NA
BRANCH  12  13
HETATM   13  C15   D T9001      -2.904   2.221  13.405  1.00 87.38     0.084 A 
HETATM   14  C16   D T9001      -2.487   1.290  14.412  1.00 88.13     0.033 A 
HETATM   15  C17   D T9001      -3.218   0.106  14.664  1.00 88.88     0.087 A 
HETATM   16  C18   D T9001      -4.385  -0.167  13.902  1.00 88.55     0.151 A 
HETATM   17 CL     D T9001      -2.664  -0.983  15.889  1.00 89.26    -0.080 Cl
HETATM   18  C19   D T9001      -4.827   0.738  12.896  1.00 87.62     0.032 A 
HETATM   19  F21   D T9001      -5.089  -1.290  14.125  1.00 88.92    -0.203 F 
HETATM   20  C20   D T9001      -4.088   1.928  12.647  1.00 87.82     0.021 A 
ENDBRANCH  12  13
ENDBRANCH  10  12
BRANCH   2  21
HETATM   21  O11   D T9001       4.259   2.243  12.408  1.00 85.44    -0.327 OA
HETATM   22  C12   D T9001       4.766   1.209  11.557  1.00 84.41     0.181 C 
ENDBRANCH   2  21
TORSDOF 3
ENDMDL
MODEL 4
REMARK VINA RESULT:    -7.332      3.751      5.123
REMARK INTER + INTRA:          -8.995
REMARK INTER:                  -8.459
REMARK INTRA:                  -0.536
REMARK UNBOUND:                -0.377
REMARK  3 active torsions:
REMARK  status: ('A' for Active; 'I' for Inactive)
REMARK    1  A    between atoms: C2_2  and  O11_20 
REMARK    2  A    between atoms: C10_10  and  N14_11 
REMARK    3  A    between atoms: N14_11  and  C15_12 
ROOT
HETATM    1  C1    D T9001      -1.042   3.167  13.087  1.00 83.47     0.092 A 
HETATM    2  C2    D T9001      -1.886   3.715  12.065  1.00 83.68     0.109 A 
HETATM    3  C3    D T9001      -3.226   3.229  11.909  1.00 82.47     0.044 A 
HETATM    4  C4    D T9001      -3.758   2.222  12.726  1.00 82.50     0.088 A 
HETATM    5  C5    D T9001      -2.924   1.653  13.760  1.00 84.12     0.055 A 
HETATM    6  C6    D T9001      -1.569   2.141  13.922  1.00 83.53     0.021 A 
HETATM    7  N7    D T9001      -5.041   1.826  12.504  1.00 81.78    -0.224 NA
HETATM    8  C8    D T9001      -5.538   0.854  13.310  1.00 83.59     0.200 A 
HETATM    9  N9    D T9001      -4.870   0.236  14.313  1.00 84.30    -0.205 NA
HETATM   10  C10   D T9001      -3.557   0.629  14.549  1.00 85.59     0.166 A 
HETATM   11  N13   D T9001       0.285   3.621  13.274  1.00 82.67    -0.099 NA
ENDROOT
BRANCH  10  12
HETATM   12  N14   D T9001      -2.815  -0.008  15.607  1.00 86.44    -0.227 NA
BRANCH  12  13
HETATM   13  C15   D T9001      -2.123  -1.250  15.531  1.00 87.38     0.084 A 
HETATM   14  C16   D T9001      -2.516  -2.376  16.324  1.00 88.13     0.033 A 
HETATM   15  C17   D T9001      -1.821  -3.605  16.248  1.00 88.88     0.087 A 
HETATM   16  C18   D T9001      -0.710  -3.724  15.371  1.00 88.55     0.151 A 
HETATM   17 CL     D T9001      -2.338  -4.930  17.234  1.00 89.26    -0.080 Cl
HETATM   18  C19   D T9001      -0.297  -2.624  14.568  1.00 87.62     0.032 A 
HETATM   19  F21   D T9001      -0.035  -4.883  15.288  1.00 88.92    -0.203 F 
HETATM   20  C20   D T9001      -1.000  -1.389  14.648  1.00 87.82     0.021 A 
ENDBRANCH  12  13
ENDBRANCH  10  12
BRANCH   2  21
HETATM   21  O11   D T9001      -1.307   4.714  11.287  1.00 85.44    -0.327 OA
HETATM   22  C12   D T9001      -2.150   5.441  10.385  1.00 84.41     0.181 C 
ENDBRANCH   2  21
TORSDOF 3
ENDMDL
MODEL 5
REMARK VINA RESULT:    -7.270      4.040      6.654
REMARK INTER + INTRA:          -8.922
REMARK INTER:                  -8.590
REMARK INTRA:                  -0.332
REMARK UNBOUND:                -0.377
REMARK  3 active torsions:
REMARK  status: ('A' for Active; 'I' for Inactive)
REMARK    1  A    between atoms: C2_2  and  O11_20 
REMARK    2  A    between atoms: C10_10  and  N14_11 
REMARK    3  A    between atoms: N14_11  and  C15_12 
ROOT
HETATM    1  C1    D T9001      -0.377  -0.486  15.000  1.00 83.47     0.092 A 
HETATM    2  C2    D T9001      -1.078  -1.719  15.215  1.00 83.68     0.109 A 
HETATM    3  C3    D T9001      -2.495  -1.781  14.999  1.00 82.47     0.044 A 
HETATM    4  C4    D T9001      -3.238  -0.671  14.577  1.00 82.50     0.088 A 
HETATM    5  C5    D T9001      -2.553   0.582  14.357  1.00 84.12     0.055 A 
HETATM    6  C6    D T9001      -1.121   0.651  14.575  1.00 83.53     0.021 A 
HETATM    7  N7    D T9001      -4.578  -0.827  14.396  1.00 81.78    -0.224 NA
HETATM    8  C8    D T9001      -5.279   0.260  13.983  1.00 83.59     0.200 A 
HETATM    9  N9    D T9001      -4.765   1.490  13.741  1.00 84.30    -0.205 NA
HETATM   10  C10   D T9001      -3.397   1.664  13.924  1.00 85.59     0.166 A 
HETATM   11  N13   D T9001       1.019  -0.384  15.201  1.00 82.67    -0.099 NA
ENDROOT
BRANCH  10  12
HETATM   12  N14   D T9001      -2.817   2.959  13.677  1.00 86.44    -0.227 NA
BRANCH  12  13
HETATM   13  C15   D T9001      -2.000   3.327  12.571  1.00 87.38     0.084 A 
HETATM   14  C16   D T9001      -0.570   3.324  12.662  1.00 88.13     0.033 A 
HETATM   15  C17   D T9001       0.236   3.696  11.562  1.00 88.88     0.087 A 
HETATM   16  C18   D T9001      -0.383   4.082  10.344  1.00 88.55     0.151 A 
HETATM   17 CL     D T9001       1.958   3.678  11.732  1.00 89.26    -0.080 Cl
HETATM   18  C19   D T9001      -1.801   4.093  10.220  1.00 87.62     0.032 A 
HETATM   19  F21   D T9001       0.367   4.443   9.289  1.00 88.92    -0.203 F 
HETATM   20  C20   D T9001      -2.608   3.718  11.331  1.00 87.82     0.021 A 
ENDBRANCH  12  13
ENDBRANCH  10  12
BRANCH   2  21
HETATM   21  O11   D T9001      -0.289  -2.789  15.628  1.00 85.44    -0.327 OA
HETATM   22  C12   D T9001      -0.806  -3.655  16.644  1.00 84.41     0.181 C 
ENDBRANCH   2  21
TORSDOF 3
ENDMDL
MODEL 6
REMARK VINA RESULT:    -7.230      4.122      6.862
REMARK INTER + INTRA:          -8.875
REMARK INTER:                  -8.293
REMARK INTRA:                  -0.583
REMARK UNBOUND:                -0.377
REMARK  3 active torsions:
REMARK  status: ('A' for Active; 'I' for Inactive)
REMARK    1  A    between atoms: C2_2  and  O11_20 
REMARK    2  A    between atoms: C10_10  and  N14_11 
REMARK    3  A    between atoms: N14_11  and  C15_12 
ROOT
HETATM    1  C1    D T9001      -2.003   1.527  14.232  1.00 83.47     0.092 A 
HETATM    2  C2    D T9001      -3.382   1.392  13.860  1.00 83.68     0.109 A 
HETATM    3  C3    D T9001      -3.917   2.196  12.800  1.00 82.47     0.044 A 
HETATM    4  C4    D T9001      -3.139   3.124  12.097  1.00 82.50     0.088 A 
HETATM    5  C5    D T9001      -1.748   3.278  12.456  1.00 84.12     0.055 A 
HETATM    6  C6    D T9001      -1.201   2.469  13.527  1.00 83.53     0.021 A 
HETATM    7  N7    D T9001      -3.734   3.840  11.104  1.00 81.78    -0.224 NA
HETATM    8  C8    D T9001      -2.960   4.731  10.432  1.00 83.59     0.200 A 
HETATM    9  N9    D T9001      -1.648   4.976  10.664  1.00 84.30    -0.205 NA
HETATM   10  C10   D T9001      -1.028   4.252  11.677  1.00 85.59     0.166 A 
HETATM   11  N13   D T9001      -1.437   0.751  15.271  1.00 82.67    -0.099 NA
ENDROOT
BRANCH  10  12
HETATM   12  N14   D T9001       0.366   4.488  11.953  1.00 86.44    -0.227 NA
BRANCH  12  13
HETATM   13  C15   D T9001       1.476   3.933  11.255  1.00 87.38     0.084 A 
HETATM   14  C16   D T9001       1.761   2.529  11.296  1.00 88.13     0.033 A 
HETATM   15  C17   D T9001       2.868   1.985  10.605  1.00 88.88     0.087 A 
HETATM   16  C18   D T9001       3.715   2.846   9.859  1.00 88.55     0.151 A 
HETATM   17 CL     D T9001       3.165   0.282  10.695  1.00 89.26    -0.080 Cl
HETATM   18  C19   D T9001       3.458   4.245   9.796  1.00 87.62     0.032 A 
HETATM   19  F21   D T9001       4.775   2.347   9.199  1.00 88.92    -0.203 F 
HETATM   20  C20   D T9001       2.342   4.788  10.493  1.00 87.82     0.021 A 
ENDBRANCH  12  13
ENDBRANCH  10  12
BRANCH   2  21
HETATM   21  O11   D T9001      -4.106   0.453  14.590  1.00 85.44    -0.327 OA
HETATM   22  C12   D T9001      -4.451  -0.780  13.948  1.00 84.41     0.181 C 
ENDBRANCH   2  21
TORSDOF 3
ENDMDL
MODEL 7
REMARK VINA RESULT:    -7.199      1.592      3.168
REMARK INTER + INTRA:          -8.839
REMARK INTER:                  -8.266
REMARK INTRA:                  -0.573
REMARK UNBOUND:                -0.377
REMARK  3 active torsions:
REMARK  status: ('A' for Active; 'I' for Inactive)
REMARK    1  A    between atoms: C2_2  and  O11_20 
REMARK    2  A    between atoms: C10_10  and  N14_11 
REMARK    3  A    between atoms: N14_11  and  C15_12 
ROOT
HETATM    1  C1    D T9001       1.535   4.217  11.205  1.00 83.47     0.092 A 
HETATM    2  C2    D T9001       2.516   3.618  10.348  1.00 83.68     0.109 A 
HETATM    3  C3    D T9001       2.867   2.239  10.521  1.00 82.47     0.044 A 
HETATM    4  C4    D T9001       2.284   1.434  11.508  1.00 82.50     0.088 A 
HETATM    5  C5    D T9001       1.295   2.018  12.385  1.00 84.12     0.055 A 
HETATM    6  C6    D T9001       0.936   3.412  12.215  1.00 83.53     0.021 A 
HETATM    7  N7    D T9001       2.679   0.135  11.596  1.00 81.78    -0.224 NA
HETATM    8  C8    D T9001       2.097  -0.628  12.556  1.00 83.59     0.200 A 
HETATM    9  N9    D T9001       1.161  -0.210  13.442  1.00 84.30    -0.205 NA
HETATM   10  C10   D T9001       0.749   1.116  13.366  1.00 85.59     0.166 A 
HETATM   11  N13   D T9001       1.160   5.574  11.065  1.00 82.67    -0.099 NA
ENDROOT
BRANCH  10  12
HETATM   12  N14   D T9001      -0.244   1.595  14.293  1.00 86.44    -0.227 NA
BRANCH  12  13
HETATM   13  C15   D T9001      -1.655   1.445  14.180  1.00 87.38     0.084 A 
HETATM   14  C16   D T9001      -2.356   0.404  14.871  1.00 88.13     0.033 A 
HETATM   15  C17   D T9001      -3.756   0.256  14.749  1.00 88.88     0.087 A 
HETATM   16  C18   D T9001      -4.482   1.156  13.923  1.00 88.55     0.151 A 
HETATM   17 CL     D T9001      -4.549  -1.023  15.604  1.00 89.26    -0.080 Cl
HETATM   18  C19   D T9001      -3.816   2.202  13.225  1.00 87.62     0.032 A 
HETATM   19  F21   D T9001      -5.814   1.028  13.792  1.00 88.92    -0.203 F 
HETATM   20  C20   D T9001      -2.405   2.346  13.351  1.00 87.82     0.021 A 
ENDBRANCH  12  13
ENDBRANCH  10  12
BRANCH   2  21
HETATM   21  O11   D T9001       3.059   4.462   9.383  1.00 85.44    -0.327 OA
HETATM   22  C12   D T9001       4.447   4.797   9.484  1.00 84.41     0.181 C 
ENDBRANCH   2  21
TORSDOF 3
ENDMDL
MODEL 8
REMARK VINA RESULT:    -7.117      3.618      6.279
REMARK INTER + INTRA:          -8.742
REMARK INTER:                  -8.222
REMARK INTRA:                  -0.521
REMARK UNBOUND:                -0.377
REMARK  3 active torsions:
REMARK  status: ('A' for Active; 'I' for Inactive)
REMARK    1  A    between atoms: C2_2  and  O11_20 
REMARK    2  A    between atoms: C10_10  and  N14_11 
REMARK    3  A    between atoms: N14_11  and  C15_12 
ROOT
HETATM    1  C1    D T9001      -2.008  -0.301  15.256  1.00 83.47     0.092 A 
HETATM    2  C2    D T9001      -1.286  -1.536  15.149  1.00 83.68     0.109 A 
HETATM    3  C3    D T9001       0.003  -1.557  14.522  1.00 82.47     0.044 A 
HETATM    4  C4    D T9001       0.602  -0.403  14.000  1.00 82.50     0.088 A 
HETATM    5  C5    D T9001      -0.108   0.851  14.094  1.00 84.12     0.055 A 
HETATM    6  C6    D T9001      -1.413   0.879  14.726  1.00 83.53     0.021 A 
HETATM    7  N7    D T9001       1.830  -0.520  13.425  1.00 81.78    -0.224 NA
HETATM    8  C8    D T9001       2.394   0.611  12.929  1.00 83.59     0.200 A 
HETATM    9  N9    D T9001       1.841   1.847  12.950  1.00 84.30    -0.205 NA
HETATM   10  C10   D T9001       0.585   1.981  13.533  1.00 85.59     0.166 A 
HETATM   11  N13   D T9001      -3.282  -0.239  15.868  1.00 82.67    -0.099 NA
ENDROOT
BRANCH  10  12
HETATM   12  N14   D T9001      -0.033   3.282  13.570  1.00 86.44    -0.227 NA
BRANCH  12  13
HETATM   13  C15   D T9001      -0.860   3.858  12.565  1.00 87.38     0.084 A 
HETATM   14  C16   D T9001      -2.177   3.360  12.301  1.00 88.13     0.033 A 
HETATM   15  C17   D T9001      -2.991   3.934  11.297  1.00 88.88     0.087 A 
HETATM   16  C18   D T9001      -2.492   5.022  10.534  1.00 88.55     0.151 A 
HETATM   17 CL     D T9001      -4.572   3.287  11.020  1.00 89.26    -0.080 Cl
HETATM   18  C19   D T9001      -1.189   5.542  10.773  1.00 87.62     0.032 A 
HETATM   19  F21   D T9001      -3.250   5.577   9.572  1.00 88.92    -0.203 F 
HETATM   20  C20   D T9001      -0.373   4.961  11.784  1.00 87.82     0.021 A 
ENDBRANCH  12  13
ENDBRANCH  10  12
BRANCH   2  21
HETATM   21  O11   D T9001      -1.926  -2.649  15.689  1.00 85.44    -0.327 OA
HETATM   22  C12   D T9001      -1.186  -3.485  16.584  1.00 84.41     0.181 C 
ENDBRANCH   2  21
TORSDOF 3
ENDMDL
MODEL 9
REMARK VINA RESULT:    -6.981      4.131      6.528
REMARK INTER + INTRA:          -8.583
REMARK INTER:                  -8.004
REMARK INTRA:                  -0.579
REMARK UNBOUND:                -0.377
REMARK  3 active torsions:
REMARK  status: ('A' for Active; 'I' for Inactive)
REMARK    1  A    between atoms: C2_2  and  O11_20 
REMARK    2  A    between atoms: C10_10  and  N14_11 
REMARK    3  A    between atoms: N14_11  and  C15_12 
ROOT
HETATM    1  C1    D T9001      -1.891   0.479  14.639  1.00 83.47     0.092 A 
HETATM    2  C2    D T9001      -3.170   1.048  14.327  1.00 83.68     0.109 A 
HETATM    3  C3    D T9001      -3.244   2.318  13.666  1.00 82.47     0.044 A 
HETATM    4  C4    D T9001      -2.100   3.042  13.303  1.00 82.50     0.088 A 
HETATM    5  C5    D T9001      -0.801   2.489  13.610  1.00 84.12     0.055 A 
HETATM    6  C6    D T9001      -0.721   1.205  14.279  1.00 83.53     0.021 A 
HETATM    7  N7    D T9001      -2.269   4.239  12.677  1.00 81.78    -0.224 NA
HETATM    8  C8    D T9001      -1.148   4.921  12.331  1.00 83.59     0.200 A 
HETATM    9  N9    D T9001       0.126   4.521  12.557  1.00 84.30    -0.205 NA
HETATM   10  C10   D T9001       0.314   3.301  13.198  1.00 85.59     0.166 A 
HETATM   11  N13   D T9001      -1.776  -0.773  15.288  1.00 82.67    -0.099 NA
ENDROOT
BRANCH  10  12
HETATM   12  N14   D T9001       1.655   2.846  13.457  1.00 86.44    -0.227 NA
BRANCH  12  13
HETATM   13  C15   D T9001       2.334   1.783  12.795  1.00 87.38     0.084 A 
HETATM   14  C16   D T9001       3.118   0.828  13.521  1.00 88.13     0.033 A 
HETATM   15  C17   D T9001       3.794  -0.222  12.857  1.00 88.88     0.087 A 
HETATM   16  C18   D T9001       3.697  -0.329  11.444  1.00 88.55     0.151 A 
HETATM   17 CL     D T9001       4.729  -1.343  13.785  1.00 89.26    -0.080 Cl
HETATM   18  C19   D T9001       2.925   0.603  10.695  1.00 87.62     0.032 A 
HETATM   19  F21   D T9001       4.337  -1.317  10.796  1.00 88.92    -0.203 F 
HETATM   20  C20   D T9001       2.246   1.658  11.368  1.00 87.82     0.021 A 
ENDBRANCH  12  13
ENDBRANCH  10  12
BRANCH   2  21
HETATM   21  O11   D T9001      -4.271   0.284  14.706  1.00 85.44    -0.327 OA
HETATM   22  C12   D T9001      -5.192  -0.123  13.689  1.00 84.41     0.181 C 
ENDBRANCH   2  21
TORSDOF 3
ENDMDL
