MODEL 1
REMARK VINA RESULT:    -7.896      0.000      0.000
REMARK INTER + INTRA:          -9.863
REMARK INTER:                  -9.281
REMARK INTRA:                  -0.582
REMARK UNBOUND:                -0.582
REMARK  3 active torsions:
REMARK  status: ('A' for Active; 'I' for Inactive)
REMARK    1  A    between atoms: C2_2  and  O11_20 
REMARK    2  A    between atoms: C10_10  and  N14_11 
REMARK    3  A    between atoms: N14_11  and  C15_12 
ROOT
HETATM    1  C1    D T9001      -2.783  13.835 -10.017  1.00 83.47     0.092 A 
HETATM    2  C2    D T9001      -4.124  14.283  -9.786  1.00 83.68     0.109 A 
HETATM    3  C3    D T9001      -5.224  13.581 -10.383  1.00 82.47     0.044 A 
HETATM    4  C4    D T9001      -5.042  12.455 -11.197  1.00 82.50     0.088 A 
HETATM    5  C5    D T9001      -3.697  11.988 -11.445  1.00 84.12     0.055 A 
HETATM    6  C6    D T9001      -2.583  12.694 -10.845  1.00 83.53     0.021 A 
HETATM    7  N7    D T9001      -6.146  11.854 -11.718  1.00 81.78    -0.224 NA
HETATM    8  C8    D T9001      -5.946  10.763 -12.501  1.00 83.59     0.200 A 
HETATM    9  N9    D T9001      -4.745  10.220 -12.814  1.00 84.30    -0.205 NA
HETATM   10  C10   D T9001      -3.608  10.825 -12.291  1.00 85.59     0.166 A 
HETATM   11  N13   D T9001      -1.672  14.499  -9.444  1.00 82.67    -0.099 NA
ENDROOT
BRANCH  10  12
HETATM   12  N14   D T9001      -2.315  10.277 -12.605  1.00 86.44    -0.227 NA
BRANCH  12  13
HETATM   13  C15   D T9001      -1.760   9.068 -12.102  1.00 87.38     0.084 A 
HETATM   14  C16   D T9001      -1.296   8.962 -10.749  1.00 88.13     0.033 A 
HETATM   15  C17   D T9001      -0.739   7.760 -10.256  1.00 88.88     0.087 A 
HETATM   16  C18   D T9001      -0.635   6.635 -11.117  1.00 88.55     0.151 A 
HETATM   17 CL     D T9001      -0.191   7.694  -8.616  1.00 89.26    -0.080 Cl
HETATM   18  C19   D T9001      -1.089   6.707 -12.465  1.00 87.62     0.032 A 
HETATM   19  F21   D T9001      -0.105   5.486 -10.666  1.00 88.92    -0.203 F 
HETATM   20  C20   D T9001      -1.648   7.920 -12.957  1.00 87.82     0.021 A 
ENDBRANCH  12  13
ENDBRANCH  10  12
BRANCH   2  21
HETATM   21  O11   D T9001      -4.247  15.403  -8.966  1.00 85.44    -0.327 OA
HETATM   22  C12   D T9001      -5.049  16.495  -9.431  1.00 84.41     0.181 C 
ENDBRANCH   2  21
TORSDOF 3
ENDMDL
MODEL 2
REMARK VINA RESULT:    -7.437      4.424      6.367
REMARK INTER + INTRA:          -9.324
REMARK INTER:                  -8.789
REMARK INTRA:                  -0.535
REMARK UNBOUND:                -0.582
REMARK  3 active torsions:
REMARK  status: ('A' for Active; 'I' for Inactive)
REMARK    1  A    between atoms: C2_2  and  O11_20 
REMARK    2  A    between atoms: C10_10  and  N14_11 
REMARK    3  A    between atoms: N14_11  and  C15_12 
ROOT
HETATM    1  C1    D T9001      -2.363  10.577 -11.580  1.00 83.47     0.092 A 
HETATM    2  C2    D T9001      -2.389   9.687 -12.703  1.00 83.68     0.109 A 
HETATM    3  C3    D T9001      -1.739   8.411 -12.617  1.00 82.47     0.044 A 
HETATM    4  C4    D T9001      -1.066   7.988 -11.463  1.00 82.50     0.088 A 
HETATM    5  C5    D T9001      -1.025   8.871 -10.320  1.00 84.12     0.055 A 
HETATM    6  C6    D T9001      -1.681  10.160 -10.401  1.00 83.53     0.021 A 
HETATM    7  N7    D T9001      -0.480   6.760 -11.475  1.00 81.78    -0.224 NA
HETATM    8  C8    D T9001       0.163   6.368 -10.345  1.00 83.59     0.200 A 
HETATM    9  N9    D T9001       0.277   7.093  -9.206  1.00 84.30    -0.205 NA
HETATM   10  C10   D T9001      -0.315   8.351  -9.180  1.00 85.59     0.166 A 
HETATM   11  N13   D T9001      -2.995  11.843 -11.624  1.00 82.67    -0.099 NA
ENDROOT
BRANCH  10  12
HETATM   12  N14   D T9001      -0.210   9.150  -7.987  1.00 86.44    -0.227 NA
BRANCH  12  13
HETATM   13  C15   D T9001       0.853  10.031  -7.646  1.00 87.38     0.084 A 
HETATM   14  C16   D T9001       1.118  11.217  -8.407  1.00 88.13     0.033 A 
HETATM   15  C17   D T9001       2.181  12.084  -8.067  1.00 88.88     0.087 A 
HETATM   16  C18   D T9001       3.004  11.776  -6.951  1.00 88.55     0.151 A 
HETATM   17 CL     D T9001       2.455  13.499  -9.027  1.00 89.26    -0.080 Cl
HETATM   18  C19   D T9001       2.766  10.608  -6.173  1.00 87.62     0.032 A 
HETATM   19  F21   D T9001       4.020  12.589  -6.616  1.00 88.92    -0.203 F 
HETATM   20  C20   D T9001       1.695   9.736  -6.520  1.00 87.82     0.021 A 
ENDBRANCH  12  13
ENDBRANCH  10  12
BRANCH   2  21
HETATM   21  O11   D T9001      -3.075  10.156 -13.821  1.00 85.44    -0.327 OA
HETATM   22  C12   D T9001      -4.349   9.576 -14.123  1.00 84.41     0.181 C 
ENDBRANCH   2  21
TORSDOF 3
ENDMDL
MODEL 3
REMARK VINA RESULT:    -7.357      2.018      2.718
REMARK INTER + INTRA:          -9.230
REMARK INTER:                  -8.681
REMARK INTRA:                  -0.549
REMARK UNBOUND:                -0.582
REMARK  3 active torsions:
REMARK  status: ('A' for Active; 'I' for Inactive)
REMARK    1  A    between atoms: C2_2  and  O11_20 
REMARK    2  A    between atoms: C10_10  and  N14_11 
REMARK    3  A    between atoms: N14_11  and  C15_12 
ROOT
HETATM    1  C1    D T9001      -4.268  12.476 -10.346  1.00 83.47     0.092 A 
HETATM    2  C2    D T9001      -5.561  12.358 -10.953  1.00 83.68     0.109 A 
HETATM    3  C3    D T9001      -5.754  11.457 -12.052  1.00 82.47     0.044 A 
HETATM    4  C4    D T9001      -4.715  10.672 -12.570  1.00 82.50     0.088 A 
HETATM    5  C5    D T9001      -3.402  10.779 -11.975  1.00 84.12     0.055 A 
HETATM    6  C6    D T9001      -3.202  11.687 -10.864  1.00 83.53     0.021 A 
HETATM    7  N7    D T9001      -4.993   9.845 -13.614  1.00 81.78    -0.224 NA
HETATM    8  C8    D T9001      -3.973   9.091 -14.097  1.00 83.59     0.200 A 
HETATM    9  N9    D T9001      -2.699   9.091 -13.635  1.00 84.30    -0.205 NA
HETATM   10  C10   D T9001      -2.399   9.934 -12.571  1.00 85.59     0.166 A 
HETATM   11  N13   D T9001      -4.039  13.353  -9.258  1.00 82.67    -0.099 NA
ENDROOT
BRANCH  10  12
HETATM   12  N14   D T9001      -1.054   9.962 -12.057  1.00 86.44    -0.227 NA
BRANCH  12  13
HETATM   13  C15   D T9001      -0.562   9.253 -10.926  1.00 87.38     0.084 A 
HETATM   14  C16   D T9001      -0.298   7.845 -10.981  1.00 88.13     0.033 A 
HETATM   15  C17   D T9001       0.184   7.145  -9.852  1.00 88.88     0.087 A 
HETATM   16  C18   D T9001       0.410   7.849  -8.639  1.00 88.55     0.151 A 
HETATM   17 CL     D T9001       0.480   5.444  -9.976  1.00 89.26    -0.080 Cl
HETATM   18  C19   D T9001       0.159   9.248  -8.552  1.00 87.62     0.032 A 
HETATM   19  F21   D T9001       0.864   7.198  -7.555  1.00 88.92    -0.203 F 
HETATM   20  C20   D T9001      -0.327   9.948  -9.692  1.00 87.82     0.021 A 
ENDBRANCH  12  13
ENDBRANCH  10  12
BRANCH   2  21
HETATM   21  O11   D T9001      -6.557  13.157 -10.395  1.00 85.44    -0.327 OA
HETATM   22  C12   D T9001      -6.972  14.321 -11.119  1.00 84.41     0.181 C 
ENDBRANCH   2  21
TORSDOF 3
ENDMDL
MODEL 4
REMARK VINA RESULT:    -7.279      4.636      6.142
REMARK INTER + INTRA:          -9.137
REMARK INTER:                  -8.591
REMARK INTRA:                  -0.546
REMARK UNBOUND:                -0.582
REMARK  3 active torsions:
REMARK  status: ('A' for Active; 'I' for Inactive)
REMARK    1  A    between atoms: C2_2  and  O11_20 
REMARK    2  A    between atoms: C10_10  and  N14_11 
REMARK    3  A    between atoms: N14_11  and  C15_12 
ROOT
HETATM    1  C1    D T9001       1.986  11.483  -7.930  1.00 83.47     0.092 A 
HETATM    2  C2    D T9001       2.294  10.914  -6.651  1.00 83.68     0.109 A 
HETATM    3  C3    D T9001       1.371  10.005  -6.034  1.00 82.47     0.044 A 
HETATM    4  C4    D T9001       0.159   9.642  -6.637  1.00 82.50     0.088 A 
HETATM    5  C5    D T9001      -0.172  10.207  -7.925  1.00 84.12     0.055 A 
HETATM    6  C6    D T9001       0.756  11.125  -8.552  1.00 83.53     0.021 A 
HETATM    7  N7    D T9001      -0.652   8.772  -5.976  1.00 81.78    -0.224 NA
HETATM    8  C8    D T9001      -1.819   8.431  -6.579  1.00 83.59     0.200 A 
HETATM    9  N9    D T9001      -2.252   8.883  -7.780  1.00 84.30    -0.205 NA
HETATM   10  C10   D T9001      -1.435   9.775  -8.466  1.00 85.59     0.166 A 
HETATM   11  N13   D T9001       2.871  12.381  -8.573  1.00 82.67    -0.099 NA
ENDROOT
BRANCH  10  12
HETATM   12  N14   D T9001      -1.866  10.279  -9.745  1.00 86.44    -0.227 NA
BRANCH  12  13
HETATM   13  C15   D T9001      -1.941   9.549 -10.963  1.00 87.38     0.084 A 
HETATM   14  C16   D T9001      -2.851   9.924 -12.007  1.00 88.13     0.033 A 
HETATM   15  C17   D T9001      -2.925   9.190 -13.212  1.00 88.88     0.087 A 
HETATM   16  C18   D T9001      -2.086   8.059 -13.394  1.00 88.55     0.151 A 
HETATM   17 CL     D T9001      -4.046   9.687 -14.434  1.00 89.26    -0.080 Cl
HETATM   18  C19   D T9001      -1.170   7.662 -12.378  1.00 87.62     0.032 A 
HETATM   19  F21   D T9001      -2.147   7.349 -14.533  1.00 88.92    -0.203 F 
HETATM   20  C20   D T9001      -1.099   8.403 -11.165  1.00 87.82     0.021 A 
ENDBRANCH  12  13
ENDBRANCH  10  12
BRANCH   2  21
HETATM   21  O11   D T9001       3.512  11.305  -6.102  1.00 85.44    -0.327 OA
HETATM   22  C12   D T9001       4.508  10.298  -5.883  1.00 84.41     0.181 C 
ENDBRANCH   2  21
TORSDOF 3
ENDMDL
MODEL 5
REMARK VINA RESULT:    -7.141      3.658      4.935
REMARK INTER + INTRA:          -8.975
REMARK INTER:                  -8.389
REMARK INTRA:                  -0.586
REMARK UNBOUND:                -0.582
REMARK  3 active torsions:
REMARK  status: ('A' for Active; 'I' for Inactive)
REMARK    1  A    between atoms: C2_2  and  O11_20 
REMARK    2  A    between atoms: C10_10  and  N14_11 
REMARK    3  A    between atoms: N14_11  and  C15_12 
ROOT
HETATM    1  C1    D T9001       0.676  11.294  -7.057  1.00 83.47     0.092 A 
HETATM    2  C2    D T9001       1.216  12.611  -6.888  1.00 83.68     0.109 A 
HETATM    3  C3    D T9001       0.649  13.712  -7.613  1.00 82.47     0.044 A 
HETATM    4  C4    D T9001      -0.428  13.554  -8.495  1.00 82.50     0.088 A 
HETATM    5  C5    D T9001      -0.984  12.234  -8.683  1.00 84.12     0.055 A 
HETATM    6  C6    D T9001      -0.416  11.119  -7.953  1.00 83.53     0.021 A 
HETATM    7  N7    D T9001      -0.899  14.657  -9.137  1.00 81.78    -0.224 NA
HETATM    8  C8    D T9001      -1.946  14.483  -9.984  1.00 83.59     0.200 A 
HETATM    9  N9    D T9001      -2.561  13.306 -10.252  1.00 84.30    -0.205 NA
HETATM   10  C10   D T9001      -2.089  12.169  -9.605  1.00 85.59     0.166 A 
HETATM   11  N13   D T9001       1.206  10.182  -6.358  1.00 82.67    -0.099 NA
ENDROOT
BRANCH  10  12
HETATM   12  N14   D T9001      -2.718  10.901  -9.869  1.00 86.44    -0.227 NA
BRANCH  12  13
HETATM   13  C15   D T9001      -2.433  10.020 -10.949  1.00 87.38     0.084 A 
HETATM   14  C16   D T9001      -1.713   8.796 -10.748  1.00 88.13     0.033 A 
HETATM   15  C17   D T9001      -1.427   7.929 -11.826  1.00 88.88     0.087 A 
HETATM   16  C18   D T9001      -1.859   8.276 -13.135  1.00 88.55     0.151 A 
HETATM   17 CL     D T9001      -0.551   6.467 -11.524  1.00 89.26    -0.080 Cl
HETATM   18  C19   D T9001      -2.578   9.483 -13.367  1.00 87.62     0.032 A 
HETATM   19  F21   D T9001      -1.592   7.464 -14.171  1.00 88.92    -0.203 F 
HETATM   20  C20   D T9001      -2.862  10.354 -12.278  1.00 87.82     0.021 A 
ENDBRANCH  12  13
ENDBRANCH  10  12
BRANCH   2  21
HETATM   21  O11   D T9001       2.281  12.710  -5.996  1.00 85.44    -0.327 OA
HETATM   22  C12   D T9001       3.479  13.353  -6.445  1.00 84.41     0.181 C 
ENDBRANCH   2  21
TORSDOF 3
ENDMDL
MODEL 6
REMARK VINA RESULT:    -7.138      3.144      4.500
REMARK INTER + INTRA:          -8.971
REMARK INTER:                  -8.412
REMARK INTRA:                  -0.559
REMARK UNBOUND:                -0.582
REMARK  3 active torsions:
REMARK  status: ('A' for Active; 'I' for Inactive)
REMARK    1  A    between atoms: C2_2  and  O11_20 
REMARK    2  A    between atoms: C10_10  and  N14_11 
REMARK    3  A    between atoms: N14_11  and  C15_12 
ROOT
HETATM    1  C1    D T9001      -3.218  12.129  -8.173  1.00 83.47     0.092 A 
HETATM    2  C2    D T9001      -3.095  13.557  -8.153  1.00 83.68     0.109 A 
HETATM    3  C3    D T9001      -1.797  14.163  -8.228  1.00 82.47     0.044 A 
HETATM    4  C4    D T9001      -0.621  13.406  -8.321  1.00 82.50     0.088 A 
HETATM    5  C5    D T9001      -0.722  11.965  -8.339  1.00 84.12     0.055 A 
HETATM    6  C6    D T9001      -2.031  11.348  -8.263  1.00 83.53     0.021 A 
HETATM    7  N7    D T9001       0.565  14.069  -8.389  1.00 81.78    -0.224 NA
HETATM    8  C8    D T9001       1.692  13.317  -8.483  1.00 83.59     0.200 A 
HETATM    9  N9    D T9001       1.741  11.963  -8.510  1.00 84.30    -0.205 NA
HETATM   10  C10   D T9001       0.537  11.272  -8.438  1.00 85.59     0.166 A 
HETATM   11  N13   D T9001      -4.481  11.494  -8.103  1.00 82.67    -0.099 NA
ENDROOT
BRANCH  10  12
HETATM   12  N14   D T9001       0.553   9.833  -8.461  1.00 86.44    -0.227 NA
BRANCH  12  13
HETATM   13  C15   D T9001       0.173   8.997  -9.548  1.00 87.38     0.084 A 
HETATM   14  C16   D T9001       0.132   9.490 -10.894  1.00 88.13     0.033 A 
HETATM   15  C17   D T9001      -0.253   8.656 -11.968  1.00 88.88     0.087 A 
HETATM   16  C18   D T9001      -0.608   7.305 -11.711  1.00 88.55     0.151 A 
HETATM   17 CL     D T9001      -0.289   9.308 -13.571  1.00 89.26    -0.080 Cl
HETATM   18  C19   D T9001      -0.575   6.784 -10.386  1.00 87.62     0.032 A 
HETATM   19  F21   D T9001      -0.979   6.500 -12.721  1.00 88.92    -0.203 F 
HETATM   20  C20   D T9001      -0.187   7.628  -9.307  1.00 87.82     0.021 A 
ENDBRANCH  12  13
ENDBRANCH  10  12
BRANCH   2  21
HETATM   21  O11   D T9001      -4.295  14.258  -8.065  1.00 85.44    -0.327 OA
HETATM   22  C12   D T9001      -4.369  15.358  -7.150  1.00 84.41     0.181 C 
ENDBRANCH   2  21
TORSDOF 3
ENDMDL
MODEL 7
REMARK VINA RESULT:    -7.093      3.762      6.320
REMARK INTER + INTRA:          -8.919
REMARK INTER:                  -8.660
REMARK INTRA:                  -0.259
REMARK UNBOUND:                -0.582
REMARK  3 active torsions:
REMARK  status: ('A' for Active; 'I' for Inactive)
REMARK    1  A    between atoms: C2_2  and  O11_20 
REMARK    2  A    between atoms: C10_10  and  N14_11 
REMARK    3  A    between atoms: N14_11  and  C15_12 
ROOT
HETATM    1  C1    D T9001      -0.313   9.338 -10.866  1.00 83.47     0.092 A 
HETATM    2  C2    D T9001      -0.143   7.969 -11.256  1.00 83.68     0.109 A 
HETATM    3  C3    D T9001      -0.983   7.408 -12.276  1.00 82.47     0.044 A 
HETATM    4  C4    D T9001      -1.981   8.153 -12.918  1.00 82.50     0.088 A 
HETATM    5  C5    D T9001      -2.171   9.534 -12.538  1.00 84.12     0.055 A 
HETATM    6  C6    D T9001      -1.325  10.105 -11.510  1.00 83.53     0.021 A 
HETATM    7  N7    D T9001      -2.728   7.536 -13.874  1.00 81.78    -0.224 NA
HETATM    8  C8    D T9001      -3.686   8.277 -14.487  1.00 83.59     0.200 A 
HETATM    9  N9    D T9001      -3.969   9.576 -14.229  1.00 84.30    -0.205 NA
HETATM   10  C10   D T9001      -3.217  10.219 -13.254  1.00 85.59     0.166 A 
HETATM   11  N13   D T9001       0.498   9.928  -9.867  1.00 82.67    -0.099 NA
ENDROOT
BRANCH  10  12
HETATM   12  N14   D T9001      -3.493  11.600 -12.952  1.00 86.44    -0.227 NA
BRANCH  12  13
HETATM   13  C15   D T9001      -3.734  12.155 -11.665  1.00 87.38     0.084 A 
HETATM   14  C16   D T9001      -2.844  13.119 -11.085  1.00 88.13     0.033 A 
HETATM   15  C17   D T9001      -3.086  13.662  -9.803  1.00 88.88     0.087 A 
HETATM   16  C18   D T9001      -4.231  13.245  -9.073  1.00 88.55     0.151 A 
HETATM   17 CL     D T9001      -1.973  14.817  -9.153  1.00 89.26    -0.080 Cl
HETATM   18  C19   D T9001      -5.136  12.293  -9.622  1.00 87.62     0.032 A 
HETATM   19  F21   D T9001      -4.474  13.750  -7.852  1.00 88.92    -0.203 F 
HETATM   20  C20   D T9001      -4.888  11.748 -10.913  1.00 87.82     0.021 A 
ENDBRANCH  12  13
ENDBRANCH  10  12
BRANCH   2  21
HETATM   21  O11   D T9001       0.866   7.279 -10.589  1.00 85.44    -0.327 OA
HETATM   22  C12   D T9001       0.491   6.177  -9.753  1.00 84.41     0.181 C 
ENDBRANCH   2  21
TORSDOF 3
ENDMDL
MODEL 8
REMARK VINA RESULT:    -6.863      3.863      4.970
REMARK INTER + INTRA:          -8.648
REMARK INTER:                  -8.087
REMARK INTRA:                  -0.562
REMARK UNBOUND:                -0.582
REMARK  3 active torsions:
REMARK  status: ('A' for Active; 'I' for Inactive)
REMARK    1  A    between atoms: C2_2  and  O11_20 
REMARK    2  A    between atoms: C10_10  and  N14_11 
REMARK    3  A    between atoms: N14_11  and  C15_12 
ROOT
HETATM    1  C1    D T9001       0.705  11.906  -7.873  1.00 83.47     0.092 A 
HETATM    2  C2    D T9001       0.279  11.919  -6.504  1.00 83.68     0.109 A 
HETATM    3  C3    D T9001      -1.120  11.991  -6.193  1.00 82.47     0.044 A 
HETATM    4  C4    D T9001      -2.107  12.052  -7.186  1.00 82.50     0.088 A 
HETATM    5  C5    D T9001      -1.699  12.043  -8.572  1.00 84.12     0.055 A 
HETATM    6  C6    D T9001      -0.288  11.970  -8.892  1.00 83.53     0.021 A 
HETATM    7  N7    D T9001      -3.408  12.117  -6.794  1.00 81.78    -0.224 NA
HETATM    8  C8    D T9001      -4.349  12.170  -7.772  1.00 83.59     0.200 A 
HETATM    9  N9    D T9001      -4.107  12.169  -9.105  1.00 84.30    -0.205 NA
HETATM   10  C10   D T9001      -2.782  12.106  -9.520  1.00 85.59     0.166 A 
HETATM   11  N13   D T9001       2.075  11.833  -8.220  1.00 82.67    -0.099 NA
ENDROOT
BRANCH  10  12
HETATM   12  N14   D T9001      -2.488  12.106 -10.930  1.00 86.44    -0.227 NA
BRANCH  12  13
HETATM   13  C15   D T9001      -2.808  11.081 -11.864  1.00 87.38     0.084 A 
HETATM   14  C16   D T9001      -1.994   9.908 -11.998  1.00 88.13     0.033 A 
HETATM   15  C17   D T9001      -2.314   8.898 -12.933  1.00 88.88     0.087 A 
HETATM   16  C18   D T9001      -3.462   9.046 -13.756  1.00 88.55     0.151 A 
HETATM   17 CL     D T9001      -1.291   7.506 -13.053  1.00 89.26    -0.080 Cl
HETATM   18  C19   D T9001      -4.292  10.198 -13.646  1.00 87.62     0.032 A 
HETATM   19  F21   D T9001      -3.778   8.096 -14.652  1.00 88.92    -0.203 F 
HETATM   20  C20   D T9001      -3.965  11.214 -12.704  1.00 87.82     0.021 A 
ENDBRANCH  12  13
ENDBRANCH  10  12
BRANCH   2  21
HETATM   21  O11   D T9001       1.301  11.852  -5.560  1.00 85.44    -0.327 OA
HETATM   22  C12   D T9001       1.287  10.766  -4.627  1.00 84.41     0.181 C 
ENDBRANCH   2  21
TORSDOF 3
ENDMDL
MODEL 9
REMARK VINA RESULT:    -6.851      4.199      5.509
REMARK INTER + INTRA:          -8.634
REMARK INTER:                  -8.063
REMARK INTRA:                  -0.571
REMARK UNBOUND:                -0.582
REMARK  3 active torsions:
REMARK  status: ('A' for Active; 'I' for Inactive)
REMARK    1  A    between atoms: C2_2  and  O11_20 
REMARK    2  A    between atoms: C10_10  and  N14_11 
REMARK    3  A    between atoms: N14_11  and  C15_12 
ROOT
HETATM    1  C1    D T9001      -2.210   9.759 -12.254  1.00 83.47     0.092 A 
HETATM    2  C2    D T9001      -3.374  10.497 -12.646  1.00 83.68     0.109 A 
HETATM    3  C3    D T9001      -4.061  11.310 -11.684  1.00 82.47     0.044 A 
HETATM    4  C4    D T9001      -3.637  11.416 -10.353  1.00 82.50     0.088 A 
HETATM    5  C5    D T9001      -2.468  10.677  -9.936  1.00 84.12     0.055 A 
HETATM    6  C6    D T9001      -1.770   9.855 -10.903  1.00 83.53     0.021 A 
HETATM    7  N7    D T9001      -4.352  12.212  -9.513  1.00 81.78    -0.224 NA
HETATM    8  C8    D T9001      -3.922  12.305  -8.229  1.00 83.59     0.200 A 
HETATM    9  N9    D T9001      -2.845  11.670  -7.706  1.00 84.30    -0.205 NA
HETATM   10  C10   D T9001      -2.106  10.850  -8.552  1.00 85.59     0.166 A 
HETATM   11  N13   D T9001      -1.503   8.948 -13.174  1.00 82.67    -0.099 NA
ENDROOT
BRANCH  10  12
HETATM   12  N14   D T9001      -0.957  10.157  -8.029  1.00 86.44    -0.227 NA
BRANCH  12  13
HETATM   13  C15   D T9001       0.335  10.707  -7.802  1.00 87.38     0.084 A 
HETATM   14  C16   D T9001       1.167  10.247  -6.729  1.00 88.13     0.033 A 
HETATM   15  C17   D T9001       2.447  10.803  -6.505  1.00 88.88     0.087 A 
HETATM   16  C18   D T9001       2.919  11.837  -7.357  1.00 88.55     0.151 A 
HETATM   17 CL     D T9001       3.406  10.210  -5.190  1.00 89.26    -0.080 Cl
HETATM   18  C19   D T9001       2.117  12.314  -8.433  1.00 87.62     0.032 A 
HETATM   19  F21   D T9001       4.132  12.378  -7.155  1.00 88.92    -0.203 F 
HETATM   20  C20   D T9001       0.828  11.753  -8.654  1.00 87.82     0.021 A 
ENDBRANCH  12  13
ENDBRANCH  10  12
BRANCH   2  21
HETATM   21  O11   D T9001      -3.747  10.358 -13.981  1.00 85.44    -0.327 OA
HETATM   22  C12   D T9001      -3.924  11.548 -14.759  1.00 84.41     0.181 C 
ENDBRANCH   2  21
TORSDOF 3
ENDMDL
