MODEL 1
REMARK VINA RESULT:    -7.035      0.000      0.000
REMARK INTER + INTRA:          -8.838
REMARK INTER:                  -8.268
REMARK INTRA:                  -0.570
REMARK UNBOUND:                -0.570
REMARK  3 active torsions:
REMARK  status: ('A' for Active; 'I' for Inactive)
REMARK    1  A    between atoms: C2_2  and  O11_20 
REMARK    2  A    between atoms: C10_10  and  N14_11 
REMARK    3  A    between atoms: N14_11  and  C15_12 
ROOT
HETATM    1  C1    D T9001       5.174   7.930  -3.145  1.00 83.47     0.092 A 
HETATM    2  C2    D T9001       4.758   7.376  -1.890  1.00 83.68     0.109 A 
HETATM    3  C3    D T9001       3.738   8.032  -1.123  1.00 82.47     0.044 A 
HETATM    4  C4    D T9001       3.120   9.214  -1.553  1.00 82.50     0.088 A 
HETATM    5  C5    D T9001       3.527   9.791  -2.815  1.00 84.12     0.055 A 
HETATM    6  C6    D T9001       4.556   9.132  -3.594  1.00 83.53     0.021 A 
HETATM    7  N7    D T9001       2.163   9.762  -0.758  1.00 81.78    -0.224 NA
HETATM    8  C8    D T9001       1.573  10.904  -1.196  1.00 83.59     0.200 A 
HETATM    9  N9    D T9001       1.856  11.550  -2.353  1.00 84.30    -0.205 NA
HETATM   10  C10   D T9001       2.835  11.002  -3.174  1.00 85.59     0.166 A 
HETATM   11  N13   D T9001       6.174   7.312  -3.933  1.00 82.67    -0.099 NA
ENDROOT
BRANCH  10  12
HETATM   12  N14   D T9001       3.163  11.663  -4.410  1.00 86.44    -0.227 NA
BRANCH  12  13
HETATM   13  C15   D T9001       2.392  11.660  -5.606  1.00 87.38     0.084 A 
HETATM   14  C16   D T9001       1.596  12.790  -5.988  1.00 88.13     0.033 A 
HETATM   15  C17   D T9001       0.826  12.778  -7.173  1.00 88.88     0.087 A 
HETATM   16  C18   D T9001       0.838  11.624  -8.000  1.00 88.55     0.151 A 
HETATM   17 CL     D T9001      -0.118  14.171  -7.580  1.00 89.26    -0.080 Cl
HETATM   18  C19   D T9001       1.619  10.486  -7.650  1.00 87.62     0.032 A 
HETATM   19  F21   D T9001       0.108  11.595  -9.128  1.00 88.92    -0.203 F 
HETATM   20  C20   D T9001       2.392  10.503  -6.456  1.00 87.82     0.021 A 
ENDBRANCH  12  13
ENDBRANCH  10  12
BRANCH   2  21
HETATM   21  O11   D T9001       5.403   6.200  -1.516  1.00 85.44    -0.327 OA
HETATM   22  C12   D T9001       4.606   5.132  -0.989  1.00 84.41     0.181 C 
ENDBRANCH   2  21
TORSDOF 3
ENDMDL
MODEL 2
REMARK VINA RESULT:    -7.026      4.079      5.412
REMARK INTER + INTRA:          -8.828
REMARK INTER:                  -8.268
REMARK INTRA:                  -0.560
REMARK UNBOUND:                -0.570
REMARK  3 active torsions:
REMARK  status: ('A' for Active; 'I' for Inactive)
REMARK    1  A    between atoms: C2_2  and  O11_20 
REMARK    2  A    between atoms: C10_10  and  N14_11 
REMARK    3  A    between atoms: N14_11  and  C15_12 
ROOT
HETATM    1  C1    D T9001       1.627  10.789  -7.093  1.00 83.47     0.092 A 
HETATM    2  C2    D T9001       1.250   9.494  -6.607  1.00 83.68     0.109 A 
HETATM    3  C3    D T9001       1.148   9.264  -5.195  1.00 82.47     0.044 A 
HETATM    4  C4    D T9001       1.407  10.266  -4.250  1.00 82.50     0.088 A 
HETATM    5  C5    D T9001       1.790  11.579  -4.719  1.00 84.12     0.055 A 
HETATM    6  C6    D T9001       1.895  11.817  -6.145  1.00 83.53     0.021 A 
HETATM    7  N7    D T9001       1.282   9.954  -2.933  1.00 81.78    -0.224 NA
HETATM    8  C8    D T9001       1.532  10.941  -2.035  1.00 83.59     0.200 A 
HETATM    9  N9    D T9001       1.900  12.211  -2.334  1.00 84.30    -0.205 NA
HETATM   10  C10   D T9001       2.033  12.544  -3.677  1.00 85.59     0.166 A 
HETATM   11  N13   D T9001       1.736  11.059  -8.478  1.00 82.67    -0.099 NA
ENDROOT
BRANCH  10  12
HETATM   12  N14   D T9001       2.424  13.883  -4.032  1.00 86.44    -0.227 NA
BRANCH  12  13
HETATM   13  C15   D T9001       1.584  15.031  -4.070  1.00 87.38     0.084 A 
HETATM   14  C16   D T9001       1.692  16.073  -3.089  1.00 88.13     0.033 A 
HETATM   15  C17   D T9001       0.850  17.207  -3.128  1.00 88.88     0.087 A 
HETATM   16  C18   D T9001      -0.124  17.316  -4.156  1.00 88.55     0.151 A 
HETATM   17 CL     D T9001       1.025  18.429  -1.915  1.00 89.26    -0.080 Cl
HETATM   18  C19   D T9001      -0.256  16.301  -5.145  1.00 87.62     0.032 A 
HETATM   19  F21   D T9001      -0.936  18.386  -4.205  1.00 88.92    -0.203 F 
HETATM   20  C20   D T9001       0.594  15.161  -5.101  1.00 87.82     0.021 A 
ENDBRANCH  12  13
ENDBRANCH  10  12
BRANCH   2  21
HETATM   21  O11   D T9001       1.001   8.539  -7.590  1.00 85.44    -0.327 OA
HETATM   22  C12   D T9001       2.007   7.549  -7.837  1.00 84.41     0.181 C 
ENDBRANCH   2  21
TORSDOF 3
ENDMDL
MODEL 3
REMARK VINA RESULT:    -6.996      4.385      6.376
REMARK INTER + INTRA:          -8.792
REMARK INTER:                  -8.411
REMARK INTRA:                  -0.381
REMARK UNBOUND:                -0.570
REMARK  3 active torsions:
REMARK  status: ('A' for Active; 'I' for Inactive)
REMARK    1  A    between atoms: C2_2  and  O11_20 
REMARK    2  A    between atoms: C10_10  and  N14_11 
REMARK    3  A    between atoms: N14_11  and  C15_12 
ROOT
HETATM    1  C1    D T9001       2.485  10.411  -5.636  1.00 83.47     0.092 A 
HETATM    2  C2    D T9001       2.394  10.024  -7.013  1.00 83.68     0.109 A 
HETATM    3  C3    D T9001       1.579  10.787  -7.915  1.00 82.47     0.044 A 
HETATM    4  C4    D T9001       0.853  11.912  -7.502  1.00 82.50     0.088 A 
HETATM    5  C5    D T9001       0.930  12.317  -6.116  1.00 84.12     0.055 A 
HETATM    6  C6    D T9001       1.751  11.551  -5.201  1.00 83.53     0.021 A 
HETATM    7  N7    D T9001       0.110  12.571  -8.430  1.00 81.78    -0.224 NA
HETATM    8  C8    D T9001      -0.582  13.662  -8.010  1.00 83.59     0.200 A 
HETATM    9  N9    D T9001      -0.601  14.150  -6.746  1.00 84.30    -0.205 NA
HETATM   10  C10   D T9001       0.153  13.484  -5.786  1.00 85.59     0.166 A 
HETATM   11  N13   D T9001       3.280   9.688  -4.714  1.00 82.67    -0.099 NA
ENDROOT
BRANCH  10  12
HETATM   12  N14   D T9001       0.154  13.974  -4.433  1.00 86.44    -0.227 NA
BRANCH  12  13
HETATM   13  C15   D T9001       0.416  15.308  -4.012  1.00 87.38     0.084 A 
HETATM   14  C16   D T9001      -0.563  16.346  -4.157  1.00 88.13     0.033 A 
HETATM   15  C17   D T9001      -0.293  17.671  -3.744  1.00 88.88     0.087 A 
HETATM   16  C18   D T9001       0.971  17.980  -3.177  1.00 88.55     0.151 A 
HETATM   17 CL     D T9001      -1.513  18.882  -3.948  1.00 89.26    -0.080 Cl
HETATM   18  C19   D T9001       1.965  16.972  -3.019  1.00 87.62     0.032 A 
HETATM   19  F21   D T9001       1.246  19.236  -2.784  1.00 88.92    -0.203 F 
HETATM   20  C20   D T9001       1.689  15.640  -3.436  1.00 87.82     0.021 A 
ENDBRANCH  12  13
ENDBRANCH  10  12
BRANCH   2  21
HETATM   21  O11   D T9001       3.139   8.903  -7.368  1.00 85.44    -0.327 OA
HETATM   22  C12   D T9001       2.449   7.657  -7.524  1.00 84.41     0.181 C 
ENDBRANCH   2  21
TORSDOF 3
ENDMDL
MODEL 4
REMARK VINA RESULT:    -6.993      4.476      7.433
REMARK INTER + INTRA:          -8.789
REMARK INTER:                  -8.692
REMARK INTRA:                  -0.097
REMARK UNBOUND:                -0.570
REMARK  3 active torsions:
REMARK  status: ('A' for Active; 'I' for Inactive)
REMARK    1  A    between atoms: C2_2  and  O11_20 
REMARK    2  A    between atoms: C10_10  and  N14_11 
REMARK    3  A    between atoms: N14_11  and  C15_12 
ROOT
HETATM    1  C1    D T9001       1.286  14.354  -4.594  1.00 83.47     0.092 A 
HETATM    2  C2    D T9001       0.311  15.194  -5.226  1.00 83.68     0.109 A 
HETATM    3  C3    D T9001      -0.292  14.784  -6.462  1.00 82.47     0.044 A 
HETATM    4  C4    D T9001       0.037  13.577  -7.092  1.00 82.50     0.088 A 
HETATM    5  C5    D T9001       1.020  12.715  -6.474  1.00 84.12     0.055 A 
HETATM    6  C6    D T9001       1.632  13.125  -5.225  1.00 83.53     0.021 A 
HETATM    7  N7    D T9001      -0.589  13.273  -8.260  1.00 81.78    -0.224 NA
HETATM    8  C8    D T9001      -0.259  12.096  -8.853  1.00 83.59     0.200 A 
HETATM    9  N9    D T9001       0.642  11.198  -8.385  1.00 84.30    -0.205 NA
HETATM   10  C10   D T9001       1.291  11.497  -7.192  1.00 85.59     0.166 A 
HETATM   11  N13   D T9001       1.902  14.720  -3.374  1.00 82.67    -0.099 NA
ENDROOT
BRANCH  10  12
HETATM   12  N14   D T9001       2.256  10.567  -6.667  1.00 86.44    -0.227 NA
BRANCH  12  13
HETATM   13  C15   D T9001       2.211   9.921  -5.400  1.00 87.38     0.084 A 
HETATM   14  C16   D T9001       3.393   9.739  -4.608  1.00 88.13     0.033 A 
HETATM   15  C17   D T9001       3.342   9.090  -3.354  1.00 88.88     0.087 A 
HETATM   16  C18   D T9001       2.098   8.607  -2.869  1.00 88.55     0.151 A 
HETATM   17 CL     D T9001       4.802   8.896  -2.445  1.00 89.26    -0.080 Cl
HETATM   18  C19   D T9001       0.906   8.773  -3.630  1.00 87.62     0.032 A 
HETATM   19  F21   D T9001       2.033   7.983  -1.680  1.00 88.92    -0.203 F 
HETATM   20  C20   D T9001       0.962   9.426  -4.893  1.00 87.82     0.021 A 
ENDBRANCH  12  13
ENDBRANCH  10  12
BRANCH   2  21
HETATM   21  O11   D T9001       0.021  16.378  -4.552  1.00 85.44    -0.327 OA
HETATM   22  C12   D T9001       1.010  17.414  -4.554  1.00 84.41     0.181 C 
ENDBRANCH   2  21
TORSDOF 3
ENDMDL
MODEL 5
REMARK VINA RESULT:    -6.880      3.219      4.704
REMARK INTER + INTRA:          -8.656
REMARK INTER:                  -8.383
REMARK INTRA:                  -0.273
REMARK UNBOUND:                -0.570
REMARK  3 active torsions:
REMARK  status: ('A' for Active; 'I' for Inactive)
REMARK    1  A    between atoms: C2_2  and  O11_20 
REMARK    2  A    between atoms: C10_10  and  N14_11 
REMARK    3  A    between atoms: N14_11  and  C15_12 
ROOT
HETATM    1  C1    D T9001       1.648  10.127  -6.637  1.00 83.47     0.092 A 
HETATM    2  C2    D T9001       2.655   9.107  -6.617  1.00 83.68     0.109 A 
HETATM    3  C3    D T9001       3.345   8.810  -5.394  1.00 82.47     0.044 A 
HETATM    4  C4    D T9001       3.074   9.485  -4.196  1.00 82.50     0.088 A 
HETATM    5  C5    D T9001       2.063  10.519  -4.195  1.00 84.12     0.055 A 
HETATM    6  C6    D T9001       1.363  10.823  -5.427  1.00 83.53     0.021 A 
HETATM    7  N7    D T9001       3.778   9.132  -3.088  1.00 81.78    -0.224 NA
HETATM    8  C8    D T9001       3.496   9.795  -1.937  1.00 83.59     0.200 A 
HETATM    9  N9    D T9001       2.579  10.782  -1.794  1.00 84.30    -0.205 NA
HETATM   10  C10   D T9001       1.853  11.154  -2.920  1.00 85.59     0.166 A 
HETATM   11  N13   D T9001       0.943  10.449  -7.820  1.00 82.67    -0.099 NA
ENDROOT
BRANCH  10  12
HETATM   12  N14   D T9001       0.870  12.200  -2.806  1.00 86.44    -0.227 NA
BRANCH  12  13
HETATM   13  C15   D T9001       0.959  13.512  -3.351  1.00 87.38     0.084 A 
HETATM   14  C16   D T9001       0.356  13.843  -4.610  1.00 88.13     0.033 A 
HETATM   15  C17   D T9001       0.454  15.145  -5.150  1.00 88.88     0.087 A 
HETATM   16  C18   D T9001       1.163  16.145  -4.434  1.00 88.55     0.151 A 
HETATM   17 CL     D T9001      -0.291  15.484  -6.675  1.00 89.26    -0.080 Cl
HETATM   18  C19   D T9001       1.772  15.849  -3.180  1.00 87.62     0.032 A 
HETATM   19  F21   D T9001       1.269  17.387  -4.935  1.00 88.92    -0.203 F 
HETATM   20  C20   D T9001       1.671  14.536  -2.641  1.00 87.82     0.021 A 
ENDBRANCH  12  13
ENDBRANCH  10  12
BRANCH   2  21
HETATM   21  O11   D T9001       2.879   8.468  -7.833  1.00 85.44    -0.327 OA
HETATM   22  C12   D T9001       2.314   7.165  -8.022  1.00 84.41     0.181 C 
ENDBRANCH   2  21
TORSDOF 3
ENDMDL
MODEL 6
REMARK VINA RESULT:    -6.775      4.586      7.598
REMARK INTER + INTRA:          -8.534
REMARK INTER:                  -8.004
REMARK INTRA:                  -0.529
REMARK UNBOUND:                -0.570
REMARK  3 active torsions:
REMARK  status: ('A' for Active; 'I' for Inactive)
REMARK    1  A    between atoms: C2_2  and  O11_20 
REMARK    2  A    between atoms: C10_10  and  N14_11 
REMARK    3  A    between atoms: N14_11  and  C15_12 
ROOT
HETATM    1  C1    D T9001       1.802  12.946  -5.384  1.00 83.47     0.092 A 
HETATM    2  C2    D T9001       1.212  12.752  -6.676  1.00 83.68     0.109 A 
HETATM    3  C3    D T9001       1.373  11.496  -7.352  1.00 82.47     0.044 A 
HETATM    4  C4    D T9001       2.096  10.432  -6.797  1.00 82.50     0.088 A 
HETATM    5  C5    D T9001       2.701  10.609  -5.495  1.00 84.12     0.055 A 
HETATM    6  C6    D T9001       2.541  11.874  -4.808  1.00 83.53     0.021 A 
HETATM    7  N7    D T9001       2.192   9.280  -7.512  1.00 81.78    -0.224 NA
HETATM    8  C8    D T9001       2.893   8.260  -6.953  1.00 83.59     0.200 A 
HETATM    9  N9    D T9001       3.510   8.289  -5.747  1.00 84.30    -0.205 NA
HETATM   10  C10   D T9001       3.421   9.461  -5.005  1.00 85.59     0.166 A 
HETATM   11  N13   D T9001       1.664  14.168  -4.682  1.00 82.67    -0.099 NA
ENDROOT
BRANCH  10  12
HETATM   12  N14   D T9001       4.065   9.528  -3.720  1.00 86.44    -0.227 NA
BRANCH  12  13
HETATM   13  C15   D T9001       3.756   8.744  -2.573  1.00 87.38     0.084 A 
HETATM   14  C16   D T9001       4.475   7.541  -2.270  1.00 88.13     0.033 A 
HETATM   15  C17   D T9001       4.158   6.763  -1.134  1.00 88.88     0.087 A 
HETATM   16  C18   D T9001       3.105   7.179  -0.276  1.00 88.55     0.151 A 
HETATM   17 CL     D T9001       5.059   5.318  -0.822  1.00 89.26    -0.080 Cl
HETATM   18  C19   D T9001       2.372   8.369  -0.548  1.00 87.62     0.032 A 
HETATM   19  F21   D T9001       2.788   6.449   0.806  1.00 88.92    -0.203 F 
HETATM   20  C20   D T9001       2.695   9.149  -1.694  1.00 87.82     0.021 A 
ENDBRANCH  12  13
ENDBRANCH  10  12
BRANCH   2  21
HETATM   21  O11   D T9001       0.502  13.840  -7.176  1.00 85.44    -0.327 OA
HETATM   22  C12   D T9001      -0.586  13.581  -8.072  1.00 84.41     0.181 C 
ENDBRANCH   2  21
TORSDOF 3
ENDMDL
MODEL 7
REMARK VINA RESULT:    -6.762      4.419      7.346
REMARK INTER + INTRA:          -8.518
REMARK INTER:                  -7.927
REMARK INTRA:                  -0.591
REMARK UNBOUND:                -0.570
REMARK  3 active torsions:
REMARK  status: ('A' for Active; 'I' for Inactive)
REMARK    1  A    between atoms: C2_2  and  O11_20 
REMARK    2  A    between atoms: C10_10  and  N14_11 
REMARK    3  A    between atoms: N14_11  and  C15_12 
ROOT
HETATM    1  C1    D T9001       1.042  12.418  -5.047  1.00 83.47     0.092 A 
HETATM    2  C2    D T9001       1.086  12.732  -6.445  1.00 83.68     0.109 A 
HETATM    3  C3    D T9001       1.649  11.789  -7.370  1.00 82.47     0.044 A 
HETATM    4  C4    D T9001       2.167  10.554  -6.960  1.00 82.50     0.088 A 
HETATM    5  C5    D T9001       2.134  10.219  -5.554  1.00 84.12     0.055 A 
HETATM    6  C6    D T9001       1.567  11.167  -4.616  1.00 83.53     0.021 A 
HETATM    7  N7    D T9001       2.678   9.726  -7.910  1.00 81.78    -0.224 NA
HETATM    8  C8    D T9001       3.171   8.532  -7.492  1.00 83.59     0.200 A 
HETATM    9  N9    D T9001       3.204   8.092  -6.211  1.00 84.30    -0.205 NA
HETATM   10  C10   D T9001       2.687   8.929  -5.229  1.00 85.59     0.166 A 
HETATM   11  N13   D T9001       0.493  13.318  -4.103  1.00 82.67    -0.099 NA
ENDROOT
BRANCH  10  12
HETATM   12  N14   D T9001       2.707   8.495  -3.856  1.00 86.44    -0.227 NA
BRANCH  12  13
HETATM   13  C15   D T9001       3.578   8.959  -2.831  1.00 87.38     0.084 A 
HETATM   14  C16   D T9001       3.128   9.113  -1.478  1.00 88.13     0.033 A 
HETATM   15  C17   D T9001       3.996   9.582  -0.466  1.00 88.88     0.087 A 
HETATM   16  C18   D T9001       5.338   9.909  -0.796  1.00 88.55     0.151 A 
HETATM   17 CL     D T9001       3.396   9.751   1.148  1.00 89.26    -0.080 Cl
HETATM   18  C19   D T9001       5.816   9.766  -2.130  1.00 87.62     0.032 A 
HETATM   19  F21   D T9001       6.176  10.360   0.154  1.00 88.92    -0.203 F 
HETATM   20  C20   D T9001       4.938   9.294  -3.145  1.00 87.82     0.021 A 
ENDBRANCH  12  13
ENDBRANCH  10  12
BRANCH   2  21
HETATM   21  O11   D T9001       0.553  13.970  -6.795  1.00 85.44    -0.327 OA
HETATM   22  C12   D T9001      -0.575  13.992  -7.677  1.00 84.41     0.181 C 
ENDBRANCH   2  21
TORSDOF 3
ENDMDL
MODEL 8
REMARK VINA RESULT:    -6.624      4.279      7.202
REMARK INTER + INTRA:          -8.356
REMARK INTER:                  -7.766
REMARK INTRA:                  -0.589
REMARK UNBOUND:                -0.570
REMARK  3 active torsions:
REMARK  status: ('A' for Active; 'I' for Inactive)
REMARK    1  A    between atoms: C2_2  and  O11_20 
REMARK    2  A    between atoms: C10_10  and  N14_11 
REMARK    3  A    between atoms: N14_11  and  C15_12 
ROOT
HETATM    1  C1    D T9001       1.132  13.269  -3.421  1.00 83.47     0.092 A 
HETATM    2  C2    D T9001       1.103  14.245  -4.470  1.00 83.68     0.109 A 
HETATM    3  C3    D T9001       1.148  13.821  -5.841  1.00 82.47     0.044 A 
HETATM    4  C4    D T9001       1.222  12.470  -6.206  1.00 82.50     0.088 A 
HETATM    5  C5    D T9001       1.255  11.469  -5.163  1.00 84.12     0.055 A 
HETATM    6  C6    D T9001       1.209  11.892  -3.777  1.00 83.53     0.021 A 
HETATM    7  N7    D T9001       1.259  12.165  -7.530  1.00 81.78    -0.224 NA
HETATM    8  C8    D T9001       1.325  10.850  -7.863  1.00 83.59     0.200 A 
HETATM    9  N9    D T9001       1.364   9.813  -6.992  1.00 84.30    -0.205 NA
HETATM   10  C10   D T9001       1.329  10.110  -5.634  1.00 85.59     0.166 A 
HETATM   11  N13   D T9001       1.086  13.644  -2.057  1.00 82.67    -0.099 NA
ENDROOT
BRANCH  10  12
HETATM   12  N14   D T9001       1.369   9.033  -4.679  1.00 86.44    -0.227 NA
BRANCH  12  13
HETATM   13  C15   D T9001       2.477   8.658  -3.869  1.00 87.38     0.084 A 
HETATM   14  C16   D T9001       3.814   8.638  -4.388  1.00 88.13     0.033 A 
HETATM   15  C17   D T9001       4.909   8.256  -3.580  1.00 88.88     0.087 A 
HETATM   16  C18   D T9001       4.681   7.884  -2.228  1.00 88.55     0.151 A 
HETATM   17 CL     D T9001       6.499   8.247  -4.263  1.00 89.26    -0.080 Cl
HETATM   18  C19   D T9001       3.366   7.895  -1.682  1.00 87.62     0.032 A 
HETATM   19  F21   D T9001       5.711   7.515  -1.447  1.00 88.92    -0.203 F 
HETATM   20  C20   D T9001       2.267   8.279  -2.500  1.00 87.82     0.021 A 
ENDBRANCH  12  13
ENDBRANCH  10  12
BRANCH   2  21
HETATM   21  O11   D T9001       1.024  15.570  -4.049  1.00 85.44    -0.327 OA
HETATM   22  C12   D T9001       0.321  16.500  -4.880  1.00 84.41     0.181 C 
ENDBRANCH   2  21
TORSDOF 3
ENDMDL
MODEL 9
REMARK VINA RESULT:    -6.619      3.417      4.734
REMARK INTER + INTRA:          -8.349
REMARK INTER:                  -7.859
REMARK INTRA:                  -0.491
REMARK UNBOUND:                -0.570
REMARK  3 active torsions:
REMARK  status: ('A' for Active; 'I' for Inactive)
REMARK    1  A    between atoms: C2_2  and  O11_20 
REMARK    2  A    between atoms: C10_10  and  N14_11 
REMARK    3  A    between atoms: N14_11  and  C15_12 
ROOT
HETATM    1  C1    D T9001       4.275  10.248  -3.310  1.00 83.47     0.092 A 
HETATM    2  C2    D T9001       4.198   8.914  -3.829  1.00 83.68     0.109 A 
HETATM    3  C3    D T9001       3.409   8.648  -4.998  1.00 82.47     0.044 A 
HETATM    4  C4    D T9001       2.696   9.652  -5.667  1.00 82.50     0.088 A 
HETATM    5  C5    D T9001       2.759  11.005  -5.158  1.00 84.12     0.055 A 
HETATM    6  C6    D T9001       3.554  11.279  -3.978  1.00 83.53     0.021 A 
HETATM    7  N7    D T9001       1.978   9.304  -6.767  1.00 81.78    -0.224 NA
HETATM    8  C8    D T9001       1.299  10.294  -7.403  1.00 83.59     0.200 A 
HETATM    9  N9    D T9001       1.269  11.598  -7.036  1.00 84.30    -0.205 NA
HETATM   10  C10   D T9001       1.998  11.968  -5.911  1.00 85.59     0.166 A 
HETATM   11  N13   D T9001       5.044  10.553  -2.162  1.00 82.67    -0.099 NA
ENDROOT
BRANCH  10  12
HETATM   12  N14   D T9001       1.987  13.345  -5.491  1.00 86.44    -0.227 NA
BRANCH  12  13
HETATM   13  C15   D T9001       1.411  13.865  -4.298  1.00 87.38     0.084 A 
HETATM   14  C16   D T9001       1.903  15.066  -3.689  1.00 88.13     0.033 A 
HETATM   15  C17   D T9001       1.331  15.573  -2.500  1.00 88.88     0.087 A 
HETATM   16  C18   D T9001       0.250  14.879  -1.896  1.00 88.55     0.151 A 
HETATM   17 CL     D T9001       1.971  17.025  -1.809  1.00 89.26    -0.080 Cl
HETATM   18  C19   D T9001      -0.263  13.684  -2.477  1.00 87.62     0.032 A 
HETATM   19  F21   D T9001      -0.303  15.345  -0.763  1.00 88.92    -0.203 F 
HETATM   20  C20   D T9001       0.316  13.177  -3.673  1.00 87.82     0.021 A 
ENDBRANCH  12  13
ENDBRANCH  10  12
BRANCH   2  21
HETATM   21  O11   D T9001       4.929   7.959  -3.128  1.00 85.44    -0.327 OA
HETATM   22  C12   D T9001       6.162   7.504  -3.697  1.00 84.41     0.181 C 
ENDBRANCH   2  21
TORSDOF 3
ENDMDL
