MODEL 1
REMARK VINA RESULT:    -7.898      0.000      0.000
REMARK INTER + INTRA:         -12.378
REMARK INTER:                 -11.130
REMARK INTRA:                  -1.248
REMARK UNBOUND:                -1.248
REMARK  7 active torsions:
REMARK  status: ('A' for Active; 'I' for Inactive)
REMARK    1  A    between atoms: C1_1  and  N13_22 
REMARK    2  A    between atoms: C2_2  and  O11_20 
REMARK    3  A    between atoms: C10_10  and  N14_11 
REMARK    4  A    between atoms: N14_11  and  C15_12 
REMARK       I    between atoms: N13_22  and  C26_23 
REMARK    5  A    between atoms: C26_23  and  C24_24 
REMARK    6  A    between atoms: C24_24  and  C23_25 
REMARK    7  A    between atoms: C23_25  and  C25_26 
ROOT
HETATM    1  C1    D T9001      -2.294  10.409 -11.011  1.00 30.38     0.107 A 
HETATM    2  C2    D T9001      -3.150  11.182 -11.866  1.00 29.65     0.113 A 
HETATM    3  C3    D T9001      -3.375  12.561 -11.555  1.00 28.21     0.045 A 
HETATM    4  C4    D T9001      -2.785  13.181 -10.434  1.00 27.21     0.088 A 
HETATM    5  C5    D T9001      -1.937  12.398  -9.566  1.00 26.27     0.055 A 
HETATM    6  C6    D T9001      -1.705  11.023  -9.871  1.00 29.22     0.026 A 
HETATM    7  N7    D T9001      -3.042  14.494 -10.216  1.00 25.99    -0.224 NA
HETATM    8  C8    D T9001      -2.466  15.056  -9.134  1.00 24.59     0.200 A 
HETATM    9  N9    D T9001      -1.663  14.431  -8.245  1.00 25.70    -0.205 NA
HETATM   10  C10   D T9001      -1.392  13.094  -8.451  1.00 27.48     0.166 A 
ENDROOT
BRANCH  10  11
HETATM   11  N14   D T9001      -0.550  12.401  -7.526  1.00 23.22    -0.227 NA
BRANCH  11  12
HETATM   12  C15   D T9001       0.863  12.282  -7.588  1.00 24.25     0.084 A 
HETATM   13  C16   D T9001       1.595  11.472  -6.660  1.00 25.06     0.033 A 
HETATM   14  C17   D T9001       2.991  11.370  -6.729  1.00 28.28     0.087 A 
HETATM   15  C18   D T9001       3.702  12.074  -7.730  1.00 25.55     0.151 A 
HETATM   16 CL     D T9001       3.799  10.380  -5.573  1.00 31.70    -0.080 Cl
HETATM   17  C19   D T9001       3.009  12.884  -8.665  1.00 24.70     0.032 A 
HETATM   18  F21   D T9001       5.039  11.992  -7.811  1.00 27.22    -0.203 F 
HETATM   19  C20   D T9001       1.592  12.986  -8.593  1.00 24.32     0.021 A 
ENDBRANCH  11  12
ENDBRANCH  10  11
BRANCH   1  20
HETATM   20  N13   D T9001      -2.057   9.050 -11.360  1.00 34.61    -0.210 NA
HETATM   21  C26   D T9001      -0.927   8.663 -12.101  1.00 36.24     0.256 C 
HETATM   22  O27   D T9001      -0.042   9.413 -12.515  1.00 39.97    -0.270 OA
BRANCH  21  23
HETATM   23  C24   D T9001      -0.916   7.170 -12.387  1.00 35.38     0.092 C 
BRANCH  23  24
HETATM   24  C23   D T9001      -0.859   6.330 -11.099  1.00 34.93     0.051 C 
BRANCH  24  25
HETATM   25  C25   D T9001       0.419   6.677 -10.327  1.00 37.23     0.339 C 
HETATM   26  N33   D T9001       0.095   7.130  -8.925  1.00 41.10     0.618 N 
ENDBRANCH  24  25
ENDBRANCH  23  24
ENDBRANCH  21  23
ENDBRANCH   1  20
BRANCH   2  27
HETATM   27  O11   D T9001      -3.689  10.490 -12.946  1.00 31.09    -0.327 OA
HETATM   28  C12   D T9001      -3.911  11.163 -14.188  1.00 29.66     0.181 C 
ENDBRANCH   2  27
TORSDOF 7
ENDMDL
MODEL 2
REMARK VINA RESULT:    -7.838      3.192      6.209
REMARK INTER + INTRA:         -12.293
REMARK INTER:                 -11.297
REMARK INTRA:                  -0.996
REMARK UNBOUND:                -1.248
REMARK  7 active torsions:
REMARK  status: ('A' for Active; 'I' for Inactive)
REMARK    1  A    between atoms: C1_1  and  N13_22 
REMARK    2  A    between atoms: C2_2  and  O11_20 
REMARK    3  A    between atoms: C10_10  and  N14_11 
REMARK    4  A    between atoms: N14_11  and  C15_12 
REMARK       I    between atoms: N13_22  and  C26_23 
REMARK    5  A    between atoms: C26_23  and  C24_24 
REMARK    6  A    between atoms: C24_24  and  C23_25 
REMARK    7  A    between atoms: C23_25  and  C25_26 
ROOT
HETATM    1  C1    D T9001      -2.510  13.644  -9.952  1.00 30.38     0.107 A 
HETATM    2  C2    D T9001      -3.762  14.232  -9.565  1.00 29.65     0.113 A 
HETATM    3  C3    D T9001      -4.973  13.706 -10.118  1.00 28.21     0.045 A 
HETATM    4  C4    D T9001      -4.973  12.634 -11.033  1.00 27.21     0.088 A 
HETATM    5  C5    D T9001      -3.713  12.054 -11.434  1.00 26.27     0.055 A 
HETATM    6  C6    D T9001      -2.501  12.569 -10.884  1.00 29.22     0.026 A 
HETATM    7  N7    D T9001      -6.165  12.190 -11.504  1.00 25.99    -0.224 NA
HETATM    8  C8    D T9001      -6.132  11.165 -12.379  1.00 24.59     0.200 A 
HETATM    9  N9    D T9001      -5.022  10.546 -12.836  1.00 25.70    -0.205 NA
HETATM   10  C10   D T9001      -3.800  10.985 -12.370  1.00 27.48     0.166 A 
ENDROOT
BRANCH  10  11
HETATM   11  N14   D T9001      -2.605  10.354 -12.837  1.00 23.22    -0.227 NA
BRANCH  11  12
HETATM   12  C15   D T9001      -2.014   9.169 -12.326  1.00 24.25     0.084 A 
HETATM   13  C16   D T9001      -1.611   9.056 -10.957  1.00 25.06     0.033 A 
HETATM   14  C17   D T9001      -1.022   7.881 -10.468  1.00 28.28     0.087 A 
HETATM   15  C18   D T9001      -0.818   6.779 -11.333  1.00 25.55     0.151 A 
HETATM   16 CL     D T9001      -0.558   7.824  -8.810  1.00 31.70    -0.080 Cl
HETATM   17  C19   D T9001      -1.207   6.858 -12.695  1.00 24.70     0.032 A 
HETATM   18  F21   D T9001      -0.253   5.648 -10.885  1.00 27.22    -0.203 F 
HETATM   19  C20   D T9001      -1.805   8.050 -13.188  1.00 24.32     0.021 A 
ENDBRANCH  11  12
ENDBRANCH  10  11
BRANCH   1  20
HETATM   20  N13   D T9001      -1.323  14.159  -9.361  1.00 34.61    -0.210 NA
HETATM   21  C26   D T9001      -0.627  13.454  -8.363  1.00 36.24     0.256 C 
HETATM   22  O27   D T9001      -0.940  12.356  -7.902  1.00 39.97    -0.270 OA
BRANCH  21  23
HETATM   23  C24   D T9001       0.582  14.224  -7.858  1.00 35.38     0.092 C 
BRANCH  23  24
HETATM   24  C23   D T9001       1.882  13.794  -8.560  1.00 34.93     0.051 C 
BRANCH  24  25
HETATM   25  C25   D T9001       2.891  13.324  -7.506  1.00 37.23     0.339 C 
HETATM   26  N33   D T9001       3.949  12.448  -8.128  1.00 41.10     0.618 N 
ENDBRANCH  24  25
ENDBRANCH  23  24
ENDBRANCH  21  23
ENDBRANCH   1  20
BRANCH   2  27
HETATM   27  O11   D T9001      -3.667  15.284  -8.660  1.00 31.09    -0.327 OA
HETATM   28  C12   D T9001      -4.714  15.511  -7.712  1.00 29.66     0.181 C 
ENDBRANCH   2  27
TORSDOF 7
ENDMDL
MODEL 3
REMARK VINA RESULT:    -7.340      3.221      6.476
REMARK INTER + INTRA:         -11.592
REMARK INTER:                 -10.720
REMARK INTRA:                  -0.872
REMARK UNBOUND:                -1.248
REMARK  7 active torsions:
REMARK  status: ('A' for Active; 'I' for Inactive)
REMARK    1  A    between atoms: C1_1  and  N13_22 
REMARK    2  A    between atoms: C2_2  and  O11_20 
REMARK    3  A    between atoms: C10_10  and  N14_11 
REMARK    4  A    between atoms: N14_11  and  C15_12 
REMARK       I    between atoms: N13_22  and  C26_23 
REMARK    5  A    between atoms: C26_23  and  C24_24 
REMARK    6  A    between atoms: C24_24  and  C23_25 
REMARK    7  A    between atoms: C23_25  and  C25_26 
ROOT
HETATM    1  C1    D T9001      -0.419   9.354 -10.881  1.00 30.38     0.107 A 
HETATM    2  C2    D T9001      -0.236   7.983 -11.265  1.00 29.65     0.113 A 
HETATM    3  C3    D T9001      -1.060   7.439 -12.302  1.00 28.21     0.045 A 
HETATM    4  C4    D T9001      -2.048   8.207 -12.952  1.00 27.21     0.088 A 
HETATM    5  C5    D T9001      -2.242   9.581 -12.553  1.00 26.27     0.055 A 
HETATM    6  C6    D T9001      -1.422  10.132 -11.524  1.00 29.22     0.026 A 
HETATM    7  N7    D T9001      -2.780   7.618 -13.929  1.00 25.99    -0.224 NA
HETATM    8  C8    D T9001      -3.719   8.378 -14.530  1.00 24.59     0.200 A 
HETATM    9  N9    D T9001      -4.001   9.667 -14.242  1.00 25.70    -0.205 NA
HETATM   10  C10   D T9001      -3.267  10.282 -13.250  1.00 27.48     0.166 A 
ENDROOT
BRANCH  10  11
HETATM   11  N14   D T9001      -3.544  11.645 -12.917  1.00 23.22    -0.227 NA
BRANCH  11  12
HETATM   12  C15   D T9001      -3.747  12.178 -11.618  1.00 24.25     0.084 A 
HETATM   13  C16   D T9001      -2.845  13.130 -11.042  1.00 25.06     0.033 A 
HETATM   14  C17   D T9001      -3.055  13.642  -9.753  1.00 28.28     0.087 A 
HETATM   15  C18   D T9001      -4.175  13.220  -8.999  1.00 25.55     0.151 A 
HETATM   16 CL     D T9001      -1.921  14.779  -9.128  1.00 31.70    -0.080 Cl
HETATM   17  C19   D T9001      -5.088  12.279  -9.539  1.00 24.70     0.032 A 
HETATM   18  F21   D T9001      -4.391  13.695  -7.763  1.00 27.22    -0.203 F 
HETATM   19  C20   D T9001      -4.874  11.761 -10.847  1.00 24.32     0.021 A 
ENDBRANCH  11  12
ENDBRANCH  10  11
BRANCH   1  20
HETATM   20  N13   D T9001       0.436   9.883  -9.875  1.00 34.61    -0.210 NA
HETATM   21  C26   D T9001       0.048   9.933  -8.525  1.00 36.24     0.256 C 
HETATM   22  O27   D T9001      -1.026   9.541  -8.066  1.00 39.97    -0.270 OA
BRANCH  21  23
HETATM   23  C24   D T9001       1.110  10.577  -7.649  1.00 35.38     0.092 C 
BRANCH  23  24
HETATM   24  C23   D T9001       1.851  11.714  -8.373  1.00 34.93     0.051 C 
BRANCH  24  25
HETATM   25  C25   D T9001       1.333  13.061  -7.857  1.00 37.23     0.339 C 
HETATM   26  N33   D T9001       1.693  14.176  -8.807  1.00 41.10     0.618 N 
ENDBRANCH  24  25
ENDBRANCH  23  24
ENDBRANCH  21  23
ENDBRANCH   1  20
BRANCH   2  27
HETATM   27  O11   D T9001       0.759   7.302 -10.572  1.00 31.09    -0.327 OA
HETATM   28  C12   D T9001       0.438   6.116  -9.838  1.00 29.66     0.181 C 
ENDBRANCH   2  27
TORSDOF 7
ENDMDL
MODEL 4
REMARK VINA RESULT:    -7.337      3.803      7.739
REMARK INTER + INTRA:         -11.588
REMARK INTER:                 -10.478
REMARK INTRA:                  -1.110
REMARK UNBOUND:                -1.248
REMARK  7 active torsions:
REMARK  status: ('A' for Active; 'I' for Inactive)
REMARK    1  A    between atoms: C1_1  and  N13_22 
REMARK    2  A    between atoms: C2_2  and  O11_20 
REMARK    3  A    between atoms: C10_10  and  N14_11 
REMARK    4  A    between atoms: N14_11  and  C15_12 
REMARK       I    between atoms: N13_22  and  C26_23 
REMARK    5  A    between atoms: C26_23  and  C24_24 
REMARK    6  A    between atoms: C24_24  and  C23_25 
REMARK    7  A    between atoms: C23_25  and  C25_26 
ROOT
HETATM    1  C1    D T9001       0.127  10.290  -8.451  1.00 30.38     0.107 A 
HETATM    2  C2    D T9001       0.522   9.140  -7.688  1.00 29.65     0.113 A 
HETATM    3  C3    D T9001       0.426   7.845  -8.291  1.00 28.21     0.045 A 
HETATM    4  C4    D T9001      -0.047   7.666  -9.607  1.00 27.21     0.088 A 
HETATM    5  C5    D T9001      -0.459   8.822 -10.367  1.00 26.27     0.055 A 
HETATM    6  C6    D T9001      -0.363  10.117  -9.775  1.00 29.22     0.026 A 
HETATM    7  N7    D T9001      -0.098   6.406 -10.106  1.00 25.99    -0.224 NA
HETATM    8  C8    D T9001      -0.558   6.268 -11.366  1.00 24.59     0.200 A 
HETATM    9  N9    D T9001      -0.979   7.266 -12.173  1.00 25.70    -0.205 NA
HETATM   10  C10   D T9001      -0.935   8.554 -11.681  1.00 27.48     0.166 A 
ENDROOT
BRANCH  10  11
HETATM   11  N14   D T9001      -1.379   9.634 -12.508  1.00 23.22    -0.227 NA
BRANCH  11  12
HETATM   12  C15   D T9001      -2.674  10.213 -12.526  1.00 24.25     0.084 A 
HETATM   13  C16   D T9001      -2.975  11.413 -11.805  1.00 25.06     0.033 A 
HETATM   14  C17   D T9001      -4.262  11.970 -11.827  1.00 28.28     0.087 A 
HETATM   15  C18   D T9001      -5.290  11.345 -12.572  1.00 25.55     0.151 A 
HETATM   16 CL     D T9001      -4.547  13.412 -10.928  1.00 31.70    -0.080 Cl
HETATM   17  C19   D T9001      -5.026  10.156 -13.298  1.00 24.70     0.032 A 
HETATM   18  F21   D T9001      -6.529  11.860 -12.602  1.00 27.22    -0.203 F 
HETATM   19  C20   D T9001      -3.719   9.593 -13.275  1.00 24.32     0.021 A 
ENDBRANCH  11  12
ENDBRANCH  10  11
BRANCH   1  20
HETATM   20  N13   D T9001       0.266  11.569  -7.844  1.00 34.61    -0.210 NA
HETATM   21  C26   D T9001       1.343  12.420  -8.148  1.00 36.24     0.256 C 
HETATM   22  O27   D T9001       2.253  12.179  -8.941  1.00 39.97    -0.270 OA
BRANCH  21  23
HETATM   23  C24   D T9001       1.297  13.709  -7.343  1.00 35.38     0.092 C 
BRANCH  23  24
HETATM   24  C23   D T9001      -0.103  14.349  -7.348  1.00 34.93     0.051 C 
BRANCH  24  25
HETATM   25  C25   D T9001      -0.369  14.968  -8.724  1.00 37.23     0.339 C 
HETATM   26  N33   D T9001      -1.786  14.707  -9.167  1.00 41.10     0.618 N 
ENDBRANCH  24  25
ENDBRANCH  23  24
ENDBRANCH  21  23
ENDBRANCH   1  20
BRANCH   2  27
HETATM   27  O11   D T9001       0.975   9.410  -6.401  1.00 31.09    -0.327 OA
HETATM   28  C12   D T9001       2.374   9.581  -6.155  1.00 29.66     0.181 C 
ENDBRANCH   2  27
TORSDOF 7
ENDMDL
MODEL 5
REMARK VINA RESULT:    -7.330      1.738      4.978
REMARK INTER + INTRA:         -11.577
REMARK INTER:                 -10.400
REMARK INTRA:                  -1.178
REMARK UNBOUND:                -1.248
REMARK  7 active torsions:
REMARK  status: ('A' for Active; 'I' for Inactive)
REMARK    1  A    between atoms: C1_1  and  N13_22 
REMARK    2  A    between atoms: C2_2  and  O11_20 
REMARK    3  A    between atoms: C10_10  and  N14_11 
REMARK    4  A    between atoms: N14_11  and  C15_12 
REMARK       I    between atoms: N13_22  and  C26_23 
REMARK    5  A    between atoms: C26_23  and  C24_24 
REMARK    6  A    between atoms: C24_24  and  C23_25 
REMARK    7  A    between atoms: C23_25  and  C25_26 
ROOT
HETATM    1  C1    D T9001      -3.174  11.598 -11.390  1.00 30.38     0.107 A 
HETATM    2  C2    D T9001      -3.359  10.932 -12.649  1.00 29.65     0.113 A 
HETATM    3  C3    D T9001      -2.666   9.702 -12.888  1.00 28.21     0.045 A 
HETATM    4  C4    D T9001      -1.807   9.129 -11.928  1.00 27.21     0.088 A 
HETATM    5  C5    D T9001      -1.610   9.808 -10.670  1.00 26.27     0.055 A 
HETATM    6  C6    D T9001      -2.299  11.033 -10.421  1.00 29.22     0.026 A 
HETATM    7  N7    D T9001      -1.196   7.957 -12.230  1.00 25.99    -0.224 NA
HETATM    8  C8    D T9001      -0.378   7.436 -11.293  1.00 24.59     0.200 A 
HETATM    9  N9    D T9001      -0.106   7.977 -10.086  1.00 25.70    -0.205 NA
HETATM   10  C10   D T9001      -0.718   9.170  -9.762  1.00 27.48     0.166 A 
ENDROOT
BRANCH  10  11
HETATM   11  N14   D T9001      -0.447   9.773  -8.493  1.00 23.22    -0.227 NA
BRANCH  11  12
HETATM   12  C15   D T9001       0.710  10.511  -8.133  1.00 24.25     0.084 A 
HETATM   13  C16   D T9001       1.458  10.212  -6.949  1.00 25.06     0.033 A 
HETATM   14  C17   D T9001       2.596  10.955  -6.601  1.00 28.28     0.087 A 
HETATM   15  C18   D T9001       3.023  12.021  -7.429  1.00 25.55     0.151 A 
HETATM   16 CL     D T9001       3.438  10.538  -5.158  1.00 31.70    -0.080 Cl
HETATM   17  C19   D T9001       2.306  12.342  -8.609  1.00 24.70     0.032 A 
HETATM   18  F21   D T9001       4.108  12.745  -7.112  1.00 27.22    -0.203 F 
HETATM   19  C20   D T9001       1.153  11.588  -8.960  1.00 24.32     0.021 A 
ENDBRANCH  11  12
ENDBRANCH  10  11
BRANCH   1  20
HETATM   20  N13   D T9001      -3.900  12.800 -11.161  1.00 34.61    -0.210 NA
HETATM   21  C26   D T9001      -5.142  12.800 -10.503  1.00 36.24     0.256 C 
HETATM   22  O27   D T9001      -5.726  11.810 -10.060  1.00 39.97    -0.270 OA
BRANCH  21  23
HETATM   23  C24   D T9001      -5.743  14.194 -10.416  1.00 35.38     0.092 C 
BRANCH  23  24
HETATM   24  C23   D T9001      -4.674  15.275 -10.183  1.00 34.93     0.051 C 
BRANCH  24  25
HETATM   25  C25   D T9001      -4.460  15.455  -8.676  1.00 37.23     0.339 C 
HETATM   26  N33   D T9001      -3.054  15.077  -8.283  1.00 41.10     0.618 N 
ENDBRANCH  24  25
ENDBRANCH  23  24
ENDBRANCH  21  23
ENDBRANCH   1  20
BRANCH   2  27
HETATM   27  O11   D T9001      -4.222  11.569 -13.534  1.00 31.09    -0.327 OA
HETATM   28  C12   D T9001      -3.910  11.617 -14.929  1.00 29.66     0.181 C 
ENDBRANCH   2  27
TORSDOF 7
ENDMDL
MODEL 6
REMARK VINA RESULT:    -7.187      3.488      6.167
REMARK INTER + INTRA:         -11.376
REMARK INTER:                 -10.289
REMARK INTRA:                  -1.087
REMARK UNBOUND:                -1.248
REMARK  7 active torsions:
REMARK  status: ('A' for Active; 'I' for Inactive)
REMARK    1  A    between atoms: C1_1  and  N13_22 
REMARK    2  A    between atoms: C2_2  and  O11_20 
REMARK    3  A    between atoms: C10_10  and  N14_11 
REMARK    4  A    between atoms: N14_11  and  C15_12 
REMARK       I    between atoms: N13_22  and  C26_23 
REMARK    5  A    between atoms: C26_23  and  C24_24 
REMARK    6  A    between atoms: C24_24  and  C23_25 
REMARK    7  A    between atoms: C23_25  and  C25_26 
ROOT
HETATM    1  C1    D T9001      -4.223  12.592 -10.301  1.00 30.38     0.107 A 
HETATM    2  C2    D T9001      -5.530  12.576 -10.897  1.00 29.65     0.113 A 
HETATM    3  C3    D T9001      -5.783  11.678 -11.983  1.00 28.21     0.045 A 
HETATM    4  C4    D T9001      -4.789  10.815 -12.487  1.00 27.21     0.088 A 
HETATM    5  C5    D T9001      -3.471  10.844 -11.898  1.00 26.27     0.055 A 
HETATM    6  C6    D T9001      -3.211  11.733 -10.811  1.00 29.22     0.026 A 
HETATM    7  N7    D T9001      -5.113   9.989 -13.512  1.00 25.99    -0.224 NA
HETATM    8  C8    D T9001      -4.140   9.178 -13.974  1.00 24.59     0.200 A 
HETATM    9  N9    D T9001      -2.871   9.117 -13.514  1.00 25.70    -0.205 NA
HETATM   10  C10   D T9001      -2.523   9.951 -12.472  1.00 27.48     0.166 A 
ENDROOT
BRANCH  10  11
HETATM   11  N14   D T9001      -1.186   9.916 -11.964  1.00 23.22    -0.227 NA
BRANCH  11  12
HETATM   12  C15   D T9001      -0.642   8.958 -11.071  1.00 24.25     0.084 A 
HETATM   13  C16   D T9001      -0.319   9.287  -9.714  1.00 25.06     0.033 A 
HETATM   14  C17   D T9001       0.225   8.331  -8.844  1.00 28.28     0.087 A 
HETATM   15  C18   D T9001       0.463   7.013  -9.302  1.00 25.55     0.151 A 
HETATM   16 CL     D T9001       0.591   8.806  -7.230  1.00 31.70    -0.080 Cl
HETATM   17  C19   D T9001       0.154   6.653 -10.639  1.00 24.70     0.032 A 
HETATM   18  F21   D T9001       0.986   6.085  -8.486  1.00 27.22    -0.203 F 
HETATM   19  C20   D T9001      -0.398   7.624 -11.519  1.00 24.32     0.021 A 
ENDBRANCH  11  12
ENDBRANCH  10  11
BRANCH   1  20
HETATM   20  N13   D T9001      -4.006  13.466  -9.200  1.00 34.61    -0.210 NA
HETATM   21  C26   D T9001      -4.074  13.013  -7.871  1.00 36.24     0.256 C 
HETATM   22  O27   D T9001      -4.313  11.859  -7.512  1.00 39.97    -0.270 OA
BRANCH  21  23
HETATM   23  C24   D T9001      -3.850  14.136  -6.872  1.00 35.38     0.092 C 
BRANCH  23  24
HETATM   24  C23   D T9001      -3.152  15.351  -7.509  1.00 34.93     0.051 C 
BRANCH  24  25
HETATM   25  C25   D T9001      -1.654  15.296  -7.187  1.00 37.23     0.339 C 
HETATM   26  N33   D T9001      -1.356  16.009  -5.892  1.00 41.10     0.618 N 
ENDBRANCH  24  25
ENDBRANCH  23  24
ENDBRANCH  21  23
ENDBRANCH   1  20
BRANCH   2  27
HETATM   27  O11   D T9001      -6.447  13.460 -10.338  1.00 31.09    -0.327 OA
HETATM   28  C12   D T9001      -6.987  14.524 -11.125  1.00 29.66     0.181 C 
ENDBRANCH   2  27
TORSDOF 7
ENDMDL
MODEL 7
REMARK VINA RESULT:    -7.139      2.381      5.469
REMARK INTER + INTRA:         -11.308
REMARK INTER:                 -10.252
REMARK INTRA:                  -1.056
REMARK UNBOUND:                -1.248
REMARK  7 active torsions:
REMARK  status: ('A' for Active; 'I' for Inactive)
REMARK    1  A    between atoms: C1_1  and  N13_22 
REMARK    2  A    between atoms: C2_2  and  O11_20 
REMARK    3  A    between atoms: C10_10  and  N14_11 
REMARK    4  A    between atoms: N14_11  and  C15_12 
REMARK       I    between atoms: N13_22  and  C26_23 
REMARK    5  A    between atoms: C26_23  and  C24_24 
REMARK    6  A    between atoms: C24_24  and  C23_25 
REMARK    7  A    between atoms: C23_25  and  C25_26 
ROOT
HETATM    1  C1    D T9001      -3.319  11.266 -11.267  1.00 30.38     0.107 A 
HETATM    2  C2    D T9001      -3.404  10.771 -12.613  1.00 29.65     0.113 A 
HETATM    3  C3    D T9001      -2.630   9.622 -12.976  1.00 28.21     0.045 A 
HETATM    4  C4    D T9001      -1.787   8.967 -12.056  1.00 27.21     0.088 A 
HETATM    5  C5    D T9001      -1.691   9.475 -10.708  1.00 26.27     0.055 A 
HETATM    6  C6    D T9001      -2.462  10.617 -10.336  1.00 29.22     0.026 A 
HETATM    7  N7    D T9001      -1.095   7.880 -12.479  1.00 25.99    -0.224 NA
HETATM    8  C8    D T9001      -0.295   7.277 -11.576  1.00 24.59     0.200 A 
HETATM    9  N9    D T9001      -0.114   7.660 -10.293  1.00 25.70    -0.205 NA
HETATM   10  C10   D T9001      -0.809   8.764  -9.846  1.00 27.48     0.166 A 
ENDROOT
BRANCH  10  11
HETATM   11  N14   D T9001      -0.637   9.199  -8.494  1.00 23.22    -0.227 NA
BRANCH  11  12
HETATM   12  C15   D T9001       0.464   9.924  -7.970  1.00 24.25     0.084 A 
HETATM   13  C16   D T9001       0.985  11.086  -8.625  1.00 25.06     0.033 A 
HETATM   14  C17   D T9001       2.079  11.789  -8.098  1.00 28.28     0.087 A 
HETATM   15  C18   D T9001       2.686  11.352  -6.897  1.00 25.55     0.151 A 
HETATM   16 CL     D T9001       2.651  13.173  -8.948  1.00 31.70    -0.080 Cl
HETATM   17  C19   D T9001       2.195  10.205  -6.222  1.00 24.70     0.032 A 
HETATM   18  F21   D T9001       3.736  12.008  -6.378  1.00 27.22    -0.203 F 
HETATM   19  C20   D T9001       1.086   9.495  -6.758  1.00 24.32     0.021 A 
ENDBRANCH  11  12
ENDBRANCH  10  11
BRANCH   1  20
HETATM   20  N13   D T9001      -4.124  12.386 -10.920  1.00 34.61    -0.210 NA
HETATM   21  C26   D T9001      -3.606  13.692 -10.901  1.00 36.24     0.256 C 
HETATM   22  O27   D T9001      -2.449  14.016 -11.173  1.00 39.97    -0.270 OA
BRANCH  21  23
HETATM   23  C24   D T9001      -4.644  14.712 -10.458  1.00 35.38     0.092 C 
BRANCH  23  24
HETATM   24  C23   D T9001      -6.071  14.139 -10.483  1.00 34.93     0.051 C 
BRANCH  24  25
HETATM   25  C25   D T9001      -7.071  15.266 -10.203  1.00 37.23     0.339 C 
HETATM   26  N33   D T9001      -8.141  15.314 -11.265  1.00 41.10     0.618 N 
ENDBRANCH  24  25
ENDBRANCH  23  24
ENDBRANCH  21  23
ENDBRANCH   1  20
BRANCH   2  27
HETATM   27  O11   D T9001      -4.258  11.479 -13.451  1.00 31.09    -0.327 OA
HETATM   28  C12   D T9001      -3.951  11.608 -14.842  1.00 29.66     0.181 C 
ENDBRANCH   2  27
TORSDOF 7
ENDMDL
MODEL 8
REMARK VINA RESULT:    -7.134      3.790      6.380
REMARK INTER + INTRA:         -11.301
REMARK INTER:                 -10.300
REMARK INTRA:                  -1.001
REMARK UNBOUND:                -1.248
REMARK  7 active torsions:
REMARK  status: ('A' for Active; 'I' for Inactive)
REMARK    1  A    between atoms: C1_1  and  N13_22 
REMARK    2  A    between atoms: C2_2  and  O11_20 
REMARK    3  A    between atoms: C10_10  and  N14_11 
REMARK    4  A    between atoms: N14_11  and  C15_12 
REMARK       I    between atoms: N13_22  and  C26_23 
REMARK    5  A    between atoms: C26_23  and  C24_24 
REMARK    6  A    between atoms: C24_24  and  C23_25 
REMARK    7  A    between atoms: C23_25  and  C25_26 
ROOT
HETATM    1  C1    D T9001      -3.210  11.771  -7.885  1.00 30.38     0.107 A 
HETATM    2  C2    D T9001      -3.229  12.165  -6.505  1.00 29.65     0.113 A 
HETATM    3  C3    D T9001      -1.994  12.201  -5.779  1.00 28.21     0.045 A 
HETATM    4  C4    D T9001      -0.765  11.857  -6.378  1.00 27.21     0.088 A 
HETATM    5  C5    D T9001      -0.750  11.445  -7.762  1.00 26.27     0.055 A 
HETATM    6  C6    D T9001      -1.975  11.411  -8.493  1.00 29.22     0.026 A 
HETATM    7  N7    D T9001       0.359  11.926  -5.623  1.00 25.99    -0.224 NA
HETATM    8  C8    D T9001       1.518  11.588  -6.224  1.00 24.59     0.200 A 
HETATM    9  N9    D T9001       1.662  11.181  -7.503  1.00 25.70    -0.205 NA
HETATM   10  C10   D T9001       0.528  11.104  -8.286  1.00 27.48     0.166 A 
ENDROOT
BRANCH  10  11
HETATM   11  N14   D T9001       0.644  10.671  -9.645  1.00 23.22    -0.227 NA
BRANCH  11  12
HETATM   12  C15   D T9001       0.243   9.417 -10.174  1.00 24.25     0.084 A 
HETATM   13  C16   D T9001      -0.288   9.291 -11.498  1.00 25.06     0.033 A 
HETATM   14  C17   D T9001      -0.687   8.046 -12.005  1.00 28.28     0.087 A 
HETATM   15  C18   D T9001      -0.567   6.885 -11.203  1.00 25.55     0.151 A 
HETATM   16 CL     D T9001      -1.321   7.977 -13.605  1.00 31.70    -0.080 Cl
HETATM   17  C19   D T9001      -0.045   6.975  -9.888  1.00 24.70     0.032 A 
HETATM   18  F21   D T9001      -0.947   5.685 -11.669  1.00 27.22    -0.203 F 
HETATM   19  C20   D T9001       0.359   8.239  -9.376  1.00 24.32     0.021 A 
ENDBRANCH  11  12
ENDBRANCH  10  11
BRANCH   1  20
HETATM   20  N13   D T9001      -4.443  11.778  -8.595  1.00 34.61    -0.210 NA
HETATM   21  C26   D T9001      -4.741  12.765  -9.550  1.00 36.24     0.256 C 
HETATM   22  O27   D T9001      -4.008  13.699  -9.879  1.00 39.97    -0.270 OA
BRANCH  21  23
HETATM   23  C24   D T9001      -6.131  12.588 -10.140  1.00 35.38     0.092 C 
BRANCH  23  24
HETATM   24  C23   D T9001      -6.212  13.077 -11.597  1.00 34.93     0.051 C 
BRANCH  24  25
HETATM   25  C25   D T9001      -6.228  11.865 -12.535  1.00 37.23     0.339 C 
HETATM   26  N33   D T9001      -5.033  10.978 -12.289  1.00 41.10     0.618 N 
ENDBRANCH  24  25
ENDBRANCH  23  24
ENDBRANCH  21  23
ENDBRANCH   1  20
BRANCH   2  27
HETATM   27  O11   D T9001      -4.484  12.485  -5.997  1.00 31.09    -0.327 OA
HETATM   28  C12   D T9001      -4.668  13.692  -5.252  1.00 29.66     0.181 C 
ENDBRANCH   2  27
TORSDOF 7
ENDMDL
MODEL 9
REMARK VINA RESULT:    -7.129      4.672      7.541
REMARK INTER + INTRA:         -11.295
REMARK INTER:                 -10.563
REMARK INTRA:                  -0.732
REMARK UNBOUND:                -1.248
REMARK  7 active torsions:
REMARK  status: ('A' for Active; 'I' for Inactive)
REMARK    1  A    between atoms: C1_1  and  N13_22 
REMARK    2  A    between atoms: C2_2  and  O11_20 
REMARK    3  A    between atoms: C10_10  and  N14_11 
REMARK    4  A    between atoms: N14_11  and  C15_12 
REMARK       I    between atoms: N13_22  and  C26_23 
REMARK    5  A    between atoms: C26_23  and  C24_24 
REMARK    6  A    between atoms: C24_24  and  C23_25 
REMARK    7  A    between atoms: C23_25  and  C25_26 
ROOT
HETATM    1  C1    D T9001       1.455  10.140  -6.244  1.00 30.38     0.107 A 
HETATM    2  C2    D T9001       0.705  10.583  -5.103  1.00 29.65     0.113 A 
HETATM    3  C3    D T9001      -0.635  11.049  -5.296  1.00 28.21     0.045 A 
HETATM    4  C4    D T9001      -1.237  11.089  -6.571  1.00 27.21     0.088 A 
HETATM    5  C5    D T9001      -0.475  10.658  -7.719  1.00 26.27     0.055 A 
HETATM    6  C6    D T9001       0.860  10.188  -7.535  1.00 29.22     0.026 A 
HETATM    7  N7    D T9001      -2.513  11.536  -6.666  1.00 25.99    -0.224 NA
HETATM    8  C8    D T9001      -3.059  11.566  -7.898  1.00 24.59     0.200 A 
HETATM    9  N9    D T9001      -2.450  11.198  -9.047  1.00 25.70    -0.205 NA
HETATM   10  C10   D T9001      -1.151  10.742  -8.969  1.00 27.48     0.166 A 
ENDROOT
BRANCH  10  11
HETATM   11  N14   D T9001      -0.474  10.349 -10.167  1.00 23.22    -0.227 NA
BRANCH  11  12
HETATM   12  C15   D T9001      -0.988   9.526 -11.202  1.00 24.25     0.084 A 
HETATM   13  C16   D T9001      -2.038   9.970 -12.070  1.00 25.06     0.033 A 
HETATM   14  C17   D T9001      -2.541   9.143 -13.084  1.00 28.28     0.087 A 
HETATM   15  C18   D T9001      -2.010   7.843 -13.264  1.00 25.55     0.151 A 
HETATM   16 CL     D T9001      -3.808   9.747 -14.082  1.00 31.70    -0.080 Cl
HETATM   17  C19   D T9001      -0.970   7.372 -12.423  1.00 24.70     0.032 A 
HETATM   18  F21   D T9001      -2.480   7.035 -14.226  1.00 27.22    -0.203 F 
HETATM   19  C20   D T9001      -0.460   8.214 -11.395  1.00 24.32     0.021 A 
ENDBRANCH  11  12
ENDBRANCH  10  11
BRANCH   1  20
HETATM   20  N13   D T9001       2.771   9.647  -6.023  1.00 34.61    -0.210 NA
HETATM   21  C26   D T9001       3.904  10.464  -6.184  1.00 36.24     0.256 C 
HETATM   22  O27   D T9001       3.899  11.650  -6.515  1.00 39.97    -0.270 OA
BRANCH  21  23
HETATM   23  C24   D T9001       5.196   9.703  -5.934  1.00 35.38     0.092 C 
BRANCH  23  24
HETATM   24  C23   D T9001       5.307   9.204  -4.483  1.00 34.93     0.051 C 
BRANCH  24  25
HETATM   25  C25   D T9001       6.735   8.705  -4.229  1.00 37.23     0.339 C 
HETATM   26  N33   D T9001       7.699   9.310  -5.219  1.00 41.10     0.618 N 
ENDBRANCH  24  25
ENDBRANCH  23  24
ENDBRANCH  21  23
ENDBRANCH   1  20
BRANCH   2  27
HETATM   27  O11   D T9001       1.376  10.509  -3.887  1.00 31.09    -0.327 OA
HETATM   28  C12   D T9001       1.588  11.693  -3.113  1.00 29.66     0.181 C 
ENDBRANCH   2  27
TORSDOF 7
ENDMDL
