MODEL 1
REMARK VINA RESULT:    -8.093      0.000      0.000
REMARK INTER + INTRA:         -12.220
REMARK INTER:                 -11.405
REMARK INTRA:                  -0.815
REMARK UNBOUND:                -0.815
REMARK  7 active torsions:
REMARK  status: ('A' for Active; 'I' for Inactive)
REMARK    1  A    between atoms: C1_1  and  N13_22 
REMARK    2  A    between atoms: C2_2  and  O11_20 
REMARK    3  A    between atoms: C10_10  and  N14_11 
REMARK    4  A    between atoms: N14_11  and  C15_12 
REMARK       I    between atoms: N13_22  and  C26_23 
REMARK    5  A    between atoms: C26_23  and  C24_24 
REMARK    6  A    between atoms: C24_24  and  C23_25 
REMARK    7  A    between atoms: C23_25  and  C25_26 
ROOT
HETATM    1  C1    D T9001      -6.774   3.868  -8.191  1.00 30.38     0.107 A 
HETATM    2  C2    D T9001      -7.839   3.898  -7.228  1.00 29.65     0.113 A 
HETATM    3  C3    D T9001      -8.402   2.659  -6.784  1.00 28.21     0.045 A 
HETATM    4  C4    D T9001      -7.947   1.415  -7.266  1.00 27.21     0.088 A 
HETATM    5  C5    D T9001      -6.888   1.387  -8.245  1.00 26.27     0.055 A 
HETATM    6  C6    D T9001      -6.317   2.618  -8.692  1.00 29.22     0.026 A 
HETATM    7  N7    D T9001      -8.530   0.288  -6.787  1.00 25.99    -0.224 NA
HETATM    8  C8    D T9001      -8.074  -0.886  -7.269  1.00 24.59     0.200 A 
HETATM    9  N9    D T9001      -7.099  -1.043  -8.190  1.00 25.70    -0.205 NA
HETATM   10  C10   D T9001      -6.495   0.093  -8.689  1.00 27.48     0.166 A 
ENDROOT
BRANCH  10  11
HETATM   11  N14   D T9001      -5.461  -0.037  -9.669  1.00 23.22    -0.227 NA
BRANCH  11  12
HETATM   12  C15   D T9001      -4.342  -0.906  -9.613  1.00 24.25     0.084 A 
HETATM   13  C16   D T9001      -3.798  -1.516 -10.790  1.00 25.06     0.033 A 
HETATM   14  C17   D T9001      -2.696  -2.380 -10.718  1.00 28.28     0.087 A 
HETATM   15  C18   D T9001      -2.100  -2.662  -9.465  1.00 25.55     0.151 A 
HETATM   16 CL     D T9001      -2.104  -3.078 -12.177  1.00 31.70    -0.080 Cl
HETATM   17  C19   D T9001      -2.612  -2.074  -8.281  1.00 24.70     0.032 A 
HETATM   18  F21   D T9001      -1.048  -3.488  -9.375  1.00 27.22    -0.203 F 
HETATM   19  C20   D T9001      -3.731  -1.198  -8.357  1.00 24.32     0.021 A 
ENDBRANCH  11  12
ENDBRANCH  10  11
BRANCH   1  20
HETATM   20  N13   D T9001      -6.204   5.110  -8.590  1.00 34.61    -0.210 NA
HETATM   21  C26   D T9001      -5.072   5.644  -7.953  1.00 36.24     0.256 C 
HETATM   22  O27   D T9001      -4.457   5.128  -7.019  1.00 39.97    -0.270 OA
BRANCH  21  23
HETATM   23  C24   D T9001      -4.678   6.996  -8.525  1.00 35.38     0.092 C 
BRANCH  23  24
HETATM   24  C23   D T9001      -4.796   8.125  -7.487  1.00 34.93     0.051 C 
BRANCH  24  25
HETATM   25  C25   D T9001      -6.240   8.187  -6.974  1.00 37.23     0.339 C 
HETATM   26  N33   D T9001      -6.309   8.909  -5.650  1.00 41.10     0.618 N 
ENDBRANCH  24  25
ENDBRANCH  23  24
ENDBRANCH  21  23
ENDBRANCH   1  20
BRANCH   2  27
HETATM   27  O11   D T9001      -8.224   5.167  -6.810  1.00 31.09    -0.327 OA
HETATM   28  C12   D T9001      -9.562   5.397  -6.359  1.00 29.66     0.181 C 
ENDBRANCH   2  27
TORSDOF 7
ENDMDL
MODEL 2
REMARK VINA RESULT:    -8.067      4.837      7.386
REMARK INTER + INTRA:         -12.184
REMARK INTER:                 -11.377
REMARK INTRA:                  -0.807
REMARK UNBOUND:                -0.815
REMARK  7 active torsions:
REMARK  status: ('A' for Active; 'I' for Inactive)
REMARK    1  A    between atoms: C1_1  and  N13_22 
REMARK    2  A    between atoms: C2_2  and  O11_20 
REMARK    3  A    between atoms: C10_10  and  N14_11 
REMARK    4  A    between atoms: N14_11  and  C15_12 
REMARK       I    between atoms: N13_22  and  C26_23 
REMARK    5  A    between atoms: C26_23  and  C24_24 
REMARK    6  A    between atoms: C24_24  and  C23_25 
REMARK    7  A    between atoms: C23_25  and  C25_26 
ROOT
HETATM    1  C1    D T9001      -3.498   0.354  -9.787  1.00 30.38     0.107 A 
HETATM    2  C2    D T9001      -2.958  -0.765  -9.067  1.00 29.65     0.113 A 
HETATM    3  C3    D T9001      -3.828  -1.528  -8.225  1.00 28.21     0.045 A 
HETATM    4  C4    D T9001      -5.194  -1.210  -8.077  1.00 27.21     0.088 A 
HETATM    5  C5    D T9001      -5.732  -0.076  -8.789  1.00 26.27     0.055 A 
HETATM    6  C6    D T9001      -4.872   0.688  -9.635  1.00 29.22     0.026 A 
HETATM    7  N7    D T9001      -5.950  -1.990  -7.265  1.00 25.99    -0.224 NA
HETATM    8  C8    D T9001      -7.253  -1.660  -7.142  1.00 24.59     0.200 A 
HETATM    9  N9    D T9001      -7.869  -0.621  -7.746  1.00 25.70    -0.205 NA
HETATM   10  C10   D T9001      -7.114   0.183  -8.576  1.00 27.48     0.166 A 
ENDROOT
BRANCH  10  11
HETATM   11  N14   D T9001      -7.736   1.295  -9.228  1.00 23.22    -0.227 NA
BRANCH  11  12
HETATM   12  C15   D T9001      -8.823   2.064  -8.742  1.00 24.25     0.084 A 
HETATM   13  C16   D T9001      -8.636   3.123  -7.795  1.00 25.06     0.033 A 
HETATM   14  C17   D T9001      -9.722   3.871  -7.316  1.00 28.28     0.087 A 
HETATM   15  C18   D T9001     -11.032   3.585  -7.772  1.00 25.55     0.151 A 
HETATM   16 CL     D T9001      -9.417   5.123  -6.174  1.00 31.70    -0.080 Cl
HETATM   17  C19   D T9001     -11.252   2.546  -8.711  1.00 24.70     0.032 A 
HETATM   18  F21   D T9001     -12.083   4.287  -7.325  1.00 27.22    -0.203 F 
HETATM   19  C20   D T9001     -10.148   1.788  -9.194  1.00 24.32     0.021 A 
ENDBRANCH  11  12
ENDBRANCH  10  11
BRANCH   1  20
HETATM   20  N13   D T9001      -2.623   1.075 -10.647  1.00 34.61    -0.210 NA
HETATM   21  C26   D T9001      -2.246   2.401 -10.377  1.00 36.24     0.256 C 
HETATM   22  O27   D T9001      -2.604   3.071  -9.407  1.00 39.97    -0.270 OA
BRANCH  21  23
HETATM   23  C24   D T9001      -1.343   2.972 -11.459  1.00 35.38     0.092 C 
BRANCH  23  24
HETATM   24  C23   D T9001      -2.019   4.112 -12.240  1.00 34.93     0.051 C 
BRANCH  24  25
HETATM   25  C25   D T9001      -2.145   3.707 -13.713  1.00 37.23     0.339 C 
HETATM   26  N33   D T9001      -3.379   4.315 -14.334  1.00 41.10     0.618 N 
ENDBRANCH  24  25
ENDBRANCH  23  24
ENDBRANCH  21  23
ENDBRANCH   1  20
BRANCH   2  27
HETATM   27  O11   D T9001      -1.603  -1.003  -9.272  1.00 31.09    -0.327 OA
HETATM   28  C12   D T9001      -1.156  -2.304  -9.664  1.00 29.66     0.181 C 
ENDBRANCH   2  27
TORSDOF 7
ENDMDL
MODEL 3
REMARK VINA RESULT:    -7.892      4.681      8.340
REMARK INTER + INTRA:         -11.937
REMARK INTER:                 -10.878
REMARK INTRA:                  -1.059
REMARK UNBOUND:                -0.815
REMARK  7 active torsions:
REMARK  status: ('A' for Active; 'I' for Inactive)
REMARK    1  A    between atoms: C1_1  and  N13_22 
REMARK    2  A    between atoms: C2_2  and  O11_20 
REMARK    3  A    between atoms: C10_10  and  N14_11 
REMARK    4  A    between atoms: N14_11  and  C15_12 
REMARK       I    between atoms: N13_22  and  C26_23 
REMARK    5  A    between atoms: C26_23  and  C24_24 
REMARK    6  A    between atoms: C24_24  and  C23_25 
REMARK    7  A    between atoms: C23_25  and  C25_26 
ROOT
HETATM    1  C1    D T9001      -5.564   1.558  -9.004  1.00 30.38     0.107 A 
HETATM    2  C2    D T9001      -4.395   2.332  -9.317  1.00 29.65     0.113 A 
HETATM    3  C3    D T9001      -4.409   3.739  -9.055  1.00 28.21     0.045 A 
HETATM    4  C4    D T9001      -5.535   4.386  -8.505  1.00 27.21     0.088 A 
HETATM    5  C5    D T9001      -6.714   3.610  -8.206  1.00 26.27     0.055 A 
HETATM    6  C6    D T9001      -6.708   2.205  -8.461  1.00 29.22     0.026 A 
HETATM    7  N7    D T9001      -5.462   5.721  -8.280  1.00 25.99    -0.224 NA
HETATM    8  C8    D T9001      -6.555   6.313  -7.756  1.00 24.59     0.200 A 
HETATM    9  N9    D T9001      -7.717   5.699  -7.443  1.00 25.70    -0.205 NA
HETATM   10  C10   D T9001      -7.809   4.341  -7.666  1.00 27.48     0.166 A 
ENDROOT
BRANCH  10  11
HETATM   11  N14   D T9001      -9.028   3.661  -7.349  1.00 23.22    -0.227 NA
BRANCH  11  12
HETATM   12  C15   D T9001     -10.148   3.487  -8.199  1.00 24.25     0.084 A 
HETATM   13  C16   D T9001     -11.100   4.535  -8.421  1.00 25.06     0.033 A 
HETATM   14  C17   D T9001     -12.209   4.345  -9.258  1.00 28.28     0.087 A 
HETATM   15  C18   D T9001     -12.403   3.100  -9.903  1.00 25.55     0.151 A 
HETATM   16 CL     D T9001     -13.311   5.652  -9.469  1.00 31.70    -0.080 Cl
HETATM   17  C19   D T9001     -11.480   2.042  -9.707  1.00 24.70     0.032 A 
HETATM   18  F21   D T9001     -13.458   2.898 -10.705  1.00 27.22    -0.203 F 
HETATM   19  C20   D T9001     -10.356   2.237  -8.856  1.00 24.32     0.021 A 
ENDBRANCH  11  12
ENDBRANCH  10  11
BRANCH   1  20
HETATM   20  N13   D T9001      -5.514   0.155  -9.239  1.00 34.61    -0.210 NA
HETATM   21  C26   D T9001      -5.548  -0.773  -8.186  1.00 36.24     0.256 C 
HETATM   22  O27   D T9001      -5.626  -0.503  -6.986  1.00 39.97    -0.270 OA
BRANCH  21  23
HETATM   23  C24   D T9001      -5.438  -2.206  -8.682  1.00 35.38     0.092 C 
BRANCH  23  24
HETATM   24  C23   D T9001      -4.348  -2.369  -9.756  1.00 34.93     0.051 C 
BRANCH  24  25
HETATM   25  C25   D T9001      -3.019  -2.715  -9.074  1.00 37.23     0.339 C 
HETATM   26  N33   D T9001      -2.157  -1.486  -8.922  1.00 41.10     0.618 N 
ENDBRANCH  24  25
ENDBRANCH  23  24
ENDBRANCH  21  23
ENDBRANCH   1  20
BRANCH   2  27
HETATM   27  O11   D T9001      -3.334   1.612  -9.857  1.00 31.09    -0.327 OA
HETATM   28  C12   D T9001      -2.063   2.240 -10.042  1.00 29.66     0.181 C 
ENDBRANCH   2  27
TORSDOF 7
ENDMDL
MODEL 4
REMARK VINA RESULT:    -7.864      1.616      1.873
REMARK INTER + INTRA:         -11.897
REMARK INTER:                 -11.213
REMARK INTRA:                  -0.684
REMARK UNBOUND:                -0.815
REMARK  7 active torsions:
REMARK  status: ('A' for Active; 'I' for Inactive)
REMARK    1  A    between atoms: C1_1  and  N13_22 
REMARK    2  A    between atoms: C2_2  and  O11_20 
REMARK    3  A    between atoms: C10_10  and  N14_11 
REMARK    4  A    between atoms: N14_11  and  C15_12 
REMARK       I    between atoms: N13_22  and  C26_23 
REMARK    5  A    between atoms: C26_23  and  C24_24 
REMARK    6  A    between atoms: C24_24  and  C23_25 
REMARK    7  A    between atoms: C23_25  and  C25_26 
ROOT
HETATM    1  C1    D T9001      -7.179   3.363  -8.507  1.00 30.38     0.107 A 
HETATM    2  C2    D T9001      -8.615   3.328  -8.510  1.00 29.65     0.113 A 
HETATM    3  C3    D T9001      -9.275   2.072  -8.320  1.00 28.21     0.045 A 
HETATM    4  C4    D T9001      -8.559   0.872  -8.133  1.00 27.21     0.088 A 
HETATM    5  C5    D T9001      -7.117   0.906  -8.145  1.00 26.27     0.055 A 
HETATM    6  C6    D T9001      -6.449   2.155  -8.332  1.00 29.22     0.026 A 
HETATM    7  N7    D T9001      -9.262  -0.273  -7.950  1.00 25.99    -0.224 NA
HETATM    8  C8    D T9001      -8.549  -1.406  -7.778  1.00 24.59     0.200 A 
HETATM    9  N9    D T9001      -7.203  -1.505  -7.777  1.00 25.70    -0.205 NA
HETATM   10  C10   D T9001      -6.472  -0.349  -7.963  1.00 27.48     0.166 A 
ENDROOT
BRANCH  10  11
HETATM   11  N14   D T9001      -5.042  -0.420  -7.972  1.00 23.22    -0.227 NA
BRANCH  11  12
HETATM   12  C15   D T9001      -4.231  -1.067  -8.937  1.00 24.25     0.084 A 
HETATM   13  C16   D T9001      -2.974  -1.663  -8.592  1.00 25.06     0.033 A 
HETATM   14  C17   D T9001      -2.177  -2.293  -9.559  1.00 28.28     0.087 A 
HETATM   15  C18   D T9001      -2.613  -2.349 -10.905  1.00 25.55     0.151 A 
HETATM   16 CL     D T9001      -0.677  -2.980  -9.066  1.00 31.70    -0.080 Cl
HETATM   17  C19   D T9001      -3.852  -1.772 -11.281  1.00 24.70     0.032 A 
HETATM   18  F21   D T9001      -1.864  -2.945 -11.845  1.00 27.22    -0.203 F 
HETATM   19  C20   D T9001      -4.658  -1.132 -10.298  1.00 24.32     0.021 A 
ENDBRANCH  11  12
ENDBRANCH  10  11
BRANCH   1  20
HETATM   20  N13   D T9001      -6.545   4.627  -8.662  1.00 34.61    -0.210 NA
HETATM   21  C26   D T9001      -5.535   5.061  -7.786  1.00 36.24     0.256 C 
HETATM   22  O27   D T9001      -5.092   4.432  -6.825  1.00 39.97    -0.270 OA
BRANCH  21  23
HETATM   23  C24   D T9001      -5.044   6.459  -8.128  1.00 35.38     0.092 C 
BRANCH  23  24
HETATM   24  C23   D T9001      -6.082   7.261  -8.933  1.00 34.93     0.051 C 
BRANCH  24  25
HETATM   25  C25   D T9001      -5.941   8.749  -8.591  1.00 37.23     0.339 C 
HETATM   26  N33   D T9001      -5.172   9.477  -9.666  1.00 41.10     0.618 N 
ENDBRANCH  24  25
ENDBRANCH  23  24
ENDBRANCH  21  23
ENDBRANCH   1  20
BRANCH   2  27
HETATM   27  O11   D T9001      -9.237   4.557  -8.702  1.00 31.09    -0.327 OA
HETATM   28  C12   D T9001     -10.611   4.727  -8.346  1.00 29.66     0.181 C 
ENDBRANCH   2  27
TORSDOF 7
ENDMDL
MODEL 5
REMARK VINA RESULT:    -7.816      3.672      6.752
REMARK INTER + INTRA:         -11.830
REMARK INTER:                 -10.641
REMARK INTRA:                  -1.188
REMARK UNBOUND:                -0.815
REMARK  7 active torsions:
REMARK  status: ('A' for Active; 'I' for Inactive)
REMARK    1  A    between atoms: C1_1  and  N13_22 
REMARK    2  A    between atoms: C2_2  and  O11_20 
REMARK    3  A    between atoms: C10_10  and  N14_11 
REMARK    4  A    between atoms: N14_11  and  C15_12 
REMARK       I    between atoms: N13_22  and  C26_23 
REMARK    5  A    between atoms: C26_23  and  C24_24 
REMARK    6  A    between atoms: C24_24  and  C23_25 
REMARK    7  A    between atoms: C23_25  and  C25_26 
ROOT
HETATM    1  C1    D T9001      -6.442   1.235  -8.978  1.00 30.38     0.107 A 
HETATM    2  C2    D T9001      -7.846   1.449  -8.756  1.00 29.65     0.113 A 
HETATM    3  C3    D T9001      -8.300   2.769  -8.441  1.00 28.21     0.045 A 
HETATM    4  C4    D T9001      -7.414   3.861  -8.338  1.00 27.21     0.088 A 
HETATM    5  C5    D T9001      -6.004   3.642  -8.547  1.00 26.27     0.055 A 
HETATM    6  C6    D T9001      -5.541   2.329  -8.865  1.00 29.22     0.026 A 
HETATM    7  N7    D T9001      -7.930   5.080  -8.045  1.00 25.99    -0.224 NA
HETATM    8  C8    D T9001      -7.057   6.105  -7.950  1.00 24.59     0.200 A 
HETATM    9  N9    D T9001      -5.719   6.026  -8.114  1.00 25.70    -0.205 NA
HETATM   10  C10   D T9001      -5.177   4.792  -8.413  1.00 27.48     0.166 A 
ENDROOT
BRANCH  10  11
HETATM   11  N14   D T9001      -3.762   4.673  -8.588  1.00 23.22    -0.227 NA
BRANCH  11  12
HETATM   12  C15   D T9001      -3.074   4.433  -9.804  1.00 24.25     0.084 A 
HETATM   13  C16   D T9001      -3.327   5.209 -10.982  1.00 25.06     0.033 A 
HETATM   14  C17   D T9001      -2.645   4.954 -12.181  1.00 28.28     0.087 A 
HETATM   15  C18   D T9001      -1.686   3.915 -12.241  1.00 25.55     0.151 A 
HETATM   16 CL     D T9001      -3.009   5.927 -13.555  1.00 31.70    -0.080 Cl
HETATM   17  C19   D T9001      -1.409   3.129 -11.094  1.00 24.70     0.032 A 
HETATM   18  F21   D T9001      -1.025   3.654 -13.378  1.00 27.22    -0.203 F 
HETATM   19  C20   D T9001      -2.104   3.389  -9.879  1.00 24.32     0.021 A 
ENDBRANCH  11  12
ENDBRANCH  10  11
BRANCH   1  20
HETATM   20  N13   D T9001      -6.018  -0.078  -9.326  1.00 34.61    -0.210 NA
HETATM   21  C26   D T9001      -5.609  -1.005  -8.353  1.00 36.24     0.256 C 
HETATM   22  O27   D T9001      -5.573  -0.810  -7.137  1.00 39.97    -0.270 OA
BRANCH  21  23
HETATM   23  C24   D T9001      -5.160  -2.321  -8.969  1.00 35.38     0.092 C 
BRANCH  23  24
HETATM   24  C23   D T9001      -3.628  -2.427  -9.064  1.00 34.93     0.051 C 
BRANCH  24  25
HETATM   25  C25   D T9001      -3.208  -2.329 -10.535  1.00 37.23     0.339 C 
HETATM   26  N33   D T9001      -4.399  -2.495 -11.447  1.00 41.10     0.618 N 
ENDBRANCH  24  25
ENDBRANCH  23  24
ENDBRANCH  21  23
ENDBRANCH   1  20
BRANCH   2  27
HETATM   27  O11   D T9001      -8.644   0.316  -8.876  1.00 31.09    -0.327 OA
HETATM   28  C12   D T9001      -9.540  -0.042  -7.821  1.00 29.66     0.181 C 
ENDBRANCH   2  27
TORSDOF 7
ENDMDL
MODEL 6
REMARK VINA RESULT:    -7.779      2.378      3.932
REMARK INTER + INTRA:         -11.778
REMARK INTER:                 -10.670
REMARK INTRA:                  -1.108
REMARK UNBOUND:                -0.815
REMARK  7 active torsions:
REMARK  status: ('A' for Active; 'I' for Inactive)
REMARK    1  A    between atoms: C1_1  and  N13_22 
REMARK    2  A    between atoms: C2_2  and  O11_20 
REMARK    3  A    between atoms: C10_10  and  N14_11 
REMARK    4  A    between atoms: N14_11  and  C15_12 
REMARK       I    between atoms: N13_22  and  C26_23 
REMARK    5  A    between atoms: C26_23  and  C24_24 
REMARK    6  A    between atoms: C24_24  and  C23_25 
REMARK    7  A    between atoms: C23_25  and  C25_26 
ROOT
HETATM    1  C1    D T9001      -6.481   5.189  -8.402  1.00 30.38     0.107 A 
HETATM    2  C2    D T9001      -7.102   6.200  -7.591  1.00 29.65     0.113 A 
HETATM    3  C3    D T9001      -8.324   5.889  -6.916  1.00 28.21     0.045 A 
HETATM    4  C4    D T9001      -8.938   4.624  -7.027  1.00 27.21     0.088 A 
HETATM    5  C5    D T9001      -8.323   3.615  -7.854  1.00 26.27     0.055 A 
HETATM    6  C6    D T9001      -7.101   3.916  -8.529  1.00 29.22     0.026 A 
HETATM    7  N7    D T9001     -10.092   4.409  -6.347  1.00 25.99    -0.224 NA
HETATM    8  C8    D T9001     -10.658   3.191  -6.475  1.00 24.59     0.200 A 
HETATM    9  N9    D T9001     -10.185   2.171  -7.223  1.00 25.70    -0.205 NA
HETATM   10  C10   D T9001      -9.013   2.372  -7.922  1.00 27.48     0.166 A 
ENDROOT
BRANCH  10  11
HETATM   11  N14   D T9001      -8.487   1.313  -8.728  1.00 23.22    -0.227 NA
BRANCH  11  12
HETATM   12  C15   D T9001      -7.349   0.516  -8.446  1.00 24.25     0.084 A 
HETATM   13  C16   D T9001      -6.233   0.449  -9.342  1.00 25.06     0.033 A 
HETATM   14  C17   D T9001      -5.117  -0.350  -9.055  1.00 28.28     0.087 A 
HETATM   15  C18   D T9001      -5.079  -1.108  -7.859  1.00 25.55     0.151 A 
HETATM   16 CL     D T9001      -3.818  -0.383 -10.185  1.00 31.70    -0.080 Cl
HETATM   17  C19   D T9001      -6.166  -1.063  -6.950  1.00 24.70     0.032 A 
HETATM   18  F21   D T9001      -4.022  -1.880  -7.568  1.00 27.22    -0.203 F 
HETATM   19  C20   D T9001      -7.298  -0.252  -7.244  1.00 24.32     0.021 A 
ENDBRANCH  11  12
ENDBRANCH  10  11
BRANCH   1  20
HETATM   20  N13   D T9001      -5.247   5.510  -9.034  1.00 34.61    -0.210 NA
HETATM   21  C26   D T9001      -4.012   5.283  -8.405  1.00 36.24     0.256 C 
HETATM   22  O27   D T9001      -3.850   4.799  -7.284  1.00 39.97    -0.270 OA
BRANCH  21  23
HETATM   23  C24   D T9001      -2.842   5.745  -9.258  1.00 35.38     0.092 C 
BRANCH  23  24
HETATM   24  C23   D T9001      -1.847   4.608  -9.549  1.00 34.93     0.051 C 
BRANCH  24  25
HETATM   25  C25   D T9001      -2.611   3.408 -10.121  1.00 37.23     0.339 C 
HETATM   26  N33   D T9001      -1.759   2.652 -11.111  1.00 41.10     0.618 N 
ENDBRANCH  24  25
ENDBRANCH  23  24
ENDBRANCH  21  23
ENDBRANCH   1  20
BRANCH   2  27
HETATM   27  O11   D T9001      -6.427   7.416  -7.541  1.00 31.09    -0.327 OA
HETATM   28  C12   D T9001      -6.707   8.347  -6.493  1.00 29.66     0.181 C 
ENDBRANCH   2  27
TORSDOF 7
ENDMDL
MODEL 7
REMARK VINA RESULT:    -7.608      1.736      2.401
REMARK INTER + INTRA:         -11.536
REMARK INTER:                 -10.490
REMARK INTRA:                  -1.046
REMARK UNBOUND:                -0.815
REMARK  7 active torsions:
REMARK  status: ('A' for Active; 'I' for Inactive)
REMARK    1  A    between atoms: C1_1  and  N13_22 
REMARK    2  A    between atoms: C2_2  and  O11_20 
REMARK    3  A    between atoms: C10_10  and  N14_11 
REMARK    4  A    between atoms: N14_11  and  C15_12 
REMARK       I    between atoms: N13_22  and  C26_23 
REMARK    5  A    between atoms: C26_23  and  C24_24 
REMARK    6  A    between atoms: C24_24  and  C23_25 
REMARK    7  A    between atoms: C23_25  and  C25_26 
ROOT
HETATM    1  C1    D T9001      -6.667   3.281  -7.195  1.00 30.38     0.107 A 
HETATM    2  C2    D T9001      -8.086   3.493  -7.272  1.00 29.65     0.113 A 
HETATM    3  C3    D T9001      -8.944   2.362  -7.448  1.00 28.21     0.045 A 
HETATM    4  C4    D T9001      -8.440   1.050  -7.553  1.00 27.21     0.088 A 
HETATM    5  C5    D T9001      -7.014   0.839  -7.491  1.00 26.27     0.055 A 
HETATM    6  C6    D T9001      -6.150   1.962  -7.312  1.00 29.22     0.026 A 
HETATM    7  N7    D T9001      -9.324   0.033  -7.709  1.00 25.99    -0.224 NA
HETATM    8  C8    D T9001      -8.811  -1.211  -7.809  1.00 24.59     0.200 A 
HETATM    9  N9    D T9001      -7.501  -1.535  -7.775  1.00 25.70    -0.205 NA
HETATM   10  C10   D T9001      -6.587  -0.513  -7.616  1.00 27.48     0.166 A 
ENDROOT
BRANCH  10  11
HETATM   11  N14   D T9001      -5.191  -0.822  -7.581  1.00 23.22    -0.227 NA
BRANCH  11  12
HETATM   12  C15   D T9001      -4.399  -1.300  -8.655  1.00 24.25     0.084 A 
HETATM   13  C16   D T9001      -3.117  -1.902  -8.440  1.00 25.06     0.033 A 
HETATM   14  C17   D T9001      -2.340  -2.364  -9.513  1.00 28.28     0.087 A 
HETATM   15  C18   D T9001      -2.823  -2.239 -10.838  1.00 25.55     0.151 A 
HETATM   16 CL     D T9001      -0.807  -3.071  -9.173  1.00 31.70    -0.080 Cl
HETATM   17  C19   D T9001      -4.088  -1.650 -11.087  1.00 24.70     0.032 A 
HETATM   18  F21   D T9001      -2.095  -2.672 -11.878  1.00 27.22    -0.203 F 
HETATM   19  C20   D T9001      -4.873  -1.181  -9.996  1.00 24.32     0.021 A 
ENDBRANCH  11  12
ENDBRANCH  10  11
BRANCH   1  20
HETATM   20  N13   D T9001      -5.836   4.416  -6.983  1.00 34.61    -0.210 NA
HETATM   21  C26   D T9001      -5.157   5.044  -8.041  1.00 36.24     0.256 C 
HETATM   22  O27   D T9001      -5.198   4.710  -9.226  1.00 39.97    -0.270 OA
BRANCH  21  23
HETATM   23  C24   D T9001      -4.300   6.204  -7.562  1.00 35.38     0.092 C 
BRANCH  23  24
HETATM   24  C23   D T9001      -2.889   5.753  -7.145  1.00 34.93     0.051 C 
BRANCH  24  25
HETATM   25  C25   D T9001      -1.981   5.737  -8.380  1.00 37.23     0.339 C 
HETATM   26  N33   D T9001      -1.390   4.365  -8.594  1.00 41.10     0.618 N 
ENDBRANCH  24  25
ENDBRANCH  23  24
ENDBRANCH  21  23
ENDBRANCH   1  20
BRANCH   2  27
HETATM   27  O11   D T9001      -8.493   4.819  -7.161  1.00 31.09    -0.327 OA
HETATM   28  C12   D T9001      -9.865   5.166  -7.366  1.00 29.66     0.181 C 
ENDBRANCH   2  27
TORSDOF 7
ENDMDL
MODEL 8
REMARK VINA RESULT:    -7.571      2.604      4.913
REMARK INTER + INTRA:         -11.485
REMARK INTER:                 -10.589
REMARK INTRA:                  -0.896
REMARK UNBOUND:                -0.815
REMARK  7 active torsions:
REMARK  status: ('A' for Active; 'I' for Inactive)
REMARK    1  A    between atoms: C1_1  and  N13_22 
REMARK    2  A    between atoms: C2_2  and  O11_20 
REMARK    3  A    between atoms: C10_10  and  N14_11 
REMARK    4  A    between atoms: N14_11  and  C15_12 
REMARK       I    between atoms: N13_22  and  C26_23 
REMARK    5  A    between atoms: C26_23  and  C24_24 
REMARK    6  A    between atoms: C24_24  and  C23_25 
REMARK    7  A    between atoms: C23_25  and  C25_26 
ROOT
HETATM    1  C1    D T9001      -6.114   2.705  -8.535  1.00 30.38     0.107 A 
HETATM    2  C2    D T9001      -6.131   3.870  -7.695  1.00 29.65     0.113 A 
HETATM    3  C3    D T9001      -4.962   4.692  -7.631  1.00 28.21     0.045 A 
HETATM    4  C4    D T9001      -3.795   4.391  -8.362  1.00 27.21     0.088 A 
HETATM    5  C5    D T9001      -3.773   3.212  -9.194  1.00 26.27     0.055 A 
HETATM    6  C6    D T9001      -4.936   2.387  -9.266  1.00 29.22     0.026 A 
HETATM    7  N7    D T9001      -2.734   5.228  -8.252  1.00 25.99    -0.224 NA
HETATM    8  C8    D T9001      -1.631   4.911  -8.961  1.00 24.59     0.200 A 
HETATM    9  N9    D T9001      -1.484   3.836  -9.764  1.00 25.70    -0.205 NA
HETATM   10  C10   D T9001      -2.554   2.973  -9.888  1.00 27.48     0.166 A 
ENDROOT
BRANCH  10  11
HETATM   11  N14   D T9001      -2.430   1.821 -10.728  1.00 23.22    -0.227 NA
BRANCH  11  12
HETATM   12  C15   D T9001      -2.588   0.467 -10.340  1.00 24.25     0.084 A 
HETATM   13  C16   D T9001      -3.421  -0.438 -11.076  1.00 25.06     0.033 A 
HETATM   14  C17   D T9001      -3.575  -1.774 -10.676  1.00 28.28     0.087 A 
HETATM   15  C18   D T9001      -2.899  -2.249  -9.525  1.00 25.55     0.151 A 
HETATM   16 CL     D T9001      -4.597  -2.798 -11.609  1.00 31.70    -0.080 Cl
HETATM   17  C19   D T9001      -2.067  -1.381  -8.775  1.00 24.70     0.032 A 
HETATM   18  F21   D T9001      -3.036  -3.521  -9.125  1.00 27.22    -0.203 F 
HETATM   19  C20   D T9001      -1.913  -0.026  -9.183  1.00 24.32     0.021 A 
ENDBRANCH  11  12
ENDBRANCH  10  11
BRANCH   1  20
HETATM   20  N13   D T9001      -7.300   1.922  -8.611  1.00 34.61    -0.210 NA
HETATM   21  C26   D T9001      -7.538   0.853  -7.733  1.00 36.24     0.256 C 
HETATM   22  O27   D T9001      -6.790   0.479  -6.828  1.00 39.97    -0.270 OA
BRANCH  21  23
HETATM   23  C24   D T9001      -8.848   0.143  -8.037  1.00 35.38     0.092 C 
BRANCH  23  24
HETATM   24  C23   D T9001      -9.819   1.029  -8.838  1.00 34.93     0.051 C 
BRANCH  24  25
HETATM   25  C25   D T9001     -10.648   1.873  -7.864  1.00 37.23     0.339 C 
HETATM   26  N33   D T9001     -11.635   2.739  -8.609  1.00 41.10     0.618 N 
ENDBRANCH  24  25
ENDBRANCH  23  24
ENDBRANCH  21  23
ENDBRANCH   1  20
BRANCH   2  27
HETATM   27  O11   D T9001      -7.323   4.088  -7.010  1.00 31.09    -0.327 OA
HETATM   28  C12   D T9001      -8.184   5.162  -7.397  1.00 29.66     0.181 C 
ENDBRANCH   2  27
TORSDOF 7
ENDMDL
MODEL 9
REMARK VINA RESULT:    -7.483      2.497      5.061
REMARK INTER + INTRA:         -11.361
REMARK INTER:                 -10.280
REMARK INTRA:                  -1.081
REMARK UNBOUND:                -0.815
REMARK  7 active torsions:
REMARK  status: ('A' for Active; 'I' for Inactive)
REMARK    1  A    between atoms: C1_1  and  N13_22 
REMARK    2  A    between atoms: C2_2  and  O11_20 
REMARK    3  A    between atoms: C10_10  and  N14_11 
REMARK    4  A    between atoms: N14_11  and  C15_12 
REMARK       I    between atoms: N13_22  and  C26_23 
REMARK    5  A    between atoms: C26_23  and  C24_24 
REMARK    6  A    between atoms: C24_24  and  C23_25 
REMARK    7  A    between atoms: C23_25  and  C25_26 
ROOT
HETATM    1  C1    D T9001      -6.414   5.112  -8.362  1.00 30.38     0.107 A 
HETATM    2  C2    D T9001      -5.985   6.215  -7.548  1.00 29.65     0.113 A 
HETATM    3  C3    D T9001      -4.583   6.428  -7.356  1.00 28.21     0.045 A 
HETATM    4  C4    D T9001      -3.613   5.586  -7.938  1.00 27.21     0.088 A 
HETATM    5  C5    D T9001      -4.045   4.469  -8.743  1.00 26.27     0.055 A 
HETATM    6  C6    D T9001      -5.442   4.251  -8.942  1.00 29.22     0.026 A 
HETATM    7  N7    D T9001      -2.305   5.863  -7.713  1.00 25.99    -0.224 NA
HETATM    8  C8    D T9001      -1.400   5.038  -8.281  1.00 24.59     0.200 A 
HETATM    9  N9    D T9001      -1.678   3.959  -9.044  1.00 25.70    -0.205 NA
HETATM   10  C10   D T9001      -3.004   3.662  -9.282  1.00 27.48     0.166 A 
ENDROOT
BRANCH  10  11
HETATM   11  N14   D T9001      -3.333   2.523 -10.084  1.00 23.22    -0.227 NA
BRANCH  11  12
HETATM   12  C15   D T9001      -3.217   1.161  -9.711  1.00 24.25     0.084 A 
HETATM   13  C16   D T9001      -4.356   0.384  -9.320  1.00 25.06     0.033 A 
HETATM   14  C17   D T9001      -4.225  -0.961  -8.945  1.00 28.28     0.087 A 
HETATM   15  C18   D T9001      -2.949  -1.575  -8.950  1.00 25.55     0.151 A 
HETATM   16 CL     D T9001      -5.641  -1.826  -8.483  1.00 31.70    -0.080 Cl
HETATM   17  C19   D T9001      -1.801  -0.836  -9.333  1.00 24.70     0.032 A 
HETATM   18  F21   D T9001      -2.803  -2.859  -8.593  1.00 27.22    -0.203 F 
HETATM   19  C20   D T9001      -1.937   0.529  -9.712  1.00 24.32     0.021 A 
ENDBRANCH  11  12
ENDBRANCH  10  11
BRANCH   1  20
HETATM   20  N13   D T9001      -7.811   4.942  -8.568  1.00 34.61    -0.210 NA
HETATM   21  C26   D T9001      -8.582   4.095  -7.754  1.00 36.24     0.256 C 
HETATM   22  O27   D T9001      -8.166   3.429  -6.805  1.00 39.97    -0.270 OA
BRANCH  21  23
HETATM   23  C24   D T9001     -10.036   4.044  -8.196  1.00 35.38     0.092 C 
BRANCH  23  24
HETATM   24  C23   D T9001     -10.614   2.620  -8.137  1.00 34.93     0.051 C 
BRANCH  24  25
HETATM   25  C25   D T9001      -9.975   1.772  -9.242  1.00 37.23     0.339 C 
HETATM   26  N33   D T9001      -9.719   0.365  -8.761  1.00 41.10     0.618 N 
ENDBRANCH  24  25
ENDBRANCH  23  24
ENDBRANCH  21  23
ENDBRANCH   1  20
BRANCH   2  27
HETATM   27  O11   D T9001      -7.010   6.991  -7.014  1.00 31.09    -0.327 OA
HETATM   28  C12   D T9001      -6.749   8.335  -6.601  1.00 29.66     0.181 C 
ENDBRANCH   2  27
TORSDOF 7
ENDMDL
