MODEL 1
REMARK VINA RESULT:    -7.835      0.000      0.000
REMARK INTER + INTRA:         -12.089
REMARK INTER:                 -11.042
REMARK INTRA:                  -1.047
REMARK UNBOUND:                -1.047
REMARK  7 active torsions:
REMARK  status: ('A' for Active; 'I' for Inactive)
REMARK    1  A    between atoms: C1_1  and  N13_22 
REMARK    2  A    between atoms: C2_2  and  O11_20 
REMARK    3  A    between atoms: C10_10  and  N14_11 
REMARK    4  A    between atoms: N14_11  and  C15_12 
REMARK       I    between atoms: N13_22  and  C26_23 
REMARK    5  A    between atoms: C26_23  and  C24_24 
REMARK    6  A    between atoms: C24_24  and  C23_25 
REMARK    7  A    between atoms: C23_25  and  C25_26 
ROOT
HETATM    1  C1    D T9001      -9.197  -5.847   7.957  1.00 30.38     0.107 A 
HETATM    2  C2    D T9001      -7.894  -6.387   8.229  1.00 29.65     0.113 A 
HETATM    3  C3    D T9001      -6.815  -5.485   8.500  1.00 28.21     0.045 A 
HETATM    4  C4    D T9001      -6.994  -4.087   8.504  1.00 27.21     0.088 A 
HETATM    5  C5    D T9001      -8.300  -3.546   8.215  1.00 26.27     0.055 A 
HETATM    6  C6    D T9001      -9.382  -4.438   7.947  1.00 29.22     0.026 A 
HETATM    7  N7    D T9001      -5.922  -3.303   8.779  1.00 25.99    -0.224 NA
HETATM    8  C8    D T9001      -6.123  -1.969   8.773  1.00 24.59     0.200 A 
HETATM    9  N9    D T9001      -7.291  -1.343   8.511  1.00 25.70    -0.205 NA
HETATM   10  C10   D T9001      -8.392  -2.125   8.228  1.00 27.48     0.166 A 
ENDROOT
BRANCH  10  11
HETATM   11  N14   D T9001      -9.644  -1.494   7.940  1.00 23.22    -0.227 NA
BRANCH  11  12
HETATM   12  C15   D T9001     -10.730  -1.314   8.834  1.00 24.25     0.084 A 
HETATM   13  C16   D T9001     -12.076  -1.628   8.458  1.00 25.06     0.033 A 
HETATM   14  C17   D T9001     -13.142  -1.438   9.350  1.00 28.28     0.087 A 
HETATM   15  C18   D T9001     -12.896  -0.928  10.648  1.00 25.55     0.151 A 
HETATM   16 CL     D T9001     -14.734  -1.833   8.823  1.00 31.70    -0.080 Cl
HETATM   17  C19   D T9001     -11.574  -0.608  11.052  1.00 24.70     0.032 A 
HETATM   18  F21   D T9001     -13.900  -0.736  11.515  1.00 27.22    -0.203 F 
HETATM   19  C20   D T9001     -10.494  -0.802  10.145  1.00 24.32     0.021 A 
ENDBRANCH  11  12
ENDBRANCH  10  11
BRANCH   1  20
HETATM   20  N13   D T9001     -10.260  -6.765   7.726  1.00 34.61    -0.210 NA
HETATM   21  C26   D T9001     -11.083  -7.221   8.770  1.00 36.24     0.256 C 
HETATM   22  O27   D T9001     -10.994  -6.898   9.955  1.00 39.97    -0.270 OA
BRANCH  21  23
HETATM   23  C24   D T9001     -12.117  -8.224   8.285  1.00 35.38     0.092 C 
BRANCH  23  24
HETATM   24  C23   D T9001     -12.256  -9.423   9.237  1.00 34.93     0.051 C 
BRANCH  24  25
HETATM   25  C25   D T9001     -13.738  -9.798   9.362  1.00 37.23     0.339 C 
HETATM   26  N33   D T9001     -13.913 -11.011  10.242  1.00 41.10     0.618 N 
ENDBRANCH  24  25
ENDBRANCH  23  24
ENDBRANCH  21  23
ENDBRANCH   1  20
BRANCH   2  27
HETATM   27  O11   D T9001      -7.810  -7.776   8.202  1.00 31.09    -0.327 OA
HETATM   28  C12   D T9001      -7.258  -8.481   9.317  1.00 29.66     0.181 C 
ENDBRANCH   2  27
TORSDOF 7
ENDMDL
MODEL 2
REMARK VINA RESULT:    -7.339      3.693      5.858
REMARK INTER + INTRA:         -11.389
REMARK INTER:                 -10.487
REMARK INTRA:                  -0.902
REMARK UNBOUND:                -1.047
REMARK  7 active torsions:
REMARK  status: ('A' for Active; 'I' for Inactive)
REMARK    1  A    between atoms: C1_1  and  N13_22 
REMARK    2  A    between atoms: C2_2  and  O11_20 
REMARK    3  A    between atoms: C10_10  and  N14_11 
REMARK    4  A    between atoms: N14_11  and  C15_12 
REMARK       I    between atoms: N13_22  and  C26_23 
REMARK    5  A    between atoms: C26_23  and  C24_24 
REMARK    6  A    between atoms: C24_24  and  C23_25 
REMARK    7  A    between atoms: C23_25  and  C25_26 
ROOT
HETATM    1  C1    D T9001     -11.681  -5.744   9.296  1.00 30.38     0.107 A 
HETATM    2  C2    D T9001     -12.687  -4.735   9.114  1.00 29.65     0.113 A 
HETATM    3  C3    D T9001     -12.298  -3.358   9.154  1.00 28.21     0.045 A 
HETATM    4  C4    D T9001     -10.961  -2.965   9.370  1.00 27.21     0.088 A 
HETATM    5  C5    D T9001      -9.955  -3.980   9.568  1.00 26.27     0.055 A 
HETATM    6  C6    D T9001     -10.333  -5.356   9.526  1.00 29.22     0.026 A 
HETATM    7  N7    D T9001     -10.676  -1.639   9.384  1.00 25.99    -0.224 NA
HETATM    8  C8    D T9001      -9.389  -1.294   9.596  1.00 24.59     0.200 A 
HETATM    9  N9    D T9001      -8.361  -2.147   9.801  1.00 25.70    -0.205 NA
HETATM   10  C10   D T9001      -8.633  -3.499   9.791  1.00 27.48     0.166 A 
ENDROOT
BRANCH  10  11
HETATM   11  N14   D T9001      -7.569  -4.429  10.011  1.00 23.22    -0.227 NA
BRANCH  11  12
HETATM   12  C15   D T9001      -7.207  -5.518   9.178  1.00 24.25     0.084 A 
HETATM   13  C16   D T9001      -7.030  -6.841   9.699  1.00 25.06     0.033 A 
HETATM   14  C17   D T9001      -6.665  -7.908   8.865  1.00 28.28     0.087 A 
HETATM   15  C18   D T9001      -6.465  -7.687   7.481  1.00 25.55     0.151 A 
HETATM   16 CL     D T9001      -6.465  -9.468   9.567  1.00 31.70    -0.080 Cl
HETATM   17  C19   D T9001      -6.632  -6.389   6.932  1.00 24.70     0.032 A 
HETATM   18  F21   D T9001      -6.113  -8.691   6.666  1.00 27.22    -0.203 F 
HETATM   19  C20   D T9001      -7.004  -5.308   7.781  1.00 24.32     0.021 A 
ENDBRANCH  11  12
ENDBRANCH  10  11
BRANCH   1  20
HETATM   20  N13   D T9001     -12.086  -7.107   9.216  1.00 34.61    -0.210 NA
HETATM   21  C26   D T9001     -11.996  -7.835   8.018  1.00 36.24     0.256 C 
HETATM   22  O27   D T9001     -11.574  -7.410   6.942  1.00 39.97    -0.270 OA
BRANCH  21  23
HETATM   23  C24   D T9001     -12.527  -9.252   8.170  1.00 35.38     0.092 C 
BRANCH  23  24
HETATM   24  C23   D T9001     -13.363  -9.426   9.449  1.00 34.93     0.051 C 
BRANCH  24  25
HETATM   25  C25   D T9001     -13.348 -10.902   9.864  1.00 37.23     0.339 C 
HETATM   26  N33   D T9001     -11.974 -11.316  10.327  1.00 41.10     0.618 N 
ENDBRANCH  24  25
ENDBRANCH  23  24
ENDBRANCH  21  23
ENDBRANCH   1  20
BRANCH   2  27
HETATM   27  O11   D T9001     -13.978  -5.214   8.909  1.00 31.09    -0.327 OA
HETATM   28  C12   D T9001     -15.073  -4.300   8.819  1.00 29.66     0.181 C 
ENDBRANCH   2  27
TORSDOF 7
ENDMDL
MODEL 3
REMARK VINA RESULT:    -7.313      2.469      6.146
REMARK INTER + INTRA:         -11.353
REMARK INTER:                 -10.391
REMARK INTRA:                  -0.962
REMARK UNBOUND:                -1.047
REMARK  7 active torsions:
REMARK  status: ('A' for Active; 'I' for Inactive)
REMARK    1  A    between atoms: C1_1  and  N13_22 
REMARK    2  A    between atoms: C2_2  and  O11_20 
REMARK    3  A    between atoms: C10_10  and  N14_11 
REMARK    4  A    between atoms: N14_11  and  C15_12 
REMARK       I    between atoms: N13_22  and  C26_23 
REMARK    5  A    between atoms: C26_23  and  C24_24 
REMARK    6  A    between atoms: C24_24  and  C23_25 
REMARK    7  A    between atoms: C23_25  and  C25_26 
ROOT
HETATM    1  C1    D T9001      -8.437  -4.437   8.747  1.00 30.38     0.107 A 
HETATM    2  C2    D T9001      -8.045  -5.515   7.882  1.00 29.65     0.113 A 
HETATM    3  C3    D T9001      -9.044  -6.436   7.430  1.00 28.21     0.045 A 
HETATM    4  C4    D T9001     -10.396  -6.318   7.812  1.00 27.21     0.088 A 
HETATM    5  C5    D T9001     -10.785  -5.245   8.694  1.00 26.27     0.055 A 
HETATM    6  C6    D T9001      -9.797  -4.320   9.147  1.00 29.22     0.026 A 
HETATM    7  N7    D T9001     -11.281  -7.228   7.332  1.00 25.99    -0.224 NA
HETATM    8  C8    D T9001     -12.566  -7.092   7.718  1.00 24.59     0.200 A 
HETATM    9  N9    D T9001     -13.051  -6.138   8.543  1.00 25.70    -0.205 NA
HETATM   10  C10   D T9001     -12.166  -5.205   9.041  1.00 27.48     0.166 A 
ENDROOT
BRANCH  10  11
HETATM   11  N14   D T9001     -12.646  -4.184   9.922  1.00 23.22    -0.227 NA
BRANCH  11  12
HETATM   12  C15   D T9001     -12.901  -2.829   9.592  1.00 24.25     0.084 A 
HETATM   13  C16   D T9001     -12.207  -1.752  10.234  1.00 25.06     0.033 A 
HETATM   14  C17   D T9001     -12.476  -0.416   9.902  1.00 28.28     0.087 A 
HETATM   15  C18   D T9001     -13.447  -0.113   8.918  1.00 25.55     0.151 A 
HETATM   16 CL     D T9001     -11.605   0.824  10.722  1.00 31.70    -0.080 Cl
HETATM   17  C19   D T9001     -14.152  -1.155   8.263  1.00 24.70     0.032 A 
HETATM   18  F21   D T9001     -13.721   1.158   8.589  1.00 27.22    -0.203 F 
HETATM   19  C20   D T9001     -13.877  -2.511   8.601  1.00 24.32     0.021 A 
ENDBRANCH  11  12
ENDBRANCH  10  11
BRANCH   1  20
HETATM   20  N13   D T9001      -7.433  -3.514   9.154  1.00 34.61    -0.210 NA
HETATM   21  C26   D T9001      -7.371  -2.212   8.629  1.00 36.24     0.256 C 
HETATM   22  O27   D T9001      -8.140  -1.729   7.798  1.00 39.97    -0.270 OA
BRANCH  21  23
HETATM   23  C24   D T9001      -6.190  -1.430   9.182  1.00 35.38     0.092 C 
BRANCH  23  24
HETATM   24  C23   D T9001      -4.881  -1.750   8.441  1.00 34.93     0.051 C 
BRANCH  24  25
HETATM   25  C25   D T9001      -3.917  -0.567   8.588  1.00 37.23     0.339 C 
HETATM   26  N33   D T9001      -4.568   0.717   8.138  1.00 41.10     0.618 N 
ENDBRANCH  24  25
ENDBRANCH  23  24
ENDBRANCH  21  23
ENDBRANCH   1  20
BRANCH   2  27
HETATM   27  O11   D T9001      -6.692  -5.554   7.558  1.00 31.09    -0.327 OA
HETATM   28  C12   D T9001      -6.092  -6.782   7.140  1.00 29.66     0.181 C 
ENDBRANCH   2  27
TORSDOF 7
ENDMDL
MODEL 4
REMARK VINA RESULT:    -7.140      3.179      4.953
REMARK INTER + INTRA:         -11.109
REMARK INTER:                 -10.057
REMARK INTRA:                  -1.053
REMARK UNBOUND:                -1.047
REMARK  7 active torsions:
REMARK  status: ('A' for Active; 'I' for Inactive)
REMARK    1  A    between atoms: C1_1  and  N13_22 
REMARK    2  A    between atoms: C2_2  and  O11_20 
REMARK    3  A    between atoms: C10_10  and  N14_11 
REMARK    4  A    between atoms: N14_11  and  C15_12 
REMARK       I    between atoms: N13_22  and  C26_23 
REMARK    5  A    between atoms: C26_23  and  C24_24 
REMARK    6  A    between atoms: C24_24  and  C23_25 
REMARK    7  A    between atoms: C23_25  and  C25_26 
ROOT
HETATM    1  C1    D T9001      -5.939  -5.613   7.711  1.00 30.38     0.107 A 
HETATM    2  C2    D T9001      -4.859  -5.064   8.482  1.00 29.65     0.113 A 
HETATM    3  C3    D T9001      -5.086  -3.867   9.234  1.00 28.21     0.045 A 
HETATM    4  C4    D T9001      -6.334  -3.212   9.237  1.00 27.21     0.088 A 
HETATM    5  C5    D T9001      -7.414  -3.756   8.450  1.00 26.27     0.055 A 
HETATM    6  C6    D T9001      -7.197  -4.950   7.699  1.00 29.22     0.026 A 
HETATM    7  N7    D T9001      -6.468  -2.088   9.984  1.00 25.99    -0.224 NA
HETATM    8  C8    D T9001      -7.673  -1.482   9.965  1.00 24.59     0.200 A 
HETATM    9  N9    D T9001      -8.755  -1.887   9.264  1.00 25.70    -0.205 NA
HETATM   10  C10   D T9001      -8.637  -3.028   8.498  1.00 27.48     0.166 A 
ENDROOT
BRANCH  10  11
HETATM   11  N14   D T9001      -9.762  -3.482   7.739  1.00 23.22    -0.227 NA
BRANCH  11  12
HETATM   12  C15   D T9001     -10.996  -3.955   8.252  1.00 24.25     0.084 A 
HETATM   13  C16   D T9001     -11.311  -5.352   8.291  1.00 25.06     0.033 A 
HETATM   14  C17   D T9001     -12.540  -5.806   8.794  1.00 28.28     0.087 A 
HETATM   15  C18   D T9001     -13.494  -4.877   9.274  1.00 25.55     0.151 A 
HETATM   16 CL     D T9001     -12.847  -7.501   8.802  1.00 31.70    -0.080 Cl
HETATM   17  C19   D T9001     -13.213  -3.486   9.251  1.00 24.70     0.032 A 
HETATM   18  F21   D T9001     -14.675  -5.289   9.756  1.00 27.22    -0.203 F 
HETATM   19  C20   D T9001     -11.966  -3.029   8.740  1.00 24.32     0.021 A 
ENDBRANCH  11  12
ENDBRANCH  10  11
BRANCH   1  20
HETATM   20  N13   D T9001      -5.700  -6.822   7.000  1.00 34.61    -0.210 NA
HETATM   21  C26   D T9001      -6.177  -8.060   7.465  1.00 36.24     0.256 C 
HETATM   22  O27   D T9001      -6.832  -8.243   8.491  1.00 39.97    -0.270 OA
BRANCH  21  23
HETATM   23  C24   D T9001      -5.759  -9.209   6.561  1.00 35.38     0.092 C 
BRANCH  23  24
HETATM   24  C23   D T9001      -4.404  -8.952   5.882  1.00 34.93     0.051 C 
BRANCH  24  25
HETATM   25  C25   D T9001      -3.331  -9.817   6.554  1.00 37.23     0.339 C 
HETATM   26  N33   D T9001      -2.669  -9.070   7.685  1.00 41.10     0.618 N 
ENDBRANCH  24  25
ENDBRANCH  23  24
ENDBRANCH  21  23
ENDBRANCH   1  20
BRANCH   2  27
HETATM   27  O11   D T9001      -3.664  -5.775   8.419  1.00 31.09    -0.327 OA
HETATM   28  C12   D T9001      -2.527  -5.329   9.161  1.00 29.66     0.181 C 
ENDBRANCH   2  27
TORSDOF 7
ENDMDL
MODEL 5
REMARK VINA RESULT:    -7.091      2.008      2.386
REMARK INTER + INTRA:         -11.040
REMARK INTER:                 -10.395
REMARK INTRA:                  -0.645
REMARK UNBOUND:                -1.047
REMARK  7 active torsions:
REMARK  status: ('A' for Active; 'I' for Inactive)
REMARK    1  A    between atoms: C1_1  and  N13_22 
REMARK    2  A    between atoms: C2_2  and  O11_20 
REMARK    3  A    between atoms: C10_10  and  N14_11 
REMARK    4  A    between atoms: N14_11  and  C15_12 
REMARK       I    between atoms: N13_22  and  C26_23 
REMARK    5  A    between atoms: C26_23  and  C24_24 
REMARK    6  A    between atoms: C24_24  and  C23_25 
REMARK    7  A    between atoms: C23_25  and  C25_26 
ROOT
HETATM    1  C1    D T9001      -7.553  -5.699   8.959  1.00 30.38     0.107 A 
HETATM    2  C2    D T9001      -6.426  -6.116   8.172  1.00 29.65     0.113 A 
HETATM    3  C3    D T9001      -5.451  -5.140   7.790  1.00 28.21     0.045 A 
HETATM    4  C4    D T9001      -5.565  -3.785   8.160  1.00 27.21     0.088 A 
HETATM    5  C5    D T9001      -6.706  -3.364   8.937  1.00 26.27     0.055 A 
HETATM    6  C6    D T9001      -7.682  -4.331   9.325  1.00 29.22     0.026 A 
HETATM    7  N7    D T9001      -4.592  -2.927   7.765  1.00 25.99    -0.224 NA
HETATM    8  C8    D T9001      -4.732  -1.636   8.132  1.00 24.59     0.200 A 
HETATM    9  N9    D T9001      -5.753  -1.119   8.849  1.00 25.70    -0.205 NA
HETATM   10  C10   D T9001      -6.752  -1.978   9.258  1.00 27.48     0.166 A 
ENDROOT
BRANCH  10  11
HETATM   11  N14   D T9001      -7.852  -1.462  10.015  1.00 23.22    -0.227 NA
BRANCH  11  12
HETATM   12  C15   D T9001      -9.210  -1.405   9.609  1.00 24.25     0.084 A 
HETATM   13  C16   D T9001     -10.258  -1.071  10.527  1.00 25.06     0.033 A 
HETATM   14  C17   D T9001     -11.598  -1.026  10.113  1.00 28.28     0.087 A 
HETATM   15  C18   D T9001     -11.933  -1.314   8.768  1.00 25.55     0.151 A 
HETATM   16 CL     D T9001     -12.803  -0.622  11.277  1.00 31.70    -0.080 Cl
HETATM   17  C19   D T9001     -10.919  -1.648   7.834  1.00 24.70     0.032 A 
HETATM   18  F21   D T9001     -13.207  -1.280   8.353  1.00 27.22    -0.203 F 
HETATM   19  C20   D T9001      -9.560  -1.692   8.256  1.00 24.32     0.021 A 
ENDBRANCH  11  12
ENDBRANCH  10  11
BRANCH   1  20
HETATM   20  N13   D T9001      -8.490  -6.693   9.356  1.00 34.61    -0.210 NA
HETATM   21  C26   D T9001      -9.823  -6.673   8.910  1.00 36.24     0.256 C 
HETATM   22  O27   D T9001     -10.321  -5.838   8.155  1.00 39.97    -0.270 OA
BRANCH  21  23
HETATM   23  C24   D T9001     -10.640  -7.811   9.503  1.00 35.38     0.092 C 
BRANCH  23  24
HETATM   24  C23   D T9001     -12.093  -7.806   9.001  1.00 34.93     0.051 C 
BRANCH  24  25
HETATM   25  C25   D T9001     -12.168  -8.560   7.667  1.00 37.23     0.339 C 
HETATM   26  N33   D T9001     -12.693  -7.665   6.572  1.00 41.10     0.618 N 
ENDBRANCH  24  25
ENDBRANCH  23  24
ENDBRANCH  21  23
ENDBRANCH   1  20
BRANCH   2  27
HETATM   27  O11   D T9001      -6.395  -7.471   7.852  1.00 31.09    -0.327 OA
HETATM   28  C12   D T9001      -5.675  -7.918   6.701  1.00 29.66     0.181 C 
ENDBRANCH   2  27
TORSDOF 7
ENDMDL
MODEL 6
REMARK VINA RESULT:    -6.985      3.689      7.079
REMARK INTER + INTRA:         -10.891
REMARK INTER:                  -9.774
REMARK INTRA:                  -1.117
REMARK UNBOUND:                -1.047
REMARK  7 active torsions:
REMARK  status: ('A' for Active; 'I' for Inactive)
REMARK    1  A    between atoms: C1_1  and  N13_22 
REMARK    2  A    between atoms: C2_2  and  O11_20 
REMARK    3  A    between atoms: C10_10  and  N14_11 
REMARK    4  A    between atoms: N14_11  and  C15_12 
REMARK       I    between atoms: N13_22  and  C26_23 
REMARK    5  A    between atoms: C26_23  and  C24_24 
REMARK    6  A    between atoms: C24_24  and  C23_25 
REMARK    7  A    between atoms: C23_25  and  C25_26 
ROOT
HETATM    1  C1    D T9001      -9.218  -4.270   8.174  1.00 30.38     0.107 A 
HETATM    2  C2    D T9001      -9.496  -2.967   8.712  1.00 29.65     0.113 A 
HETATM    3  C3    D T9001     -10.823  -2.677   9.166  1.00 28.21     0.045 A 
HETATM    4  C4    D T9001     -11.860  -3.628   9.098  1.00 27.21     0.088 A 
HETATM    5  C5    D T9001     -11.583  -4.931   8.543  1.00 26.27     0.055 A 
HETATM    6  C6    D T9001     -10.263  -5.230   8.090  1.00 29.22     0.026 A 
HETATM    7  N7    D T9001     -13.087  -3.276   9.558  1.00 25.99    -0.224 NA
HETATM    8  C8    D T9001     -14.060  -4.206   9.476  1.00 24.59     0.200 A 
HETATM    9  N9    D T9001     -13.928  -5.452   8.972  1.00 25.70    -0.205 NA
HETATM   10  C10   D T9001     -12.688  -5.828   8.498  1.00 27.48     0.166 A 
ENDROOT
BRANCH  10  11
HETATM   11  N14   D T9001     -12.515  -7.139   7.953  1.00 23.22    -0.227 NA
BRANCH  11  12
HETATM   12  C15   D T9001     -12.527  -8.364   8.666  1.00 24.25     0.084 A 
HETATM   13  C16   D T9001     -13.715  -9.156   8.785  1.00 25.06     0.033 A 
HETATM   14  C17   D T9001     -13.715 -10.363   9.500  1.00 28.28     0.087 A 
HETATM   15  C18   D T9001     -12.526 -10.817  10.120  1.00 25.55     0.151 A 
HETATM   16 CL     D T9001     -15.185 -11.256   9.604  1.00 31.70    -0.080 Cl
HETATM   17  C19   D T9001     -11.332 -10.058  10.021  1.00 24.70     0.032 A 
HETATM   18  F21   D T9001     -12.505 -11.966  10.811  1.00 27.22    -0.203 F 
HETATM   19  C20   D T9001     -11.335  -8.834   9.294  1.00 24.32     0.021 A 
ENDBRANCH  11  12
ENDBRANCH  10  11
BRANCH   1  20
HETATM   20  N13   D T9001      -7.883  -4.546   7.763  1.00 34.61    -0.210 NA
HETATM   21  C26   D T9001      -6.978  -5.223   8.597  1.00 36.24     0.256 C 
HETATM   22  O27   D T9001      -7.214  -5.645   9.730  1.00 39.97    -0.270 OA
BRANCH  21  23
HETATM   23  C24   D T9001      -5.606  -5.362   7.957  1.00 35.38     0.092 C 
BRANCH  23  24
HETATM   24  C23   D T9001      -4.926  -6.693   8.320  1.00 34.93     0.051 C 
BRANCH  24  25
HETATM   25  C25   D T9001      -5.030  -7.653   7.128  1.00 37.23     0.339 C 
HETATM   26  N33   D T9001      -6.002  -8.769   7.420  1.00 41.10     0.618 N 
ENDBRANCH  24  25
ENDBRANCH  23  24
ENDBRANCH  21  23
ENDBRANCH   1  20
BRANCH   2  27
HETATM   27  O11   D T9001      -8.413  -2.093   8.740  1.00 31.09    -0.327 OA
HETATM   28  C12   D T9001      -8.025  -1.475   9.969  1.00 29.66     0.181 C 
ENDBRANCH   2  27
TORSDOF 7
ENDMDL
MODEL 7
REMARK VINA RESULT:    -6.921      3.755      6.088
REMARK INTER + INTRA:         -10.800
REMARK INTER:                  -9.598
REMARK INTRA:                  -1.201
REMARK UNBOUND:                -1.047
REMARK  7 active torsions:
REMARK  status: ('A' for Active; 'I' for Inactive)
REMARK    1  A    between atoms: C1_1  and  N13_22 
REMARK    2  A    between atoms: C2_2  and  O11_20 
REMARK    3  A    between atoms: C10_10  and  N14_11 
REMARK    4  A    between atoms: N14_11  and  C15_12 
REMARK       I    between atoms: N13_22  and  C26_23 
REMARK    5  A    between atoms: C26_23  and  C24_24 
REMARK    6  A    between atoms: C24_24  and  C23_25 
REMARK    7  A    between atoms: C23_25  and  C25_26 
ROOT
HETATM    1  C1    D T9001     -10.319  -3.488   8.708  1.00 30.38     0.107 A 
HETATM    2  C2    D T9001     -10.535  -2.311   9.503  1.00 29.65     0.113 A 
HETATM    3  C3    D T9001      -9.419  -1.465   9.801  1.00 28.21     0.045 A 
HETATM    4  C4    D T9001      -8.118  -1.756   9.343  1.00 27.21     0.088 A 
HETATM    5  C5    D T9001      -7.900  -2.947   8.559  1.00 26.27     0.055 A 
HETATM    6  C6    D T9001      -9.008  -3.794   8.253  1.00 29.22     0.026 A 
HETATM    7  N7    D T9001      -7.118  -0.897   9.663  1.00 25.99    -0.224 NA
HETATM    8  C8    D T9001      -5.884  -1.204   9.213  1.00 24.59     0.200 A 
HETATM    9  N9    D T9001      -5.552  -2.289   8.480  1.00 25.70    -0.205 NA
HETATM   10  C10   D T9001      -6.556  -3.173   8.146  1.00 27.48     0.166 A 
ENDROOT
BRANCH  10  11
HETATM   11  N14   D T9001      -6.238  -4.335   7.375  1.00 23.22    -0.227 NA
BRANCH  11  12
HETATM   12  C15   D T9001      -5.978  -5.638   7.870  1.00 24.25     0.084 A 
HETATM   13  C16   D T9001      -5.849  -6.766   6.997  1.00 25.06     0.033 A 
HETATM   14  C17   D T9001      -5.598  -8.051   7.501  1.00 28.28     0.087 A 
HETATM   15  C18   D T9001      -5.468  -8.249   8.897  1.00 25.55     0.151 A 
HETATM   16 CL     D T9001      -5.462  -9.358   6.388  1.00 31.70    -0.080 Cl
HETATM   17  C19   D T9001      -5.589  -7.153   9.790  1.00 24.70     0.032 A 
HETATM   18  F21   D T9001      -5.231  -9.469   9.400  1.00 27.22    -0.203 F 
HETATM   19  C20   D T9001      -5.843  -5.851   9.275  1.00 24.32     0.021 A 
ENDBRANCH  11  12
ENDBRANCH  10  11
BRANCH   1  20
HETATM   20  N13   D T9001     -11.450  -4.293   8.395  1.00 34.61    -0.210 NA
HETATM   21  C26   D T9001     -11.710  -5.498   9.070  1.00 36.24     0.256 C 
HETATM   22  O27   D T9001     -11.030  -5.981   9.975  1.00 39.97    -0.270 OA
BRANCH  21  23
HETATM   23  C24   D T9001     -12.947  -6.199   8.531  1.00 35.38     0.092 C 
BRANCH  23  24
HETATM   24  C23   D T9001     -12.666  -6.946   7.217  1.00 34.93     0.051 C 
BRANCH  24  25
HETATM   25  C25   D T9001     -12.347  -8.413   7.529  1.00 37.23     0.339 C 
HETATM   26  N33   D T9001     -13.063  -8.865   8.777  1.00 41.10     0.618 N 
ENDBRANCH  24  25
ENDBRANCH  23  24
ENDBRANCH  21  23
ENDBRANCH   1  20
BRANCH   2  27
HETATM   27  O11   D T9001     -11.849  -2.104   9.912  1.00 31.09    -0.327 OA
HETATM   28  C12   D T9001     -12.194  -0.924  10.642  1.00 29.66     0.181 C 
ENDBRANCH   2  27
TORSDOF 7
ENDMDL
MODEL 8
REMARK VINA RESULT:    -6.809      5.110      7.885
REMARK INTER + INTRA:         -10.642
REMARK INTER:                  -9.598
REMARK INTRA:                  -1.044
REMARK UNBOUND:                -1.047
REMARK  7 active torsions:
REMARK  status: ('A' for Active; 'I' for Inactive)
REMARK    1  A    between atoms: C1_1  and  N13_22 
REMARK    2  A    between atoms: C2_2  and  O11_20 
REMARK    3  A    between atoms: C10_10  and  N14_11 
REMARK    4  A    between atoms: N14_11  and  C15_12 
REMARK       I    between atoms: N13_22  and  C26_23 
REMARK    5  A    between atoms: C26_23  and  C24_24 
REMARK    6  A    between atoms: C24_24  and  C23_25 
REMARK    7  A    between atoms: C23_25  and  C25_26 
ROOT
HETATM    1  C1    D T9001      -8.328  -4.210   8.259  1.00 30.38     0.107 A 
HETATM    2  C2    D T9001      -7.945  -2.826   8.292  1.00 29.65     0.113 A 
HETATM    3  C3    D T9001      -6.559  -2.496   8.436  1.00 28.21     0.045 A 
HETATM    4  C4    D T9001      -5.563  -3.487   8.549  1.00 27.21     0.088 A 
HETATM    5  C5    D T9001      -5.951  -4.877   8.531  1.00 26.27     0.055 A 
HETATM    6  C6    D T9001      -7.330  -5.215   8.386  1.00 29.22     0.026 A 
HETATM    7  N7    D T9001      -4.272  -3.089   8.672  1.00 25.99    -0.224 NA
HETATM    8  C8    D T9001      -3.342  -4.060   8.782  1.00 24.59     0.200 A 
HETATM    9  N9    D T9001      -3.579  -5.390   8.787  1.00 25.70    -0.205 NA
HETATM   10  C10   D T9001      -4.886  -5.813   8.663  1.00 27.48     0.166 A 
ENDROOT
BRANCH  10  11
HETATM   11  N14   D T9001      -5.172  -7.215   8.670  1.00 23.22    -0.227 NA
BRANCH  11  12
HETATM   12  C15   D T9001      -4.851  -8.152   7.655  1.00 24.25     0.084 A 
HETATM   13  C16   D T9001      -3.856  -9.165   7.851  1.00 25.06     0.033 A 
HETATM   14  C17   D T9001      -3.543 -10.081   6.836  1.00 28.28     0.087 A 
HETATM   15  C18   D T9001      -4.216 -10.015   5.592  1.00 25.55     0.151 A 
HETATM   16 CL     D T9001      -2.331 -11.265   7.144  1.00 31.70    -0.080 Cl
HETATM   17  C19   D T9001      -5.207  -9.025   5.366  1.00 24.70     0.032 A 
HETATM   18  F21   D T9001      -3.930 -10.879   4.608  1.00 27.22    -0.203 F 
HETATM   19  C20   D T9001      -5.523  -8.097   6.398  1.00 24.32     0.021 A 
ENDBRANCH  11  12
ENDBRANCH  10  11
BRANCH   1  20
HETATM   20  N13   D T9001      -9.707  -4.514   8.080  1.00 34.61    -0.210 NA
HETATM   21  C26   D T9001     -10.544  -4.818   9.167  1.00 36.24     0.256 C 
HETATM   22  O27   D T9001     -10.208  -4.854  10.351  1.00 39.97    -0.270 OA
BRANCH  21  23
HETATM   23  C24   D T9001     -11.960  -5.148   8.721  1.00 35.38     0.092 C 
BRANCH  23  24
HETATM   24  C23   D T9001     -13.008  -4.254   9.403  1.00 34.93     0.051 C 
BRANCH  24  25
HETATM   25  C25   D T9001     -12.717  -2.787   9.062  1.00 37.23     0.339 C 
HETATM   26  N33   D T9001     -13.974  -1.957   9.142  1.00 41.10     0.618 N 
ENDBRANCH  24  25
ENDBRANCH  23  24
ENDBRANCH  21  23
ENDBRANCH   1  20
BRANCH   2  27
HETATM   27  O11   D T9001      -8.993  -1.918   8.176  1.00 31.09    -0.327 OA
HETATM   28  C12   D T9001      -9.436  -1.186   9.321  1.00 29.66     0.181 C 
ENDBRANCH   2  27
TORSDOF 7
ENDMDL
MODEL 9
REMARK VINA RESULT:    -6.755      3.844      6.011
REMARK INTER + INTRA:         -10.567
REMARK INTER:                  -9.687
REMARK INTRA:                  -0.879
REMARK UNBOUND:                -1.047
REMARK  7 active torsions:
REMARK  status: ('A' for Active; 'I' for Inactive)
REMARK    1  A    between atoms: C1_1  and  N13_22 
REMARK    2  A    between atoms: C2_2  and  O11_20 
REMARK    3  A    between atoms: C10_10  and  N14_11 
REMARK    4  A    between atoms: N14_11  and  C15_12 
REMARK       I    between atoms: N13_22  and  C26_23 
REMARK    5  A    between atoms: C26_23  and  C24_24 
REMARK    6  A    between atoms: C24_24  and  C23_25 
REMARK    7  A    between atoms: C23_25  and  C25_26 
ROOT
HETATM    1  C1    D T9001     -11.613  -5.546   8.548  1.00 30.38     0.107 A 
HETATM    2  C2    D T9001     -12.383  -4.564   9.258  1.00 29.65     0.113 A 
HETATM    3  C3    D T9001     -11.793  -3.288   9.530  1.00 28.21     0.045 A 
HETATM    4  C4    D T9001     -10.481  -2.971   9.126  1.00 27.21     0.088 A 
HETATM    5  C5    D T9001      -9.702  -3.964   8.427  1.00 26.27     0.055 A 
HETATM    6  C6    D T9001     -10.284  -5.238   8.148  1.00 29.22     0.026 A 
HETATM    7  N7    D T9001     -10.000  -1.736   9.415  1.00 25.99    -0.224 NA
HETATM    8  C8    D T9001      -8.740  -1.463   9.019  1.00 24.59     0.200 A 
HETATM    9  N9    D T9001      -7.911  -2.308   8.367  1.00 25.70    -0.205 NA
HETATM   10  C10   D T9001      -8.383  -3.568   8.065  1.00 27.48     0.166 A 
ENDROOT
BRANCH  10  11
HETATM   11  N14   D T9001      -7.530  -4.490   7.380  1.00 23.22    -0.227 NA
BRANCH  11  12
HETATM   12  C15   D T9001      -6.411  -5.173   7.920  1.00 24.25     0.084 A 
HETATM   13  C16   D T9001      -5.166  -4.507   8.167  1.00 25.06     0.033 A 
HETATM   14  C17   D T9001      -4.066  -5.197   8.695  1.00 28.28     0.087 A 
HETATM   15  C18   D T9001      -4.172  -6.577   8.993  1.00 25.55     0.151 A 
HETATM   16 CL     D T9001      -2.601  -4.328   8.960  1.00 31.70    -0.080 Cl
HETATM   17  C19   D T9001      -5.390  -7.267   8.761  1.00 24.70     0.032 A 
HETATM   18  F21   D T9001      -3.131  -7.256   9.495  1.00 27.22    -0.203 F 
HETATM   19  C20   D T9001      -6.506  -6.564   8.225  1.00 24.32     0.021 A 
ENDBRANCH  11  12
ENDBRANCH  10  11
BRANCH   1  20
HETATM   20  N13   D T9001     -12.234  -6.794   8.258  1.00 34.61    -0.210 NA
HETATM   21  C26   D T9001     -11.916  -7.962   8.972  1.00 36.24     0.256 C 
HETATM   22  O27   D T9001     -11.105  -8.047   9.895  1.00 39.97    -0.270 OA
BRANCH  21  23
HETATM   23  C24   D T9001     -12.674  -9.173   8.453  1.00 35.38     0.092 C 
BRANCH  23  24
HETATM   24  C23   D T9001     -13.057 -10.147   9.579  1.00 34.93     0.051 C 
BRANCH  24  25
HETATM   25  C25   D T9001     -12.502 -11.538   9.252  1.00 37.23     0.339 C 
HETATM   26  N33   D T9001     -13.588 -12.582   9.329  1.00 41.10     0.618 N 
ENDBRANCH  24  25
ENDBRANCH  23  24
ENDBRANCH  21  23
ENDBRANCH   1  20
BRANCH   2  27
HETATM   27  O11   D T9001     -13.667  -4.964   9.618  1.00 31.09    -0.327 OA
HETATM   28  C12   D T9001     -14.795  -4.515   8.863  1.00 29.66     0.181 C 
ENDBRANCH   2  27
TORSDOF 7
ENDMDL
