MODEL 1
REMARK VINA RESULT:    -7.322      0.000      0.000
REMARK INTER + INTRA:         -11.320
REMARK INTER:                 -10.318
REMARK INTRA:                  -1.002
REMARK UNBOUND:                -1.002
REMARK  7 active torsions:
REMARK  status: ('A' for Active; 'I' for Inactive)
REMARK    1  A    between atoms: C1_1  and  N13_22 
REMARK    2  A    between atoms: C2_2  and  O11_20 
REMARK    3  A    between atoms: C10_10  and  N14_11 
REMARK    4  A    between atoms: N14_11  and  C15_12 
REMARK       I    between atoms: N13_22  and  C26_23 
REMARK    5  A    between atoms: C26_23  and  C24_24 
REMARK    6  A    between atoms: C24_24  and  C23_25 
REMARK    7  A    between atoms: C23_25  and  C25_26 
ROOT
HETATM    1  C1    D T9001      -1.596   1.912  12.539  1.00 30.38     0.107 A 
HETATM    2  C2    D T9001      -2.969   1.667  12.196  1.00 29.65     0.113 A 
HETATM    3  C3    D T9001      -3.649   2.607  11.356  1.00 28.21     0.045 A 
HETATM    4  C4    D T9001      -3.012   3.763  10.862  1.00 27.21     0.088 A 
HETATM    5  C5    D T9001      -1.637   4.016  11.220  1.00 26.27     0.055 A 
HETATM    6  C6    D T9001      -0.950   3.083  12.054  1.00 29.22     0.026 A 
HETATM    7  N7    D T9001      -3.726   4.597  10.064  1.00 25.99    -0.224 NA
HETATM    8  C8    D T9001      -3.090   5.697   9.609  1.00 24.59     0.200 A 
HETATM    9  N9    D T9001      -1.814   6.047   9.880  1.00 25.70    -0.205 NA
HETATM   10  C10   D T9001      -1.074   5.210  10.689  1.00 27.48     0.166 A 
ENDROOT
BRANCH  10  11
HETATM   11  N14   D T9001       0.280   5.554  11.000  1.00 23.22    -0.227 NA
BRANCH  11  12
HETATM   12  C15   D T9001       1.394   5.491  10.125  1.00 24.25     0.084 A 
HETATM   13  C16   D T9001       2.055   6.674   9.657  1.00 25.06     0.033 A 
HETATM   14  C17   D T9001       3.152   6.597   8.786  1.00 28.28     0.087 A 
HETATM   15  C18   D T9001       3.624   5.334   8.355  1.00 25.55     0.151 A 
HETATM   16 CL     D T9001       3.888   8.063   8.264  1.00 31.70    -0.080 Cl
HETATM   17  C19   D T9001       2.994   4.144   8.800  1.00 24.70     0.032 A 
HETATM   18  F21   D T9001       4.669   5.240   7.520  1.00 27.22    -0.203 F 
HETATM   19  C20   D T9001       1.882   4.225   9.683  1.00 24.32     0.021 A 
ENDBRANCH  11  12
ENDBRANCH  10  11
BRANCH   1  20
HETATM   20  N13   D T9001      -0.931   0.945  13.345  1.00 34.61    -0.210 NA
HETATM   21  C26   D T9001       0.197   0.246  12.883  1.00 36.24     0.256 C 
HETATM   22  O27   D T9001       0.727   0.378  11.779  1.00 39.97    -0.270 OA
BRANCH  21  23
HETATM   23  C24   D T9001       0.703  -0.761  13.903  1.00 35.38     0.092 C 
BRANCH  23  24
HETATM   24  C23   D T9001       2.238  -0.784  13.985  1.00 34.93     0.051 C 
BRANCH  24  25
HETATM   25  C25   D T9001       2.696   0.133  15.125  1.00 37.23     0.339 C 
HETATM   26  N33   D T9001       3.222   1.440  14.585  1.00 41.10     0.618 N 
ENDBRANCH  24  25
ENDBRANCH  23  24
ENDBRANCH  21  23
ENDBRANCH   1  20
BRANCH   2  27
HETATM   27  O11   D T9001      -3.516   0.504  12.729  1.00 31.09    -0.327 OA
HETATM   28  C12   D T9001      -4.513   0.584  13.750  1.00 29.66     0.181 C 
ENDBRANCH   2  27
TORSDOF 7
ENDMDL
MODEL 2
REMARK VINA RESULT:    -7.266      4.323      6.960
REMARK INTER + INTRA:         -11.242
REMARK INTER:                 -10.225
REMARK INTRA:                  -1.016
REMARK UNBOUND:                -1.002
REMARK  7 active torsions:
REMARK  status: ('A' for Active; 'I' for Inactive)
REMARK    1  A    between atoms: C1_1  and  N13_22 
REMARK    2  A    between atoms: C2_2  and  O11_20 
REMARK    3  A    between atoms: C10_10  and  N14_11 
REMARK    4  A    between atoms: N14_11  and  C15_12 
REMARK       I    between atoms: N13_22  and  C26_23 
REMARK    5  A    between atoms: C26_23  and  C24_24 
REMARK    6  A    between atoms: C24_24  and  C23_25 
REMARK    7  A    between atoms: C23_25  and  C25_26 
ROOT
HETATM    1  C1    D T9001       3.772   4.554   9.905  1.00 30.38     0.107 A 
HETATM    2  C2    D T9001       4.009   5.968   9.995  1.00 29.65     0.113 A 
HETATM    3  C3    D T9001       2.888   6.847  10.138  1.00 28.21     0.045 A 
HETATM    4  C4    D T9001       1.564   6.368  10.190  1.00 27.21     0.088 A 
HETATM    5  C5    D T9001       1.326   4.948  10.083  1.00 26.27     0.055 A 
HETATM    6  C6    D T9001       2.438   4.063   9.944  1.00 29.22     0.026 A 
HETATM    7  N7    D T9001       0.560   7.269  10.337  1.00 25.99    -0.224 NA
HETATM    8  C8    D T9001      -0.697   6.779  10.379  1.00 24.59     0.200 A 
HETATM    9  N9    D T9001      -1.046   5.478  10.281  1.00 25.70    -0.205 NA
HETATM   10  C10   D T9001      -0.039   4.549  10.132  1.00 27.48     0.166 A 
ENDROOT
BRANCH  10  11
HETATM   11  N14   D T9001      -0.376   3.163  10.020  1.00 23.22    -0.227 NA
BRANCH  11  12
HETATM   12  C15   D T9001      -0.877   2.326  11.049  1.00 24.25     0.084 A 
HETATM   13  C16   D T9001      -2.266   2.313  11.403  1.00 25.06     0.033 A 
HETATM   14  C17   D T9001      -2.747   1.485  12.428  1.00 28.28     0.087 A 
HETATM   15  C18   D T9001      -1.856   0.641  13.132  1.00 25.55     0.151 A 
HETATM   16 CL     D T9001      -4.428   1.532  12.798  1.00 31.70    -0.080 Cl
HETATM   17  C19   D T9001      -0.475   0.628  12.806  1.00 24.70     0.032 A 
HETATM   18  F21   D T9001      -2.296  -0.155  14.117  1.00 27.22    -0.203 F 
HETATM   19  C20   D T9001       0.010   1.469  11.766  1.00 24.32     0.021 A 
ENDBRANCH  11  12
ENDBRANCH  10  11
BRANCH   1  20
HETATM   20  N13   D T9001       4.904   3.697   9.799  1.00 34.61    -0.210 NA
HETATM   21  C26   D T9001       5.550   3.182  10.936  1.00 36.24     0.256 C 
HETATM   22  O27   D T9001       5.233   3.393  12.106  1.00 39.97    -0.270 OA
BRANCH  21  23
HETATM   23  C24   D T9001       6.755   2.331  10.570  1.00 35.38     0.092 C 
BRANCH  23  24
HETATM   24  C23   D T9001       7.630   2.006  11.793  1.00 34.93     0.051 C 
BRANCH  24  25
HETATM   25  C25   D T9001       7.533   0.506  12.098  1.00 37.23     0.339 C 
HETATM   26  N33   D T9001       6.522   0.243  13.186  1.00 41.10     0.618 N 
ENDBRANCH  24  25
ENDBRANCH  23  24
ENDBRANCH  21  23
ENDBRANCH   1  20
BRANCH   2  27
HETATM   27  O11   D T9001       5.345   6.350   9.934  1.00 31.09    -0.327 OA
HETATM   28  C12   D T9001       5.819   7.127   8.831  1.00 29.66     0.181 C 
ENDBRANCH   2  27
TORSDOF 7
ENDMDL
MODEL 3
REMARK VINA RESULT:    -7.077      4.635      8.044
REMARK INTER + INTRA:         -10.975
REMARK INTER:                 -10.207
REMARK INTRA:                  -0.769
REMARK UNBOUND:                -1.002
REMARK  7 active torsions:
REMARK  status: ('A' for Active; 'I' for Inactive)
REMARK    1  A    between atoms: C1_1  and  N13_22 
REMARK    2  A    between atoms: C2_2  and  O11_20 
REMARK    3  A    between atoms: C10_10  and  N14_11 
REMARK    4  A    between atoms: N14_11  and  C15_12 
REMARK       I    between atoms: N13_22  and  C26_23 
REMARK    5  A    between atoms: C26_23  and  C24_24 
REMARK    6  A    between atoms: C24_24  and  C23_25 
REMARK    7  A    between atoms: C23_25  and  C25_26 
ROOT
HETATM    1  C1    D T9001       3.883   5.941   8.876  1.00 30.38     0.107 A 
HETATM    2  C2    D T9001       4.029   7.338   8.573  1.00 29.65     0.113 A 
HETATM    3  C3    D T9001       2.991   8.242   8.970  1.00 28.21     0.045 A 
HETATM    4  C4    D T9001       1.834   7.801   9.644  1.00 27.21     0.088 A 
HETATM    5  C5    D T9001       1.683   6.395   9.933  1.00 26.27     0.055 A 
HETATM    6  C6    D T9001       2.714   5.487   9.544  1.00 29.22     0.026 A 
HETATM    7  N7    D T9001       0.904   8.724   9.994  1.00 25.99    -0.224 NA
HETATM    8  C8    D T9001      -0.194   8.271  10.634  1.00 24.59     0.200 A 
HETATM    9  N9    D T9001      -0.454   6.985  10.952  1.00 25.70    -0.205 NA
HETATM   10  C10   D T9001       0.481   6.033  10.604  1.00 27.48     0.166 A 
ENDROOT
BRANCH  10  11
HETATM   11  N14   D T9001       0.234   4.660  10.922  1.00 23.22    -0.227 NA
BRANCH  11  12
HETATM   12  C15   D T9001      -1.028   4.051  11.137  1.00 24.25     0.084 A 
HETATM   13  C16   D T9001      -1.258   3.153  12.230  1.00 25.06     0.033 A 
HETATM   14  C17   D T9001      -2.511   2.552  12.426  1.00 28.28     0.087 A 
HETATM   15  C18   D T9001      -3.575   2.832  11.536  1.00 25.55     0.151 A 
HETATM   16 CL     D T9001      -2.706   1.479  13.758  1.00 31.70    -0.080 Cl
HETATM   17  C19   D T9001      -3.383   3.717  10.445  1.00 24.70     0.032 A 
HETATM   18  F21   D T9001      -4.779   2.265  11.705  1.00 27.22    -0.203 F 
HETATM   19  C20   D T9001      -2.111   4.325  10.248  1.00 24.32     0.021 A 
ENDBRANCH  11  12
ENDBRANCH  10  11
BRANCH   1  20
HETATM   20  N13   D T9001       4.944   5.068   8.503  1.00 34.61    -0.210 NA
HETATM   21  C26   D T9001       5.982   4.744   9.393  1.00 36.24     0.256 C 
HETATM   22  O27   D T9001       6.097   5.149  10.550  1.00 39.97    -0.270 OA
BRANCH  21  23
HETATM   23  C24   D T9001       7.018   3.832   8.754  1.00 35.38     0.092 C 
BRANCH  23  24
HETATM   24  C23   D T9001       7.451   4.327   7.364  1.00 34.93     0.051 C 
BRANCH  24  25
HETATM   25  C25   D T9001       8.605   5.323   7.521  1.00 37.23     0.339 C 
HETATM   26  N33   D T9001       8.395   6.533   6.645  1.00 41.10     0.618 N 
ENDBRANCH  24  25
ENDBRANCH  23  24
ENDBRANCH  21  23
ENDBRANCH   1  20
BRANCH   2  27
HETATM   27  O11   D T9001       5.200   7.682   7.906  1.00 31.09    -0.327 OA
HETATM   28  C12   D T9001       5.140   8.216   6.581  1.00 29.66     0.181 C 
ENDBRANCH   2  27
TORSDOF 7
ENDMDL
MODEL 4
REMARK VINA RESULT:    -6.972      2.740      4.182
REMARK INTER + INTRA:         -10.827
REMARK INTER:                 -10.312
REMARK INTRA:                  -0.514
REMARK UNBOUND:                -1.002
REMARK  7 active torsions:
REMARK  status: ('A' for Active; 'I' for Inactive)
REMARK    1  A    between atoms: C1_1  and  N13_22 
REMARK    2  A    between atoms: C2_2  and  O11_20 
REMARK    3  A    between atoms: C10_10  and  N14_11 
REMARK    4  A    between atoms: N14_11  and  C15_12 
REMARK       I    between atoms: N13_22  and  C26_23 
REMARK    5  A    between atoms: C26_23  and  C24_24 
REMARK    6  A    between atoms: C24_24  and  C23_25 
REMARK    7  A    between atoms: C23_25  and  C25_26 
ROOT
HETATM    1  C1    D T9001      -0.953   4.317  10.737  1.00 30.38     0.107 A 
HETATM    2  C2    D T9001      -1.994   5.301  10.624  1.00 29.65     0.113 A 
HETATM    3  C3    D T9001      -1.631   6.663  10.375  1.00 28.21     0.045 A 
HETATM    4  C4    D T9001      -0.286   7.066  10.243  1.00 27.21     0.088 A 
HETATM    5  C5    D T9001       0.758   6.079  10.373  1.00 26.27     0.055 A 
HETATM    6  C6    D T9001       0.406   4.717  10.617  1.00 29.22     0.026 A 
HETATM    7  N7    D T9001      -0.029   8.375   9.999  1.00 25.99    -0.224 NA
HETATM    8  C8    D T9001       1.268   8.730   9.881  1.00 24.59     0.200 A 
HETATM    9  N9    D T9001       2.330   7.904   9.990  1.00 25.70    -0.205 NA
HETATM   10  C10   D T9001       2.087   6.570  10.238  1.00 27.48     0.166 A 
ENDROOT
BRANCH  10  11
HETATM   11  N14   D T9001       3.192   5.669  10.365  1.00 23.22    -0.227 NA
BRANCH  11  12
HETATM   12  C15   D T9001       4.280   5.529   9.467  1.00 24.25     0.084 A 
HETATM   13  C16   D T9001       4.513   6.468   8.409  1.00 25.06     0.033 A 
HETATM   14  C17   D T9001       5.591   6.313   7.524  1.00 28.28     0.087 A 
HETATM   15  C18   D T9001       6.471   5.214   7.668  1.00 25.55     0.151 A 
HETATM   16 CL     D T9001       5.799   7.480   6.275  1.00 31.70    -0.080 Cl
HETATM   17  C19   D T9001       6.270   4.267   8.705  1.00 24.70     0.032 A 
HETATM   18  F21   D T9001       7.504   5.047   6.830  1.00 27.22    -0.203 F 
HETATM   19  C20   D T9001       5.177   4.427   9.601  1.00 24.32     0.021 A 
ENDBRANCH  11  12
ENDBRANCH  10  11
BRANCH   1  20
HETATM   20  N13   D T9001      -1.341   2.963  10.948  1.00 34.61    -0.210 NA
HETATM   21  C26   D T9001      -1.388   2.399  12.234  1.00 36.24     0.256 C 
HETATM   22  O27   D T9001      -1.118   2.977  13.288  1.00 39.97    -0.270 OA
BRANCH  21  23
HETATM   23  C24   D T9001      -1.787   0.933  12.201  1.00 35.38     0.092 C 
BRANCH  23  24
HETATM   24  C23   D T9001      -2.467   0.484  13.506  1.00 34.93     0.051 C 
BRANCH  24  25
HETATM   25  C25   D T9001      -3.947   0.881  13.465  1.00 37.23     0.339 C 
HETATM   26  N33   D T9001      -4.782  -0.071  14.284  1.00 41.10     0.618 N 
ENDBRANCH  24  25
ENDBRANCH  23  24
ENDBRANCH  21  23
ENDBRANCH   1  20
BRANCH   2  27
HETATM   27  O11   D T9001      -3.289   4.814  10.769  1.00 31.09    -0.327 OA
HETATM   28  C12   D T9001      -4.216   4.911   9.685  1.00 29.66     0.181 C 
ENDBRANCH   2  27
TORSDOF 7
ENDMDL
MODEL 5
REMARK VINA RESULT:    -6.700      3.763      5.571
REMARK INTER + INTRA:         -10.443
REMARK INTER:                  -9.618
REMARK INTRA:                  -0.826
REMARK UNBOUND:                -1.002
REMARK  7 active torsions:
REMARK  status: ('A' for Active; 'I' for Inactive)
REMARK    1  A    between atoms: C1_1  and  N13_22 
REMARK    2  A    between atoms: C2_2  and  O11_20 
REMARK    3  A    between atoms: C10_10  and  N14_11 
REMARK    4  A    between atoms: N14_11  and  C15_12 
REMARK       I    between atoms: N13_22  and  C26_23 
REMARK    5  A    between atoms: C26_23  and  C24_24 
REMARK    6  A    between atoms: C24_24  and  C23_25 
REMARK    7  A    between atoms: C23_25  and  C25_26 
ROOT
HETATM    1  C1    D T9001      -0.268   3.746  10.667  1.00 30.38     0.107 A 
HETATM    2  C2    D T9001      -0.831   5.049  10.446  1.00 29.65     0.113 A 
HETATM    3  C3    D T9001       0.040   6.121  10.068  1.00 28.21     0.045 A 
HETATM    4  C4    D T9001       1.429   5.936   9.912  1.00 27.21     0.088 A 
HETATM    5  C5    D T9001       1.994   4.630  10.149  1.00 26.27     0.055 A 
HETATM    6  C6    D T9001       1.133   3.554  10.523  1.00 29.22     0.026 A 
HETATM    7  N7    D T9001       2.181   7.003   9.542  1.00 25.99    -0.224 NA
HETATM    8  C8    D T9001       3.507   6.795   9.404  1.00 24.59     0.200 A 
HETATM    9  N9    D T9001       4.153   5.626   9.606  1.00 25.70    -0.205 NA
HETATM   10  C10   D T9001       3.404   4.532   9.981  1.00 27.48     0.166 A 
ENDROOT
BRANCH  10  11
HETATM   11  N14   D T9001       4.059   3.279  10.208  1.00 23.22    -0.227 NA
BRANCH  11  12
HETATM   12  C15   D T9001       5.252   3.066  10.943  1.00 24.25     0.084 A 
HETATM   13  C16   D T9001       5.278   3.126  12.375  1.00 25.06     0.033 A 
HETATM   14  C17   D T9001       6.468   2.919  13.090  1.00 28.28     0.087 A 
HETATM   15  C18   D T9001       7.670   2.645  12.395  1.00 25.55     0.151 A 
HETATM   16 CL     D T9001       6.419   3.014  14.808  1.00 31.70    -0.080 Cl
HETATM   17  C19   D T9001       7.679   2.578  10.979  1.00 24.70     0.032 A 
HETATM   18  F21   D T9001       8.818   2.448  13.060  1.00 27.22    -0.203 F 
HETATM   19  C20   D T9001       6.471   2.787  10.257  1.00 24.32     0.021 A 
ENDBRANCH  11  12
ENDBRANCH  10  11
BRANCH   1  20
HETATM   20  N13   D T9001      -1.159   2.688  11.006  1.00 34.61    -0.210 NA
HETATM   21  C26   D T9001      -1.517   2.421  12.339  1.00 36.24     0.256 C 
HETATM   22  O27   D T9001      -1.128   3.040  13.330  1.00 39.97    -0.270 OA
BRANCH  21  23
HETATM   23  C24   D T9001      -2.442   1.221  12.452  1.00 35.38     0.092 C 
BRANCH  23  24
HETATM   24  C23   D T9001      -3.434   1.359  13.619  1.00 34.93     0.051 C 
BRANCH  24  25
HETATM   25  C25   D T9001      -4.249   0.066  13.743  1.00 37.23     0.339 C 
HETATM   26  N33   D T9001      -5.545   0.171  12.978  1.00 41.10     0.618 N 
ENDBRANCH  24  25
ENDBRANCH  23  24
ENDBRANCH  21  23
ENDBRANCH   1  20
BRANCH   2  27
HETATM   27  O11   D T9001      -2.208   5.140  10.624  1.00 31.09    -0.327 OA
HETATM   28  C12   D T9001      -3.037   5.621   9.564  1.00 29.66     0.181 C 
ENDBRANCH   2  27
TORSDOF 7
ENDMDL
MODEL 6
REMARK VINA RESULT:    -6.649      3.598      6.931
REMARK INTER + INTRA:         -10.372
REMARK INTER:                  -9.391
REMARK INTRA:                  -0.981
REMARK UNBOUND:                -1.002
REMARK  7 active torsions:
REMARK  status: ('A' for Active; 'I' for Inactive)
REMARK    1  A    between atoms: C1_1  and  N13_22 
REMARK    2  A    between atoms: C2_2  and  O11_20 
REMARK    3  A    between atoms: C10_10  and  N14_11 
REMARK    4  A    between atoms: N14_11  and  C15_12 
REMARK       I    between atoms: N13_22  and  C26_23 
REMARK    5  A    between atoms: C26_23  and  C24_24 
REMARK    6  A    between atoms: C24_24  and  C23_25 
REMARK    7  A    between atoms: C23_25  and  C25_26 
ROOT
HETATM    1  C1    D T9001       1.791   4.872   9.728  1.00 30.38     0.107 A 
HETATM    2  C2    D T9001       2.005   3.515  10.148  1.00 29.65     0.113 A 
HETATM    3  C3    D T9001       3.349   3.053  10.329  1.00 28.21     0.045 A 
HETATM    4  C4    D T9001       4.462   3.888  10.103  1.00 27.21     0.088 A 
HETATM    5  C5    D T9001       4.245   5.246   9.667  1.00 26.27     0.055 A 
HETATM    6  C6    D T9001       2.909   5.716   9.487  1.00 29.22     0.026 A 
HETATM    7  N7    D T9001       5.701   3.374  10.307  1.00 25.99    -0.224 NA
HETATM    8  C8    D T9001       6.747   4.196  10.080  1.00 24.59     0.200 A 
HETATM    9  N9    D T9001       6.673   5.478   9.662  1.00 25.70    -0.205 NA
HETATM   10  C10   D T9001       5.422   6.016   9.450  1.00 27.48     0.166 A 
ENDROOT
BRANCH  10  11
HETATM   11  N14   D T9001       5.309   7.371   9.003  1.00 23.22    -0.227 NA
BRANCH  11  12
HETATM   12  C15   D T9001       5.469   7.843   7.676  1.00 24.25     0.084 A 
HETATM   13  C16   D T9001       6.765   8.098   7.116  1.00 25.06     0.033 A 
HETATM   14  C17   D T9001       6.909   8.572   5.803  1.00 28.28     0.087 A 
HETATM   15  C18   D T9001       5.763   8.805   5.007  1.00 25.55     0.151 A 
HETATM   16 CL     D T9001       8.498   8.860   5.206  1.00 31.70    -0.080 Cl
HETATM   17  C19   D T9001       4.466   8.562   5.529  1.00 24.70     0.032 A 
HETATM   18  F21   D T9001       5.879   9.261   3.751  1.00 27.22    -0.203 F 
HETATM   19  C20   D T9001       4.323   8.081   6.860  1.00 24.32     0.021 A 
ENDBRANCH  11  12
ENDBRANCH  10  11
BRANCH   1  20
HETATM   20  N13   D T9001       0.446   5.318   9.591  1.00 34.61    -0.210 NA
HETATM   21  C26   D T9001      -0.142   6.194  10.520  1.00 36.24     0.256 C 
HETATM   22  O27   D T9001       0.407   6.665  11.517  1.00 39.97    -0.270 OA
BRANCH  21  23
HETATM   23  C24   D T9001      -1.594   6.492  10.185  1.00 35.38     0.092 C 
BRANCH  23  24
HETATM   24  C23   D T9001      -2.349   5.240   9.707  1.00 34.93     0.051 C 
BRANCH  24  25
HETATM   25  C25   D T9001      -3.825   5.359  10.106  1.00 37.23     0.339 C 
HETATM   26  N33   D T9001      -4.684   5.664   8.903  1.00 41.10     0.618 N 
ENDBRANCH  24  25
ENDBRANCH  23  24
ENDBRANCH  21  23
ENDBRANCH   1  20
BRANCH   2  27
HETATM   27  O11   D T9001       0.850   2.765  10.346  1.00 31.09    -0.327 OA
HETATM   28  C12   D T9001       0.618   2.125  11.603  1.00 29.66     0.181 C 
ENDBRANCH   2  27
TORSDOF 7
ENDMDL
MODEL 7
REMARK VINA RESULT:    -6.646      2.115      3.059
REMARK INTER + INTRA:         -10.367
REMARK INTER:                  -9.535
REMARK INTRA:                  -0.832
REMARK UNBOUND:                -1.002
REMARK  7 active torsions:
REMARK  status: ('A' for Active; 'I' for Inactive)
REMARK    1  A    between atoms: C1_1  and  N13_22 
REMARK    2  A    between atoms: C2_2  and  O11_20 
REMARK    3  A    between atoms: C10_10  and  N14_11 
REMARK    4  A    between atoms: N14_11  and  C15_12 
REMARK       I    between atoms: N13_22  and  C26_23 
REMARK    5  A    between atoms: C26_23  and  C24_24 
REMARK    6  A    between atoms: C24_24  and  C23_25 
REMARK    7  A    between atoms: C23_25  and  C25_26 
ROOT
HETATM    1  C1    D T9001      -0.078   3.615  10.713  1.00 30.38     0.107 A 
HETATM    2  C2    D T9001      -1.436   4.072  10.610  1.00 29.65     0.113 A 
HETATM    3  C3    D T9001      -1.680   5.471  10.425  1.00 28.21     0.045 A 
HETATM    4  C4    D T9001      -0.631   6.409  10.345  1.00 27.21     0.088 A 
HETATM    5  C5    D T9001       0.732   5.949  10.464  1.00 26.27     0.055 A 
HETATM    6  C6    D T9001       0.986   4.556  10.645  1.00 29.22     0.026 A 
HETATM    7  N7    D T9001      -0.949   7.714  10.159  1.00 25.99    -0.224 NA
HETATM    8  C8    D T9001       0.077   8.588  10.090  1.00 24.59     0.200 A 
HETATM    9  N9    D T9001       1.388   8.283  10.196  1.00 25.70    -0.205 NA
HETATM   10  C10   D T9001       1.730   6.961  10.385  1.00 27.48     0.166 A 
ENDROOT
BRANCH  10  11
HETATM   11  N14   D T9001       3.110   6.605  10.506  1.00 23.22    -0.227 NA
BRANCH  11  12
HETATM   12  C15   D T9001       4.058   6.510   9.455  1.00 24.25     0.084 A 
HETATM   13  C16   D T9001       4.113   7.476   8.398  1.00 25.06     0.033 A 
HETATM   14  C17   D T9001       5.052   7.366   7.361  1.00 28.28     0.087 A 
HETATM   15  C18   D T9001       5.966   6.286   7.347  1.00 25.55     0.151 A 
HETATM   16 CL     D T9001       5.050   8.564   6.124  1.00 31.70    -0.080 Cl
HETATM   17  C19   D T9001       5.939   5.312   8.379  1.00 24.70     0.032 A 
HETATM   18  F21   D T9001       6.868   6.161   6.363  1.00 27.22    -0.203 F 
HETATM   19  C20   D T9001       4.987   5.427   9.429  1.00 24.32     0.021 A 
ENDBRANCH  11  12
ENDBRANCH  10  11
BRANCH   1  20
HETATM   20  N13   D T9001       0.141   2.216  10.860  1.00 34.61    -0.210 NA
HETATM   21  C26   D T9001       0.113   1.591  12.119  1.00 36.24     0.256 C 
HETATM   22  O27   D T9001      -0.098   2.147  13.197  1.00 39.97    -0.270 OA
BRANCH  21  23
HETATM   23  C24   D T9001       0.417   0.105  12.025  1.00 35.38     0.092 C 
BRANCH  23  24
HETATM   24  C23   D T9001       0.017  -0.652  13.303  1.00 34.93     0.051 C 
BRANCH  24  25
HETATM   25  C25   D T9001       1.274  -1.245  13.951  1.00 37.23     0.339 C 
HETATM   26  N33   D T9001       2.263  -0.159  14.300  1.00 41.10     0.618 N 
ENDBRANCH  24  25
ENDBRANCH  23  24
ENDBRANCH  21  23
ENDBRANCH   1  20
BRANCH   2  27
HETATM   27  O11   D T9001      -2.405   3.079  10.701  1.00 31.09    -0.327 OA
HETATM   28  C12   D T9001      -3.763   3.426  10.985  1.00 29.66     0.181 C 
ENDBRANCH   2  27
TORSDOF 7
ENDMDL
MODEL 8
REMARK VINA RESULT:    -6.235      5.232      7.990
REMARK INTER + INTRA:          -9.788
REMARK INTER:                  -8.707
REMARK INTRA:                  -1.081
REMARK UNBOUND:                -1.002
REMARK  7 active torsions:
REMARK  status: ('A' for Active; 'I' for Inactive)
REMARK    1  A    between atoms: C1_1  and  N13_22 
REMARK    2  A    between atoms: C2_2  and  O11_20 
REMARK    3  A    between atoms: C10_10  and  N14_11 
REMARK    4  A    between atoms: N14_11  and  C15_12 
REMARK       I    between atoms: N13_22  and  C26_23 
REMARK    5  A    between atoms: C26_23  and  C24_24 
REMARK    6  A    between atoms: C24_24  and  C23_25 
REMARK    7  A    between atoms: C23_25  and  C25_26 
ROOT
HETATM    1  C1    D T9001       6.602   4.396   9.175  1.00 30.38     0.107 A 
HETATM    2  C2    D T9001       7.320   4.592   7.946  1.00 29.65     0.113 A 
HETATM    3  C3    D T9001       6.943   5.678   7.092  1.00 28.21     0.045 A 
HETATM    4  C4    D T9001       5.888   6.555   7.420  1.00 27.21     0.088 A 
HETATM    5  C5    D T9001       5.158   6.347   8.648  1.00 26.27     0.055 A 
HETATM    6  C6    D T9001       5.529   5.269   9.507  1.00 29.22     0.026 A 
HETATM    7  N7    D T9001       5.602   7.564   6.560  1.00 25.99    -0.224 NA
HETATM    8  C8    D T9001       4.586   8.384   6.900  1.00 24.59     0.200 A 
HETATM    9  N9    D T9001       3.825   8.288   8.012  1.00 25.70    -0.205 NA
HETATM   10  C10   D T9001       4.102   7.268   8.897  1.00 27.48     0.166 A 
ENDROOT
BRANCH  10  11
HETATM   11  N14   D T9001       3.312   7.135  10.082  1.00 23.22    -0.227 NA
BRANCH  11  12
HETATM   12  C15   D T9001       1.910   6.936  10.150  1.00 24.25     0.084 A 
HETATM   13  C16   D T9001       1.320   5.643   9.963  1.00 25.06     0.033 A 
HETATM   14  C17   D T9001      -0.070   5.462  10.025  1.00 28.28     0.087 A 
HETATM   15  C18   D T9001      -0.915   6.568  10.279  1.00 25.55     0.151 A 
HETATM   16 CL     D T9001      -0.701   3.879   9.783  1.00 31.70    -0.080 Cl
HETATM   17  C19   D T9001      -0.365   7.861  10.470  1.00 24.70     0.032 A 
HETATM   18  F21   D T9001      -2.246   6.416  10.339  1.00 27.22    -0.203 F 
HETATM   19  C20   D T9001       1.045   8.042  10.406  1.00 24.32     0.021 A 
ENDBRANCH  11  12
ENDBRANCH  10  11
BRANCH   1  20
HETATM   20  N13   D T9001       7.019   3.332  10.024  1.00 34.61    -0.210 NA
HETATM   21  C26   D T9001       7.809   3.561  11.163  1.00 36.24     0.256 C 
HETATM   22  O27   D T9001       8.216   4.656  11.553  1.00 39.97    -0.270 OA
BRANCH  21  23
HETATM   23  C24   D T9001       8.161   2.269  11.883  1.00 35.38     0.092 C 
BRANCH  23  24
HETATM   24  C23   D T9001       6.931   1.373  12.106  1.00 34.93     0.051 C 
BRANCH  24  25
HETATM   25  C25   D T9001       6.437   1.545  13.547  1.00 37.23     0.339 C 
HETATM   26  N33   D T9001       5.259   2.485  13.604  1.00 41.10     0.618 N 
ENDBRANCH  24  25
ENDBRANCH  23  24
ENDBRANCH  21  23
ENDBRANCH   1  20
BRANCH   2  27
HETATM   27  O11   D T9001       8.342   3.680   7.704  1.00 31.09    -0.327 OA
HETATM   28  C12   D T9001       8.829   3.486   6.374  1.00 29.66     0.181 C 
ENDBRANCH   2  27
TORSDOF 7
ENDMDL
MODEL 9
REMARK VINA RESULT:    -6.081      4.270      7.053
REMARK INTER + INTRA:          -9.572
REMARK INTER:                  -8.474
REMARK INTRA:                  -1.098
REMARK UNBOUND:                -1.002
REMARK  7 active torsions:
REMARK  status: ('A' for Active; 'I' for Inactive)
REMARK    1  A    between atoms: C1_1  and  N13_22 
REMARK    2  A    between atoms: C2_2  and  O11_20 
REMARK    3  A    between atoms: C10_10  and  N14_11 
REMARK    4  A    between atoms: N14_11  and  C15_12 
REMARK       I    between atoms: N13_22  and  C26_23 
REMARK    5  A    between atoms: C26_23  and  C24_24 
REMARK    6  A    between atoms: C24_24  and  C23_25 
REMARK    7  A    between atoms: C23_25  and  C25_26 
ROOT
HETATM    1  C1    D T9001       5.769   3.293  11.966  1.00 30.38     0.107 A 
HETATM    2  C2    D T9001       6.766   4.324  12.046  1.00 29.65     0.113 A 
HETATM    3  C3    D T9001       6.603   5.505  11.252  1.00 28.21     0.045 A 
HETATM    4  C4    D T9001       5.498   5.681  10.394  1.00 27.21     0.088 A 
HETATM    5  C5    D T9001       4.506   4.637  10.304  1.00 26.27     0.055 A 
HETATM    6  C6    D T9001       4.658   3.459  11.094  1.00 29.22     0.026 A 
HETATM    7  N7    D T9001       5.415   6.834   9.684  1.00 25.99    -0.224 NA
HETATM    8  C8    D T9001       4.348   6.972   8.869  1.00 24.59     0.200 A 
HETATM    9  N9    D T9001       3.362   6.067   8.692  1.00 25.70    -0.205 NA
HETATM   10  C10   D T9001       3.430   4.890   9.406  1.00 27.48     0.166 A 
ENDROOT
BRANCH  10  11
HETATM   11  N14   D T9001       2.403   3.907   9.238  1.00 23.22    -0.227 NA
BRANCH  11  12
HETATM   12  C15   D T9001       1.216   3.780  10.002  1.00 24.25     0.084 A 
HETATM   13  C16   D T9001       0.976   2.644  10.842  1.00 25.06     0.033 A 
HETATM   14  C17   D T9001      -0.207   2.529  11.588  1.00 28.28     0.087 A 
HETATM   15  C18   D T9001      -1.188   3.546  11.517  1.00 25.55     0.151 A 
HETATM   16 CL     D T9001      -0.424   1.130  12.569  1.00 31.70    -0.080 Cl
HETATM   17  C19   D T9001      -0.982   4.684  10.697  1.00 24.70     0.032 A 
HETATM   18  F21   D T9001      -2.327   3.452  12.220  1.00 27.22    -0.203 F 
HETATM   19  C20   D T9001       0.218   4.799   9.942  1.00 24.32     0.021 A 
ENDBRANCH  11  12
ENDBRANCH  10  11
BRANCH   1  20
HETATM   20  N13   D T9001       5.934   2.145  12.792  1.00 34.61    -0.210 NA
HETATM   21  C26   D T9001       5.494   2.125  14.126  1.00 36.24     0.256 C 
HETATM   22  O27   D T9001       4.933   3.048  14.717  1.00 39.97    -0.270 OA
BRANCH  21  23
HETATM   23  C24   D T9001       5.819   0.809  14.815  1.00 35.38     0.092 C 
BRANCH  23  24
HETATM   24  C23   D T9001       5.500   0.845  16.319  1.00 34.93     0.051 C 
BRANCH  24  25
HETATM   25  C25   D T9001       4.358  -0.135  16.615  1.00 37.23     0.339 C 
HETATM   26  N33   D T9001       3.199   0.090  15.675  1.00 41.10     0.618 N 
ENDBRANCH  24  25
ENDBRANCH  23  24
ENDBRANCH  21  23
ENDBRANCH   1  20
BRANCH   2  27
HETATM   27  O11   D T9001       7.820   4.064  12.916  1.00 31.09    -0.327 OA
HETATM   28  C12   D T9001       8.073   4.941  14.017  1.00 29.66     0.181 C 
ENDBRANCH   2  27
TORSDOF 7
ENDMDL
