MODEL 1
REMARK VINA RESULT:    -7.429      0.000      0.000
REMARK INTER + INTRA:         -11.418
REMARK INTER:                 -10.469
REMARK INTRA:                  -0.949
REMARK UNBOUND:                -0.949
REMARK  7 active torsions:
REMARK  status: ('A' for Active; 'I' for Inactive)
REMARK    1  A    between atoms: C1_1  and  N13_22 
REMARK    2  A    between atoms: C2_2  and  O11_20 
REMARK    3  A    between atoms: C10_10  and  N14_11 
REMARK    4  A    between atoms: N14_11  and  C15_12 
REMARK       I    between atoms: N13_22  and  C26_23 
REMARK    5  A    between atoms: C26_23  and  C24_24 
REMARK    6  A    between atoms: C24_24  and  C23_25 
REMARK    7  A    between atoms: C23_25  and  C25_26 
ROOT
HETATM    1  C1    D T9001      -1.692   3.449  -8.980  1.00 30.38     0.107 A 
HETATM    2  C2    D T9001      -2.988   4.022  -8.745  1.00 29.65     0.113 A 
HETATM    3  C3    D T9001      -4.098   3.564  -9.525  1.00 28.21     0.045 A 
HETATM    4  C4    D T9001      -3.954   2.572 -10.517  1.00 27.21     0.088 A 
HETATM    5  C5    D T9001      -2.649   2.008 -10.761  1.00 26.27     0.055 A 
HETATM    6  C6    D T9001      -1.537   2.457  -9.986  1.00 29.22     0.026 A 
HETATM    7  N7    D T9001      -5.059   2.188 -11.203  1.00 25.99    -0.224 NA
HETATM    8  C8    D T9001      -4.890   1.239 -12.148  1.00 24.59     0.200 A 
HETATM    9  N9    D T9001      -3.723   0.643 -12.476  1.00 25.70    -0.205 NA
HETATM   10  C10   D T9001      -2.590   1.023 -11.787  1.00 27.48     0.166 A 
ENDROOT
BRANCH  10  11
HETATM   11  N14   D T9001      -1.336   0.414 -12.113  1.00 23.22    -0.227 NA
BRANCH  11  12
HETATM   12  C15   D T9001      -0.614  -0.517 -11.325  1.00 24.25     0.084 A 
HETATM   13  C16   D T9001      -1.166  -1.789 -10.963  1.00 25.06     0.033 A 
HETATM   14  C17   D T9001      -0.443  -2.699 -10.176  1.00 28.28     0.087 A 
HETATM   15  C18   D T9001       0.857  -2.364  -9.725  1.00 25.55     0.151 A 
HETATM   16 CL     D T9001      -1.177  -4.206  -9.779  1.00 31.70    -0.080 Cl
HETATM   17  C19   D T9001       1.433  -1.114 -10.066  1.00 24.70     0.032 A 
HETATM   18  F21   D T9001       1.564  -3.218  -8.970  1.00 27.22    -0.203 F 
HETATM   19  C20   D T9001       0.698  -0.195 -10.864  1.00 24.32     0.021 A 
ENDBRANCH  11  12
ENDBRANCH  10  11
BRANCH   1  20
HETATM   20  N13   D T9001      -0.612   3.895  -8.167  1.00 34.61    -0.210 NA
HETATM   21  C26   D T9001       0.281   4.889  -8.603  1.00 36.24     0.256 C 
HETATM   22  O27   D T9001       0.240   5.473  -9.686  1.00 39.97    -0.270 OA
BRANCH  21  23
HETATM   23  C24   D T9001       1.373   5.163  -7.581  1.00 35.38     0.092 C 
BRANCH  23  24
HETATM   24  C23   D T9001       2.264   6.349  -7.986  1.00 34.93     0.051 C 
BRANCH  24  25
HETATM   25  C25   D T9001       3.631   6.207  -7.308  1.00 37.23     0.339 C 
HETATM   26  N33   D T9001       3.549   5.276  -6.123  1.00 41.10     0.618 N 
ENDBRANCH  24  25
ENDBRANCH  23  24
ENDBRANCH  21  23
ENDBRANCH   1  20
BRANCH   2  27
HETATM   27  O11   D T9001      -3.035   4.994  -7.750  1.00 31.09    -0.327 OA
HETATM   28  C12   D T9001      -3.660   6.254  -8.008  1.00 29.66     0.181 C 
ENDBRANCH   2  27
TORSDOF 7
ENDMDL
MODEL 2
REMARK VINA RESULT:    -7.395      4.261      8.386
REMARK INTER + INTRA:         -11.370
REMARK INTER:                 -10.223
REMARK INTRA:                  -1.146
REMARK UNBOUND:                -0.949
REMARK  7 active torsions:
REMARK  status: ('A' for Active; 'I' for Inactive)
REMARK    1  A    between atoms: C1_1  and  N13_22 
REMARK    2  A    between atoms: C2_2  and  O11_20 
REMARK    3  A    between atoms: C10_10  and  N14_11 
REMARK    4  A    between atoms: N14_11  and  C15_12 
REMARK       I    between atoms: N13_22  and  C26_23 
REMARK    5  A    between atoms: C26_23  and  C24_24 
REMARK    6  A    between atoms: C24_24  and  C23_25 
REMARK    7  A    between atoms: C23_25  and  C25_26 
ROOT
HETATM    1  C1    D T9001      -3.575   0.377 -12.086  1.00 30.38     0.107 A 
HETATM    2  C2    D T9001      -2.888  -0.875 -11.933  1.00 29.65     0.113 A 
HETATM    3  C3    D T9001      -1.529  -0.867 -11.481  1.00 28.21     0.045 A 
HETATM    4  C4    D T9001      -0.848   0.332 -11.187  1.00 27.21     0.088 A 
HETATM    5  C5    D T9001      -1.534   1.589 -11.355  1.00 26.27     0.055 A 
HETATM    6  C6    D T9001      -2.890   1.591 -11.803  1.00 29.22     0.026 A 
HETATM    7  N7    D T9001       0.435   0.251 -10.754  1.00 25.99    -0.224 NA
HETATM    8  C8    D T9001       1.063   1.414 -10.483  1.00 24.59     0.200 A 
HETATM    9  N9    D T9001       0.533   2.650 -10.610  1.00 25.70    -0.205 NA
HETATM   10  C10   D T9001      -0.771   2.751 -11.049  1.00 27.48     0.166 A 
ENDROOT
BRANCH  10  11
HETATM   11  N14   D T9001      -1.361   4.047 -11.198  1.00 23.22    -0.227 NA
BRANCH  11  12
HETATM   12  C15   D T9001      -1.824   4.893 -10.159  1.00 24.25     0.084 A 
HETATM   13  C16   D T9001      -3.074   4.662  -9.497  1.00 25.06     0.033 A 
HETATM   14  C17   D T9001      -3.524   5.512  -8.476  1.00 28.28     0.087 A 
HETATM   15  C18   D T9001      -2.738   6.623  -8.084  1.00 25.55     0.151 A 
HETATM   16 CL     D T9001      -5.039   5.171  -7.731  1.00 31.70    -0.080 Cl
HETATM   17  C19   D T9001      -1.496   6.880  -8.719  1.00 24.70     0.032 A 
HETATM   18  F21   D T9001      -3.151   7.450  -7.113  1.00 27.22    -0.203 F 
HETATM   19  C20   D T9001      -1.042   6.016  -9.753  1.00 24.32     0.021 A 
ENDBRANCH  11  12
ENDBRANCH  10  11
BRANCH   1  20
HETATM   20  N13   D T9001      -4.936   0.341 -12.502  1.00 34.61    -0.210 NA
HETATM   21  C26   D T9001      -5.992   0.299 -11.576  1.00 36.24     0.256 C 
HETATM   22  O27   D T9001      -5.878   0.292 -10.350  1.00 39.97    -0.270 OA
BRANCH  21  23
HETATM   23  C24   D T9001      -7.347   0.222 -12.259  1.00 35.38     0.092 C 
BRANCH  23  24
HETATM   24  C23   D T9001      -7.234  -0.227 -13.727  1.00 34.93     0.051 C 
BRANCH  24  25
HETATM   25  C25   D T9001      -8.192  -1.398 -13.970  1.00 37.23     0.339 C 
HETATM   26  N33   D T9001      -8.213  -2.331 -12.785  1.00 41.10     0.618 N 
ENDBRANCH  24  25
ENDBRANCH  23  24
ENDBRANCH  21  23
ENDBRANCH   1  20
BRANCH   2  27
HETATM   27  O11   D T9001      -3.637  -2.004 -12.247  1.00 31.09    -0.327 OA
HETATM   28  C12   D T9001      -3.894  -2.994 -11.247  1.00 29.66     0.181 C 
ENDBRANCH   2  27
TORSDOF 7
ENDMDL
MODEL 3
REMARK VINA RESULT:    -7.392      2.992      5.517
REMARK INTER + INTRA:         -11.366
REMARK INTER:                 -10.532
REMARK INTRA:                  -0.834
REMARK UNBOUND:                -0.949
REMARK  7 active torsions:
REMARK  status: ('A' for Active; 'I' for Inactive)
REMARK    1  A    between atoms: C1_1  and  N13_22 
REMARK    2  A    between atoms: C2_2  and  O11_20 
REMARK    3  A    between atoms: C10_10  and  N14_11 
REMARK    4  A    between atoms: N14_11  and  C15_12 
REMARK       I    between atoms: N13_22  and  C26_23 
REMARK    5  A    between atoms: C26_23  and  C24_24 
REMARK    6  A    between atoms: C24_24  and  C23_25 
REMARK    7  A    between atoms: C23_25  and  C25_26 
ROOT
HETATM    1  C1    D T9001      -2.079   4.517  -8.934  1.00 30.38     0.107 A 
HETATM    2  C2    D T9001      -0.923   4.446  -8.085  1.00 29.65     0.113 A 
HETATM    3  C3    D T9001       0.064   3.442  -8.343  1.00 28.21     0.045 A 
HETATM    4  C4    D T9001      -0.067   2.522  -9.403  1.00 27.21     0.088 A 
HETATM    5  C5    D T9001      -1.235   2.585 -10.247  1.00 26.27     0.055 A 
HETATM    6  C6    D T9001      -2.224   3.584  -9.998  1.00 29.22     0.026 A 
HETATM    7  N7    D T9001       0.919   1.609  -9.586  1.00 25.99    -0.224 NA
HETATM    8  C8    D T9001       0.764   0.739 -10.606  1.00 24.59     0.200 A 
HETATM    9  N9    D T9001      -0.284   0.691 -11.456  1.00 25.70    -0.205 NA
HETATM   10  C10   D T9001      -1.296   1.613 -11.285  1.00 27.48     0.166 A 
ENDROOT
BRANCH  10  11
HETATM   11  N14   D T9001      -2.423   1.586 -12.167  1.00 23.22    -0.227 NA
BRANCH  11  12
HETATM   12  C15   D T9001      -3.473   0.634 -12.174  1.00 24.25     0.084 A 
HETATM   13  C16   D T9001      -3.260  -0.729 -11.787  1.00 25.06     0.033 A 
HETATM   14  C17   D T9001      -4.306  -1.663 -11.806  1.00 28.28     0.087 A 
HETATM   15  C18   D T9001      -5.602  -1.264 -12.215  1.00 25.55     0.151 A 
HETATM   16 CL     D T9001      -3.970  -3.284 -11.330  1.00 31.70    -0.080 Cl
HETATM   17  C19   D T9001      -5.847   0.078 -12.604  1.00 24.70     0.032 A 
HETATM   18  F21   D T9001      -6.615  -2.141 -12.243  1.00 27.22    -0.203 F 
HETATM   19  C20   D T9001      -4.784   1.022 -12.583  1.00 24.32     0.021 A 
ENDBRANCH  11  12
ENDBRANCH  10  11
BRANCH   1  20
HETATM   20  N13   D T9001      -3.029   5.546  -8.679  1.00 34.61    -0.210 NA
HETATM   21  C26   D T9001      -4.231   5.291  -7.997  1.00 36.24     0.256 C 
HETATM   22  O27   D T9001      -4.594   4.201  -7.554  1.00 39.97    -0.270 OA
BRANCH  21  23
HETATM   23  C24   D T9001      -5.098   6.535  -7.886  1.00 35.38     0.092 C 
BRANCH  23  24
HETATM   24  C23   D T9001      -6.588   6.191  -7.711  1.00 34.93     0.051 C 
BRANCH  24  25
HETATM   25  C25   D T9001      -7.339   7.439  -7.235  1.00 37.23     0.339 C 
HETATM   26  N33   D T9001      -7.253   7.578  -5.735  1.00 41.10     0.618 N 
ENDBRANCH  24  25
ENDBRANCH  23  24
ENDBRANCH  21  23
ENDBRANCH   1  20
BRANCH   2  27
HETATM   27  O11   D T9001      -0.878   5.392  -7.065  1.00 31.09    -0.327 OA
HETATM   28  C12   D T9001       0.141   6.395  -7.064  1.00 29.66     0.181 C 
ENDBRANCH   2  27
TORSDOF 7
ENDMDL
MODEL 4
REMARK VINA RESULT:    -7.132      4.286      8.230
REMARK INTER + INTRA:         -10.999
REMARK INTER:                 -10.351
REMARK INTRA:                  -0.648
REMARK UNBOUND:                -0.949
REMARK  7 active torsions:
REMARK  status: ('A' for Active; 'I' for Inactive)
REMARK    1  A    between atoms: C1_1  and  N13_22 
REMARK    2  A    between atoms: C2_2  and  O11_20 
REMARK    3  A    between atoms: C10_10  and  N14_11 
REMARK    4  A    between atoms: N14_11  and  C15_12 
REMARK       I    between atoms: N13_22  and  C26_23 
REMARK    5  A    between atoms: C26_23  and  C24_24 
REMARK    6  A    between atoms: C24_24  and  C23_25 
REMARK    7  A    between atoms: C23_25  and  C25_26 
ROOT
HETATM    1  C1    D T9001      -0.165   4.144  -8.494  1.00 30.38     0.107 A 
HETATM    2  C2    D T9001      -1.390   4.802  -8.134  1.00 29.65     0.113 A 
HETATM    3  C3    D T9001      -1.326   6.071  -7.475  1.00 28.21     0.045 A 
HETATM    4  C4    D T9001      -0.098   6.690  -7.166  1.00 27.21     0.088 A 
HETATM    5  C5    D T9001       1.132   6.022  -7.515  1.00 26.27     0.055 A 
HETATM    6  C6    D T9001       1.078   4.757  -8.175  1.00 29.22     0.026 A 
HETATM    7  N7    D T9001      -0.125   7.898  -6.550  1.00 25.99    -0.224 NA
HETATM    8  C8    D T9001       1.066   8.465  -6.264  1.00 24.59     0.200 A 
HETATM    9  N9    D T9001       2.280   7.937  -6.530  1.00 25.70    -0.205 NA
HETATM   10  C10   D T9001       2.326   6.709  -7.157  1.00 27.48     0.166 A 
ENDROOT
BRANCH  10  11
HETATM   11  N14   D T9001       3.598   6.121  -7.449  1.00 23.22    -0.227 NA
BRANCH  11  12
HETATM   12  C15   D T9001       4.648   5.868  -6.531  1.00 24.25     0.084 A 
HETATM   13  C16   D T9001       5.203   6.907  -5.715  1.00 25.06     0.033 A 
HETATM   14  C17   D T9001       6.248   6.645  -4.816  1.00 28.28     0.087 A 
HETATM   15  C18   D T9001       6.772   5.334  -4.704  1.00 25.55     0.151 A 
HETATM   16 CL     D T9001       6.866   7.947  -3.872  1.00 31.70    -0.080 Cl
HETATM   17  C19   D T9001       6.244   4.283  -5.497  1.00 24.70     0.032 A 
HETATM   18  F21   D T9001       7.772   5.063  -3.853  1.00 27.22    -0.203 F 
HETATM   19  C20   D T9001       5.185   4.552  -6.407  1.00 24.32     0.021 A 
ENDBRANCH  11  12
ENDBRANCH  10  11
BRANCH   1  20
HETATM   20  N13   D T9001      -0.255   2.901  -9.180  1.00 34.61    -0.210 NA
HETATM   21  C26   D T9001      -0.307   2.832 -10.583  1.00 36.24     0.256 C 
HETATM   22  O27   D T9001      -0.279   3.790 -11.355  1.00 39.97    -0.270 OA
BRANCH  21  23
HETATM   23  C24   D T9001      -0.445   1.401 -11.079  1.00 35.38     0.092 C 
BRANCH  23  24
HETATM   24  C23   D T9001       0.674   0.490 -10.543  1.00 34.93     0.051 C 
BRANCH  24  25
HETATM   25  C25   D T9001       0.504  -0.914 -11.132  1.00 37.23     0.339 C 
HETATM   26  N33   D T9001      -0.956  -1.272 -11.257  1.00 41.10     0.618 N 
ENDBRANCH  24  25
ENDBRANCH  23  24
ENDBRANCH  21  23
ENDBRANCH   1  20
BRANCH   2  27
HETATM   27  O11   D T9001      -2.552   4.117  -8.476  1.00 31.09    -0.327 OA
HETATM   28  C12   D T9001      -3.817   4.559  -7.976  1.00 29.66     0.181 C 
ENDBRANCH   2  27
TORSDOF 7
ENDMDL
MODEL 5
REMARK VINA RESULT:    -6.724      2.869      4.061
REMARK INTER + INTRA:         -10.424
REMARK INTER:                  -9.451
REMARK INTRA:                  -0.973
REMARK UNBOUND:                -0.949
REMARK  7 active torsions:
REMARK  status: ('A' for Active; 'I' for Inactive)
REMARK    1  A    between atoms: C1_1  and  N13_22 
REMARK    2  A    between atoms: C2_2  and  O11_20 
REMARK    3  A    between atoms: C10_10  and  N14_11 
REMARK    4  A    between atoms: N14_11  and  C15_12 
REMARK       I    between atoms: N13_22  and  C26_23 
REMARK    5  A    between atoms: C26_23  and  C24_24 
REMARK    6  A    between atoms: C24_24  and  C23_25 
REMARK    7  A    between atoms: C23_25  and  C25_26 
ROOT
HETATM    1  C1    D T9001      -0.186   6.076  -7.603  1.00 30.38     0.107 A 
HETATM    2  C2    D T9001      -1.100   7.027  -7.035  1.00 29.65     0.113 A 
HETATM    3  C3    D T9001      -2.260   7.403  -7.784  1.00 28.21     0.045 A 
HETATM    4  C4    D T9001      -2.529   6.871  -9.062  1.00 27.21     0.088 A 
HETATM    5  C5    D T9001      -1.602   5.926  -9.638  1.00 26.27     0.055 A 
HETATM    6  C6    D T9001      -0.443   5.544  -8.896  1.00 29.22     0.026 A 
HETATM    7  N7    D T9001      -3.656   7.272  -9.700  1.00 25.99    -0.224 NA
HETATM    8  C8    D T9001      -3.885   6.748 -10.923  1.00 24.59     0.200 A 
HETATM    9  N9    D T9001      -3.092   5.867 -11.570  1.00 25.70    -0.205 NA
HETATM   10  C10   D T9001      -1.941   5.448 -10.934  1.00 27.48     0.166 A 
ENDROOT
BRANCH  10  11
HETATM   11  N14   D T9001      -1.076   4.517 -11.595  1.00 23.22    -0.227 NA
BRANCH  11  12
HETATM   12  C15   D T9001      -1.187   3.104 -11.590  1.00 24.25     0.084 A 
HETATM   13  C16   D T9001      -0.179   2.270 -11.007  1.00 25.06     0.033 A 
HETATM   14  C17   D T9001      -0.297   0.872 -11.015  1.00 28.28     0.087 A 
HETATM   15  C18   D T9001      -1.429   0.263 -11.609  1.00 25.55     0.151 A 
HETATM   16 CL     D T9001       0.959  -0.064 -10.298  1.00 31.70    -0.080 Cl
HETATM   17  C19   D T9001      -2.446   1.060 -12.195  1.00 24.70     0.032 A 
HETATM   18  F21   D T9001      -1.561  -1.072 -11.631  1.00 27.22    -0.203 F 
HETATM   19  C20   D T9001      -2.323   2.476 -12.184  1.00 24.32     0.021 A 
ENDBRANCH  11  12
ENDBRANCH  10  11
BRANCH   1  20
HETATM   20  N13   D T9001       0.942   5.690  -6.825  1.00 34.61    -0.210 NA
HETATM   21  C26   D T9001       2.207   6.273  -7.015  1.00 36.24     0.256 C 
HETATM   22  O27   D T9001       2.484   7.148  -7.835  1.00 39.97    -0.270 OA
BRANCH  21  23
HETATM   23  C24   D T9001       3.257   5.668  -6.097  1.00 35.38     0.092 C 
BRANCH  23  24
HETATM   24  C23   D T9001       4.688   5.944  -6.590  1.00 34.93     0.051 C 
BRANCH  24  25
HETATM   25  C25   D T9001       5.522   4.665  -6.454  1.00 37.23     0.339 C 
HETATM   26  N33   D T9001       5.441   4.116  -5.051  1.00 41.10     0.618 N 
ENDBRANCH  24  25
ENDBRANCH  23  24
ENDBRANCH  21  23
ENDBRANCH   1  20
BRANCH   2  27
HETATM   27  O11   D T9001      -0.754   7.499  -5.773  1.00 31.09    -0.327 OA
HETATM   28  C12   D T9001      -1.553   8.503  -5.141  1.00 29.66     0.181 C 
ENDBRANCH   2  27
TORSDOF 7
ENDMDL
MODEL 6
REMARK VINA RESULT:    -6.698      4.196      8.425
REMARK INTER + INTRA:         -10.388
REMARK INTER:                  -9.283
REMARK INTRA:                  -1.105
REMARK UNBOUND:                -0.949
REMARK  7 active torsions:
REMARK  status: ('A' for Active; 'I' for Inactive)
REMARK    1  A    between atoms: C1_1  and  N13_22 
REMARK    2  A    between atoms: C2_2  and  O11_20 
REMARK    3  A    between atoms: C10_10  and  N14_11 
REMARK    4  A    between atoms: N14_11  and  C15_12 
REMARK       I    between atoms: N13_22  and  C26_23 
REMARK    5  A    between atoms: C26_23  and  C24_24 
REMARK    6  A    between atoms: C24_24  and  C23_25 
REMARK    7  A    between atoms: C23_25  and  C25_26 
ROOT
HETATM    1  C1    D T9001      -2.392   1.855 -11.610  1.00 30.38     0.107 A 
HETATM    2  C2    D T9001      -1.269   1.001 -11.341  1.00 29.65     0.113 A 
HETATM    3  C3    D T9001      -0.130   1.549 -10.669  1.00 28.21     0.045 A 
HETATM    4  C4    D T9001      -0.077   2.900 -10.269  1.00 27.21     0.088 A 
HETATM    5  C5    D T9001      -1.200   3.760 -10.553  1.00 26.27     0.055 A 
HETATM    6  C6    D T9001      -2.342   3.221 -11.220  1.00 29.22     0.026 A 
HETATM    7  N7    D T9001       1.035   3.336  -9.628  1.00 25.99    -0.224 NA
HETATM    8  C8    D T9001       1.058   4.634  -9.260  1.00 24.59     0.200 A 
HETATM    9  N9    D T9001       0.079   5.538  -9.476  1.00 25.70    -0.205 NA
HETATM   10  C10   D T9001      -1.061   5.111 -10.127  1.00 27.48     0.166 A 
ENDROOT
BRANCH  10  11
HETATM   11  N14   D T9001      -2.116   6.045 -10.375  1.00 23.22    -0.227 NA
BRANCH  11  12
HETATM   12  C15   D T9001      -2.965   6.644  -9.411  1.00 24.25     0.084 A 
HETATM   13  C16   D T9001      -4.198   6.036  -9.008  1.00 25.06     0.033 A 
HETATM   14  C17   D T9001      -5.033   6.644  -8.058  1.00 28.28     0.087 A 
HETATM   15  C18   D T9001      -4.660   7.881  -7.479  1.00 25.55     0.151 A 
HETATM   16 CL     D T9001      -6.502   5.853  -7.630  1.00 31.70    -0.080 Cl
HETATM   17  C19   D T9001      -3.445   8.509  -7.855  1.00 24.70     0.032 A 
HETATM   18  F21   D T9001      -5.444   8.480  -6.572  1.00 27.22    -0.203 F 
HETATM   19  C20   D T9001      -2.601   7.891  -8.818  1.00 24.32     0.021 A 
ENDBRANCH  11  12
ENDBRANCH  10  11
BRANCH   1  20
HETATM   20  N13   D T9001      -3.527   1.279 -12.247  1.00 34.61    -0.210 NA
HETATM   21  C26   D T9001      -4.730   1.055 -11.554  1.00 36.24     0.256 C 
HETATM   22  O27   D T9001      -4.943   1.320 -10.371  1.00 39.97    -0.270 OA
BRANCH  21  23
HETATM   23  C24   D T9001      -5.779   0.392 -12.433  1.00 35.38     0.092 C 
BRANCH  23  24
HETATM   24  C23   D T9001      -5.372  -1.032 -12.850  1.00 34.93     0.051 C 
BRANCH  24  25
HETATM   25  C25   D T9001      -5.329  -1.927 -11.608  1.00 37.23     0.339 C 
HETATM   26  N33   D T9001      -4.003  -2.639 -11.503  1.00 41.10     0.618 N 
ENDBRANCH  24  25
ENDBRANCH  23  24
ENDBRANCH  21  23
ENDBRANCH   1  20
BRANCH   2  27
HETATM   27  O11   D T9001      -1.409  -0.315 -11.772  1.00 31.09    -0.327 OA
HETATM   28  C12   D T9001      -0.490  -1.316 -11.325  1.00 29.66     0.181 C 
ENDBRANCH   2  27
TORSDOF 7
ENDMDL
MODEL 7
REMARK VINA RESULT:    -6.615      4.174      6.840
REMARK INTER + INTRA:         -10.272
REMARK INTER:                  -9.390
REMARK INTRA:                  -0.882
REMARK UNBOUND:                -0.949
REMARK  7 active torsions:
REMARK  status: ('A' for Active; 'I' for Inactive)
REMARK    1  A    between atoms: C1_1  and  N13_22 
REMARK    2  A    between atoms: C2_2  and  O11_20 
REMARK    3  A    between atoms: C10_10  and  N14_11 
REMARK    4  A    between atoms: N14_11  and  C15_12 
REMARK       I    between atoms: N13_22  and  C26_23 
REMARK    5  A    between atoms: C26_23  and  C24_24 
REMARK    6  A    between atoms: C24_24  and  C23_25 
REMARK    7  A    between atoms: C23_25  and  C25_26 
ROOT
HETATM    1  C1    D T9001      -3.734   3.611  -8.707  1.00 30.38     0.107 A 
HETATM    2  C2    D T9001      -2.324   3.883  -8.709  1.00 29.65     0.113 A 
HETATM    3  C3    D T9001      -1.476   3.129  -9.582  1.00 28.21     0.045 A 
HETATM    4  C4    D T9001      -1.985   2.127 -10.435  1.00 27.21     0.088 A 
HETATM    5  C5    D T9001      -3.399   1.845 -10.421  1.00 26.27     0.055 A 
HETATM    6  C6    D T9001      -4.253   2.594  -9.554  1.00 29.22     0.026 A 
HETATM    7  N7    D T9001      -1.115   1.467 -11.238  1.00 25.99    -0.224 NA
HETATM    8  C8    D T9001      -1.630   0.512 -12.041  1.00 24.59     0.200 A 
HETATM    9  N9    D T9001      -2.929   0.150 -12.112  1.00 25.70    -0.205 NA
HETATM   10  C10   D T9001      -3.828   0.812 -11.301  1.00 27.48     0.166 A 
ENDROOT
BRANCH  10  11
HETATM   11  N14   D T9001      -5.212   0.450 -11.349  1.00 23.22    -0.227 NA
BRANCH  11  12
HETATM   12  C15   D T9001      -6.012   0.307 -12.510  1.00 24.25     0.084 A 
HETATM   13  C16   D T9001      -6.480   1.442 -13.249  1.00 25.06     0.033 A 
HETATM   14  C17   D T9001      -7.279   1.287 -14.392  1.00 28.28     0.087 A 
HETATM   15  C18   D T9001      -7.635  -0.010 -14.833  1.00 25.55     0.151 A 
HETATM   16 CL     D T9001      -7.806   2.700 -15.224  1.00 31.70    -0.080 Cl
HETATM   17  C19   D T9001      -7.188  -1.155 -14.125  1.00 24.70     0.032 A 
HETATM   18  F21   D T9001      -8.400  -0.181 -15.922  1.00 27.22    -0.203 F 
HETATM   19  C20   D T9001      -6.379  -0.994 -12.967  1.00 24.32     0.021 A 
ENDBRANCH  11  12
ENDBRANCH  10  11
BRANCH   1  20
HETATM   20  N13   D T9001      -4.561   4.398  -7.857  1.00 34.61    -0.210 NA
HETATM   21  C26   D T9001      -5.270   5.513  -8.338  1.00 36.24     0.256 C 
HETATM   22  O27   D T9001      -5.267   5.925  -9.498  1.00 39.97    -0.270 OA
BRANCH  21  23
HETATM   23  C24   D T9001      -6.045   6.215  -7.235  1.00 35.38     0.092 C 
BRANCH  23  24
HETATM   24  C23   D T9001      -7.125   7.159  -7.794  1.00 34.93     0.051 C 
BRANCH  24  25
HETATM   25  C25   D T9001      -8.308   7.201  -6.822  1.00 37.23     0.339 C 
HETATM   26  N33   D T9001      -9.473   7.946  -7.424  1.00 41.10     0.618 N 
ENDBRANCH  24  25
ENDBRANCH  23  24
ENDBRANCH  21  23
ENDBRANCH   1  20
BRANCH   2  27
HETATM   27  O11   D T9001      -1.913   4.885  -7.836  1.00 31.09    -0.327 OA
HETATM   28  C12   D T9001      -0.560   5.348  -7.865  1.00 29.66     0.181 C 
ENDBRANCH   2  27
TORSDOF 7
ENDMDL
MODEL 8
REMARK VINA RESULT:    -6.611      5.300      9.231
REMARK INTER + INTRA:         -10.266
REMARK INTER:                  -9.317
REMARK INTRA:                  -0.948
REMARK UNBOUND:                -0.949
REMARK  7 active torsions:
REMARK  status: ('A' for Active; 'I' for Inactive)
REMARK    1  A    between atoms: C1_1  and  N13_22 
REMARK    2  A    between atoms: C2_2  and  O11_20 
REMARK    3  A    between atoms: C10_10  and  N14_11 
REMARK    4  A    between atoms: N14_11  and  C15_12 
REMARK       I    between atoms: N13_22  and  C26_23 
REMARK    5  A    between atoms: C26_23  and  C24_24 
REMARK    6  A    between atoms: C24_24  and  C23_25 
REMARK    7  A    between atoms: C23_25  and  C25_26 
ROOT
HETATM    1  C1    D T9001      -4.776  -0.155 -11.738  1.00 30.38     0.107 A 
HETATM    2  C2    D T9001      -3.639  -1.030 -11.798  1.00 29.65     0.113 A 
HETATM    3  C3    D T9001      -2.327  -0.468 -11.686  1.00 28.21     0.045 A 
HETATM    4  C4    D T9001      -2.121   0.917 -11.524  1.00 27.21     0.088 A 
HETATM    5  C5    D T9001      -3.263   1.797 -11.478  1.00 26.27     0.055 A 
HETATM    6  C6    D T9001      -4.575   1.244 -11.586  1.00 29.22     0.026 A 
HETATM    7  N7    D T9001      -0.846   1.367 -11.416  1.00 25.99    -0.224 NA
HETATM    8  C8    D T9001      -0.679   2.698 -11.265  1.00 24.59     0.200 A 
HETATM    9  N9    D T9001      -1.664   3.621 -11.217  1.00 25.70    -0.205 NA
HETATM   10  C10   D T9001      -2.967   3.180 -11.325  1.00 27.48     0.166 A 
ENDROOT
BRANCH  10  11
HETATM   11  N14   D T9001      -4.033   4.134 -11.283  1.00 23.22    -0.227 NA
BRANCH  11  12
HETATM   12  C15   D T9001      -4.362   4.993 -10.204  1.00 24.25     0.084 A 
HETATM   13  C16   D T9001      -4.375   6.418 -10.351  1.00 25.06     0.033 A 
HETATM   14  C17   D T9001      -4.695   7.258  -9.273  1.00 28.28     0.087 A 
HETATM   15  C18   D T9001      -5.013   6.698  -8.013  1.00 25.55     0.151 A 
HETATM   16 CL     D T9001      -4.684   8.962  -9.527  1.00 31.70    -0.080 Cl
HETATM   17  C19   D T9001      -5.010   5.291  -7.833  1.00 24.70     0.032 A 
HETATM   18  F21   D T9001      -5.319   7.482  -6.968  1.00 27.22    -0.203 F 
HETATM   19  C20   D T9001      -4.686   4.443  -8.928  1.00 24.32     0.021 A 
ENDBRANCH  11  12
ENDBRANCH  10  11
BRANCH   1  20
HETATM   20  N13   D T9001      -6.071  -0.742 -11.814  1.00 34.61    -0.210 NA
HETATM   21  C26   D T9001      -6.796  -0.780 -13.018  1.00 36.24     0.256 C 
HETATM   22  O27   D T9001      -6.420  -0.337 -14.103  1.00 39.97    -0.270 OA
BRANCH  21  23
HETATM   23  C24   D T9001      -8.165  -1.416 -12.838  1.00 35.38     0.092 C 
BRANCH  23  24
HETATM   24  C23   D T9001      -9.198  -0.423 -12.277  1.00 34.93     0.051 C 
BRANCH  24  25
HETATM   25  C25   D T9001     -10.454  -1.191 -11.851  1.00 37.23     0.339 C 
HETATM   26  N33   D T9001     -11.172  -0.471 -10.736  1.00 41.10     0.618 N 
ENDBRANCH  24  25
ENDBRANCH  23  24
ENDBRANCH  21  23
ENDBRANCH   1  20
BRANCH   2  27
HETATM   27  O11   D T9001      -3.938  -2.380 -11.960  1.00 31.09    -0.327 OA
HETATM   28  C12   D T9001      -3.522  -3.329 -10.975  1.00 29.66     0.181 C 
ENDBRANCH   2  27
TORSDOF 7
ENDMDL
MODEL 9
REMARK VINA RESULT:    -6.543      3.868      7.424
REMARK INTER + INTRA:         -10.169
REMARK INTER:                  -9.314
REMARK INTRA:                  -0.855
REMARK UNBOUND:                -0.949
REMARK  7 active torsions:
REMARK  status: ('A' for Active; 'I' for Inactive)
REMARK    1  A    between atoms: C1_1  and  N13_22 
REMARK    2  A    between atoms: C2_2  and  O11_20 
REMARK    3  A    between atoms: C10_10  and  N14_11 
REMARK    4  A    between atoms: N14_11  and  C15_12 
REMARK       I    between atoms: N13_22  and  C26_23 
REMARK    5  A    between atoms: C26_23  and  C24_24 
REMARK    6  A    between atoms: C24_24  and  C23_25 
REMARK    7  A    between atoms: C23_25  and  C25_26 
ROOT
HETATM    1  C1    D T9001      -1.720   3.470  -9.217  1.00 30.38     0.107 A 
HETATM    2  C2    D T9001      -3.098   3.525  -8.817  1.00 29.65     0.113 A 
HETATM    3  C3    D T9001      -3.615   4.750  -8.287  1.00 28.21     0.045 A 
HETATM    4  C4    D T9001      -2.811   5.899  -8.142  1.00 27.21     0.088 A 
HETATM    5  C5    D T9001      -1.423   5.838  -8.530  1.00 26.27     0.055 A 
HETATM    6  C6    D T9001      -0.899   4.621  -9.063  1.00 29.22     0.026 A 
HETATM    7  N7    D T9001      -3.381   7.023  -7.641  1.00 25.99    -0.224 NA
HETATM    8  C8    D T9001      -2.586   8.105  -7.511  1.00 24.59     0.200 A 
HETATM    9  N9    D T9001      -1.275   8.170  -7.828  1.00 25.70    -0.205 NA
HETATM   10  C10   D T9001      -0.679   7.036  -8.340  1.00 27.48     0.166 A 
ENDROOT
BRANCH  10  11
HETATM   11  N14   D T9001       0.710   7.071  -8.683  1.00 23.22    -0.227 NA
BRANCH  11  12
HETATM   12  C15   D T9001       1.801   7.240  -7.794  1.00 24.25     0.084 A 
HETATM   13  C16   D T9001       2.626   6.139  -7.393  1.00 25.06     0.033 A 
HETATM   14  C17   D T9001       3.698   6.319  -6.506  1.00 28.28     0.087 A 
HETATM   15  C18   D T9001       3.979   7.607  -5.990  1.00 25.55     0.151 A 
HETATM   16 CL     D T9001       4.641   4.946  -6.068  1.00 31.70    -0.080 Cl
HETATM   17  C19   D T9001       3.182   8.718  -6.367  1.00 24.70     0.032 A 
HETATM   18  F21   D T9001       4.997   7.801  -5.139  1.00 27.22    -0.203 F 
HETATM   19  C20   D T9001       2.097   8.533  -7.267  1.00 24.32     0.021 A 
ENDBRANCH  11  12
ENDBRANCH  10  11
BRANCH   1  20
HETATM   20  N13   D T9001      -1.238   2.252  -9.775  1.00 34.61    -0.210 NA
HETATM   21  C26   D T9001      -1.107   2.074 -11.163  1.00 36.24     0.256 C 
HETATM   22  O27   D T9001      -1.375   2.910 -12.027  1.00 39.97    -0.270 OA
BRANCH  21  23
HETATM   23  C24   D T9001      -0.617   0.680 -11.516  1.00 35.38     0.092 C 
BRANCH  23  24
HETATM   24  C23   D T9001       0.548   0.229 -10.617  1.00 34.93     0.051 C 
BRANCH  24  25
HETATM   25  C25   D T9001       0.704  -1.292 -10.721  1.00 37.23     0.339 C 
HETATM   26  N33   D T9001       1.351  -1.853  -9.479  1.00 41.10     0.618 N 
ENDBRANCH  24  25
ENDBRANCH  23  24
ENDBRANCH  21  23
ENDBRANCH   1  20
BRANCH   2  27
HETATM   27  O11   D T9001      -3.814   2.345  -8.994  1.00 31.09    -0.327 OA
HETATM   28  C12   D T9001      -4.599   2.155 -10.175  1.00 29.66     0.181 C 
ENDBRANCH   2  27
TORSDOF 7
ENDMDL
