MODEL 1
REMARK VINA RESULT:    -5.060      0.000      0.000
REMARK INTER + INTRA:          -8.353
REMARK INTER:                  -7.130
REMARK INTRA:                  -1.223
REMARK UNBOUND:                -1.223
REMARK  7 active torsions:
REMARK  status: ('A' for Active; 'I' for Inactive)
REMARK    1  A    between atoms: C1_1  and  N13_22 
REMARK    2  A    between atoms: C2_2  and  O11_20 
REMARK    3  A    between atoms: C10_10  and  N14_11 
REMARK    4  A    between atoms: N14_11  and  C15_12 
REMARK       I    between atoms: N13_22  and  C26_23 
REMARK    5  A    between atoms: C26_23  and  C24_24 
REMARK    6  A    between atoms: C24_24  and  C23_25 
REMARK    7  A    between atoms: C23_25  and  C25_26 
ROOT
HETATM    1  C1    D T9001       6.294   9.841   3.868  1.00 30.38     0.107 A 
HETATM    2  C2    D T9001       5.869   8.963   4.922  1.00 29.65     0.113 A 
HETATM    3  C3    D T9001       6.851   8.168   5.597  1.00 28.21     0.045 A 
HETATM    4  C4    D T9001       8.217   8.219   5.254  1.00 27.21     0.088 A 
HETATM    5  C5    D T9001       8.640   9.090   4.185  1.00 26.27     0.055 A 
HETATM    6  C6    D T9001       7.668   9.889   3.510  1.00 29.22     0.026 A 
HETATM    7  N7    D T9001       9.083   7.440   5.949  1.00 25.99    -0.224 NA
HETATM    8  C8    D T9001      10.383   7.510   5.597  1.00 24.59     0.200 A 
HETATM    9  N9    D T9001      10.899   8.276   4.611  1.00 25.70    -0.205 NA
HETATM   10  C10   D T9001      10.033   9.074   3.894  1.00 27.48     0.166 A 
ENDROOT
BRANCH  10  11
HETATM   11  N14   D T9001      10.547   9.895   2.840  1.00 23.22    -0.227 NA
BRANCH  11  12
HETATM   12  C15   D T9001      10.691   9.535   1.476  1.00 24.25     0.084 A 
HETATM   13  C16   D T9001      10.793  10.519   0.442  1.00 25.06     0.033 A 
HETATM   14  C17   D T9001      10.928  10.149  -0.905  1.00 28.28     0.087 A 
HETATM   15  C18   D T9001      10.965   8.779  -1.260  1.00 25.55     0.151 A 
HETATM   16 CL     D T9001      11.039  11.392  -2.091  1.00 31.70    -0.080 Cl
HETATM   17  C19   D T9001      10.867   7.778  -0.260  1.00 24.70     0.032 A 
HETATM   18  F21   D T9001      11.090   8.404  -2.541  1.00 27.22    -0.203 F 
HETATM   19  C20   D T9001      10.731   8.157   1.105  1.00 24.32     0.021 A 
ENDBRANCH  11  12
ENDBRANCH  10  11
BRANCH   1  20
HETATM   20  N13   D T9001       5.305  10.647   3.238  1.00 34.61    -0.210 NA
HETATM   21  C26   D T9001       4.742  10.294   1.998  1.00 36.24     0.256 C 
HETATM   22  O27   D T9001       5.018   9.291   1.338  1.00 39.97    -0.270 OA
BRANCH  21  23
HETATM   23  C24   D T9001       3.744  11.330   1.508  1.00 35.38     0.092 C 
BRANCH  23  24
HETATM   24  C23   D T9001       3.261  12.255   2.639  1.00 34.93     0.051 C 
BRANCH  24  25
HETATM   25  C25   D T9001       1.783  11.968   2.927  1.00 37.23     0.339 C 
HETATM   26  N33   D T9001       1.629  10.705   3.738  1.00 41.10     0.618 N 
ENDBRANCH  24  25
ENDBRANCH  23  24
ENDBRANCH  21  23
ENDBRANCH   1  20
BRANCH   2  27
HETATM   27  O11   D T9001       4.503   8.975   5.192  1.00 31.09    -0.327 OA
HETATM   28  C12   D T9001       3.707   7.822   4.909  1.00 29.66     0.181 C 
ENDBRANCH   2  27
TORSDOF 7
ENDMDL
MODEL 2
REMARK VINA RESULT:    -5.040      1.425      1.905
REMARK INTER + INTRA:          -8.326
REMARK INTER:                  -7.119
REMARK INTRA:                  -1.207
REMARK UNBOUND:                -1.223
REMARK  7 active torsions:
REMARK  status: ('A' for Active; 'I' for Inactive)
REMARK    1  A    between atoms: C1_1  and  N13_22 
REMARK    2  A    between atoms: C2_2  and  O11_20 
REMARK    3  A    between atoms: C10_10  and  N14_11 
REMARK    4  A    between atoms: N14_11  and  C15_12 
REMARK       I    between atoms: N13_22  and  C26_23 
REMARK    5  A    between atoms: C26_23  and  C24_24 
REMARK    6  A    between atoms: C24_24  and  C23_25 
REMARK    7  A    between atoms: C23_25  and  C25_26 
ROOT
HETATM    1  C1    D T9001       6.418   9.929   3.778  1.00 30.38     0.107 A 
HETATM    2  C2    D T9001       5.966   9.058   4.827  1.00 29.65     0.113 A 
HETATM    3  C3    D T9001       6.926   8.245   5.511  1.00 28.21     0.045 A 
HETATM    4  C4    D T9001       8.297   8.271   5.183  1.00 27.21     0.088 A 
HETATM    5  C5    D T9001       8.746   9.136   4.119  1.00 26.27     0.055 A 
HETATM    6  C6    D T9001       7.797   9.953   3.434  1.00 29.22     0.026 A 
HETATM    7  N7    D T9001       9.140   7.477   5.886  1.00 25.99    -0.224 NA
HETATM    8  C8    D T9001      10.446   7.523   5.548  1.00 24.59     0.200 A 
HETATM    9  N9    D T9001      10.986   8.280   4.569  1.00 25.70    -0.205 NA
HETATM   10  C10   D T9001      10.142   9.095   3.844  1.00 27.48     0.166 A 
ENDROOT
BRANCH  10  11
HETATM   11  N14   D T9001      10.682   9.907   2.796  1.00 23.22    -0.227 NA
BRANCH  11  12
HETATM   12  C15   D T9001      10.832   9.546   1.433  1.00 24.25     0.084 A 
HETATM   13  C16   D T9001      11.630   8.426   1.032  1.00 25.06     0.033 A 
HETATM   14  C17   D T9001      11.776   8.084  -0.321  1.00 28.28     0.087 A 
HETATM   15  C18   D T9001      11.128   8.853  -1.317  1.00 25.55     0.151 A 
HETATM   16 CL     D T9001      12.758   6.728  -0.724  1.00 31.70    -0.080 Cl
HETATM   17  C19   D T9001      10.329   9.967  -0.955  1.00 24.70     0.032 A 
HETATM   18  F21   D T9001      11.257   8.545  -2.616  1.00 27.22    -0.203 F 
HETATM   19  C20   D T9001      10.183  10.311   0.418  1.00 24.32     0.021 A 
ENDBRANCH  11  12
ENDBRANCH  10  11
BRANCH   1  20
HETATM   20  N13   D T9001       5.451  10.753   3.138  1.00 34.61    -0.210 NA
HETATM   21  C26   D T9001       4.776  10.338   1.976  1.00 36.24     0.256 C 
HETATM   22  O27   D T9001       4.928   9.260   1.398  1.00 39.97    -0.270 OA
BRANCH  21  23
HETATM   23  C24   D T9001       3.827  11.403   1.454  1.00 35.38     0.092 C 
BRANCH  23  24
HETATM   24  C23   D T9001       4.142  12.796   2.027  1.00 34.93     0.051 C 
BRANCH  24  25
HETATM   25  C25   D T9001       4.211  13.809   0.878  1.00 37.23     0.339 C 
HETATM   26  N33   D T9001       5.638  14.023   0.436  1.00 41.10     0.618 N 
ENDBRANCH  24  25
ENDBRANCH  23  24
ENDBRANCH  21  23
ENDBRANCH   1  20
BRANCH   2  27
HETATM   27  O11   D T9001       4.598   9.095   5.081  1.00 31.09    -0.327 OA
HETATM   28  C12   D T9001       3.788   7.948   4.813  1.00 29.66     0.181 C 
ENDBRANCH   2  27
TORSDOF 7
ENDMDL
MODEL 3
REMARK VINA RESULT:    -5.037      3.089      4.461
REMARK INTER + INTRA:          -8.322
REMARK INTER:                  -7.393
REMARK INTRA:                  -0.929
REMARK UNBOUND:                -1.223
REMARK  7 active torsions:
REMARK  status: ('A' for Active; 'I' for Inactive)
REMARK    1  A    between atoms: C1_1  and  N13_22 
REMARK    2  A    between atoms: C2_2  and  O11_20 
REMARK    3  A    between atoms: C10_10  and  N14_11 
REMARK    4  A    between atoms: N14_11  and  C15_12 
REMARK       I    between atoms: N13_22  and  C26_23 
REMARK    5  A    between atoms: C26_23  and  C24_24 
REMARK    6  A    between atoms: C24_24  and  C23_25 
REMARK    7  A    between atoms: C23_25  and  C25_26 
ROOT
HETATM    1  C1    D T9001       6.431  10.610   2.400  1.00 30.38     0.107 A 
HETATM    2  C2    D T9001       6.358  12.044   2.351  1.00 29.65     0.113 A 
HETATM    3  C3    D T9001       7.289  12.754   1.527  1.00 28.21     0.045 A 
HETATM    4  C4    D T9001       8.274  12.090   0.768  1.00 27.21     0.088 A 
HETATM    5  C5    D T9001       8.355  10.651   0.831  1.00 26.27     0.055 A 
HETATM    6  C6    D T9001       7.428   9.934   1.647  1.00 29.22     0.026 A 
HETATM    7  N7    D T9001       9.110  12.838   0.006  1.00 25.99    -0.224 NA
HETATM    8  C8    D T9001      10.043  12.174  -0.706  1.00 24.59     0.200 A 
HETATM    9  N9    D T9001      10.226  10.836  -0.724  1.00 25.70    -0.205 NA
HETATM   10  C10   D T9001       9.383  10.060   0.045  1.00 27.48     0.166 A 
ENDROOT
BRANCH  10  11
HETATM   11  N14   D T9001       9.552   8.638   0.052  1.00 23.22    -0.227 NA
BRANCH  11  12
HETATM   12  C15   D T9001      10.780   7.929   0.002  1.00 24.25     0.084 A 
HETATM   13  C16   D T9001      11.584   7.729   1.170  1.00 25.06     0.033 A 
HETATM   14  C17   D T9001      12.800   7.031   1.106  1.00 28.28     0.087 A 
HETATM   15  C18   D T9001      13.250   6.511  -0.132  1.00 25.55     0.151 A 
HETATM   16 CL     D T9001      13.713   6.838   2.552  1.00 31.70    -0.080 Cl
HETATM   17  C19   D T9001      12.477   6.690  -1.307  1.00 24.70     0.032 A 
HETATM   18  F21   D T9001      14.410   5.843  -0.216  1.00 27.22    -0.203 F 
HETATM   19  C20   D T9001      11.244   7.397  -1.238  1.00 24.32     0.021 A 
ENDBRANCH  11  12
ENDBRANCH  10  11
BRANCH   1  20
HETATM   20  N13   D T9001       5.473   9.924   3.198  1.00 34.61    -0.210 NA
HETATM   21  C26   D T9001       4.354   9.289   2.630  1.00 36.24     0.256 C 
HETATM   22  O27   D T9001       4.080   9.246   1.429  1.00 39.97    -0.270 OA
BRANCH  21  23
HETATM   23  C24   D T9001       3.455   8.664   3.683  1.00 35.38     0.092 C 
BRANCH  23  24
HETATM   24  C23   D T9001       4.252   8.114   4.878  1.00 34.93     0.051 C 
BRANCH  24  25
HETATM   25  C25   D T9001       3.619   8.617   6.180  1.00 37.23     0.339 C 
HETATM   26  N33   D T9001       2.369   7.835   6.505  1.00 41.10     0.618 N 
ENDBRANCH  24  25
ENDBRANCH  23  24
ENDBRANCH  21  23
ENDBRANCH   1  20
BRANCH   2  27
HETATM   27  O11   D T9001       5.357  12.615   3.132  1.00 31.09    -0.327 OA
HETATM   28  C12   D T9001       4.246  13.265   2.511  1.00 29.66     0.181 C 
ENDBRANCH   2  27
TORSDOF 7
ENDMDL
MODEL 4
REMARK VINA RESULT:    -4.910      2.611      4.527
REMARK INTER + INTRA:          -8.142
REMARK INTER:                  -7.007
REMARK INTRA:                  -1.136
REMARK UNBOUND:                -1.223
REMARK  7 active torsions:
REMARK  status: ('A' for Active; 'I' for Inactive)
REMARK    1  A    between atoms: C1_1  and  N13_22 
REMARK    2  A    between atoms: C2_2  and  O11_20 
REMARK    3  A    between atoms: C10_10  and  N14_11 
REMARK    4  A    between atoms: N14_11  and  C15_12 
REMARK       I    between atoms: N13_22  and  C26_23 
REMARK    5  A    between atoms: C26_23  and  C24_24 
REMARK    6  A    between atoms: C24_24  and  C23_25 
REMARK    7  A    between atoms: C23_25  and  C25_26 
ROOT
HETATM    1  C1    D T9001       5.504  11.634   2.454  1.00 30.38     0.107 A 
HETATM    2  C2    D T9001       4.675  12.734   2.045  1.00 29.65     0.113 A 
HETATM    3  C3    D T9001       5.253  13.775   1.250  1.00 28.21     0.045 A 
HETATM    4  C4    D T9001       6.608  13.755   0.862  1.00 27.21     0.088 A 
HETATM    5  C5    D T9001       7.442  12.657   1.287  1.00 26.27     0.055 A 
HETATM    6  C6    D T9001       6.874  11.612   2.076  1.00 29.22     0.026 A 
HETATM    7  N7    D T9001       7.073  14.776   0.101  1.00 25.99    -0.224 NA
HETATM    8  C8    D T9001       8.374  14.729  -0.252  1.00 24.59     0.200 A 
HETATM    9  N9    D T9001       9.256  13.764   0.089  1.00 25.70    -0.205 NA
HETATM   10  C10   D T9001       8.799  12.718   0.862  1.00 27.48     0.166 A 
ENDROOT
BRANCH  10  11
HETATM   11  N14   D T9001       9.709  11.681   1.245  1.00 23.22    -0.227 NA
BRANCH  11  12
HETATM   12  C15   D T9001      10.044  10.525   0.493  1.00 24.25     0.084 A 
HETATM   13  C16   D T9001      10.801  10.607  -0.720  1.00 25.06     0.033 A 
HETATM   14  C17   D T9001      11.120   9.457  -1.458  1.00 28.28     0.087 A 
HETATM   15  C18   D T9001      10.691   8.187  -1.004  1.00 25.55     0.151 A 
HETATM   16 CL     D T9001      12.028   9.639  -2.909  1.00 31.70    -0.080 Cl
HETATM   17  C19   D T9001       9.941   8.070   0.194  1.00 24.70     0.032 A 
HETATM   18  F21   D T9001      10.983   7.075  -1.696  1.00 27.22    -0.203 F 
HETATM   19  C20   D T9001       9.620   9.238   0.940  1.00 24.32     0.021 A 
ENDBRANCH  11  12
ENDBRANCH  10  11
BRANCH   1  20
HETATM   20  N13   D T9001       4.898  10.594   3.213  1.00 34.61    -0.210 NA
HETATM   21  C26   D T9001       4.347   9.455   2.600  1.00 36.24     0.256 C 
HETATM   22  O27   D T9001       4.325   9.225   1.390  1.00 39.97    -0.270 OA
BRANCH  21  23
HETATM   23  C24   D T9001       3.721   8.508   3.611  1.00 35.38     0.092 C 
BRANCH  23  24
HETATM   24  C23   D T9001       4.486   8.493   4.946  1.00 34.93     0.051 C 
BRANCH  24  25
HETATM   25  C25   D T9001       3.497   8.732   6.093  1.00 37.23     0.339 C 
HETATM   26  N33   D T9001       2.079   8.781   5.579  1.00 41.10     0.618 N 
ENDBRANCH  24  25
ENDBRANCH  23  24
ENDBRANCH  21  23
ENDBRANCH   1  20
BRANCH   2  27
HETATM   27  O11   D T9001       3.353  12.673   2.475  1.00 31.09    -0.327 OA
HETATM   28  C12   D T9001       2.292  13.023   1.583  1.00 29.66     0.181 C 
ENDBRANCH   2  27
TORSDOF 7
ENDMDL
MODEL 5
REMARK VINA RESULT:    -4.816      1.884      2.070
REMARK INTER + INTRA:          -8.010
REMARK INTER:                  -6.849
REMARK INTRA:                  -1.160
REMARK UNBOUND:                -1.223
REMARK  7 active torsions:
REMARK  status: ('A' for Active; 'I' for Inactive)
REMARK    1  A    between atoms: C1_1  and  N13_22 
REMARK    2  A    between atoms: C2_2  and  O11_20 
REMARK    3  A    between atoms: C10_10  and  N14_11 
REMARK    4  A    between atoms: N14_11  and  C15_12 
REMARK       I    between atoms: N13_22  and  C26_23 
REMARK    5  A    between atoms: C26_23  and  C24_24 
REMARK    6  A    between atoms: C24_24  and  C23_25 
REMARK    7  A    between atoms: C23_25  and  C25_26 
ROOT
HETATM    1  C1    D T9001       5.524  10.065   3.023  1.00 30.38     0.107 A 
HETATM    2  C2    D T9001       4.902   9.502   4.188  1.00 29.65     0.113 A 
HETATM    3  C3    D T9001       5.727   8.877   5.177  1.00 28.21     0.045 A 
HETATM    4  C4    D T9001       7.127   8.794   5.038  1.00 27.21     0.088 A 
HETATM    5  C5    D T9001       7.749   9.347   3.860  1.00 26.27     0.055 A 
HETATM    6  C6    D T9001       6.934   9.976   2.870  1.00 29.22     0.026 A 
HETATM    7  N7    D T9001       7.836   8.193   6.026  1.00 25.99    -0.224 NA
HETATM    8  C8    D T9001       9.173   8.128   5.864  1.00 24.59     0.200 A 
HETATM    9  N9    D T9001       9.869   8.598   4.805  1.00 25.70    -0.205 NA
HETATM   10  C10   D T9001       9.164   9.212   3.792  1.00 27.48     0.166 A 
ENDROOT
BRANCH  10  11
HETATM   11  N14   D T9001       9.870   9.717   2.654  1.00 23.22    -0.227 NA
BRANCH  11  12
HETATM   12  C15   D T9001      10.445   8.956   1.604  1.00 24.25     0.084 A 
HETATM   13  C16   D T9001      11.785   8.458   1.679  1.00 25.06     0.033 A 
HETATM   14  C17   D T9001      12.344   7.712   0.630  1.00 28.28     0.087 A 
HETATM   15  C18   D T9001      11.578   7.442  -0.530  1.00 25.55     0.151 A 
HETATM   16 CL     D T9001      13.964   7.152   0.792  1.00 31.70    -0.080 Cl
HETATM   17  C19   D T9001      10.247   7.920  -0.636  1.00 24.70     0.032 A 
HETATM   18  F21   D T9001      12.094   6.733  -1.545  1.00 27.22    -0.203 F 
HETATM   19  C20   D T9001       9.683   8.675   0.430  1.00 24.32     0.021 A 
ENDBRANCH  11  12
ENDBRANCH  10  11
BRANCH   1  20
HETATM   20  N13   D T9001       4.687  10.713   2.072  1.00 34.61    -0.210 NA
HETATM   21  C26   D T9001       4.508  12.108   2.071  1.00 36.24     0.256 C 
HETATM   22  O27   D T9001       5.030  12.904   2.853  1.00 39.97    -0.270 OA
BRANCH  21  23
HETATM   23  C24   D T9001       3.538  12.560   0.992  1.00 35.38     0.092 C 
BRANCH  23  24
HETATM   24  C23   D T9001       2.395  13.420   1.559  1.00 34.93     0.051 C 
BRANCH  24  25
HETATM   25  C25   D T9001       1.529  12.559   2.485  1.00 37.23     0.339 C 
HETATM   26  N33   D T9001       1.236  13.286   3.775  1.00 41.10     0.618 N 
ENDBRANCH  24  25
ENDBRANCH  23  24
ENDBRANCH  21  23
ENDBRANCH   1  20
BRANCH   2  27
HETATM   27  O11   D T9001       3.516   9.628   4.241  1.00 31.09    -0.327 OA
HETATM   28  C12   D T9001       2.906  10.401   5.276  1.00 29.66     0.181 C 
ENDBRANCH   2  27
TORSDOF 7
ENDMDL
MODEL 6
REMARK VINA RESULT:    -4.551      3.328      5.233
REMARK INTER + INTRA:          -7.637
REMARK INTER:                  -6.615
REMARK INTRA:                  -1.022
REMARK UNBOUND:                -1.223
REMARK  7 active torsions:
REMARK  status: ('A' for Active; 'I' for Inactive)
REMARK    1  A    between atoms: C1_1  and  N13_22 
REMARK    2  A    between atoms: C2_2  and  O11_20 
REMARK    3  A    between atoms: C10_10  and  N14_11 
REMARK    4  A    between atoms: N14_11  and  C15_12 
REMARK       I    between atoms: N13_22  and  C26_23 
REMARK    5  A    between atoms: C26_23  and  C24_24 
REMARK    6  A    between atoms: C24_24  and  C23_25 
REMARK    7  A    between atoms: C23_25  and  C25_26 
ROOT
HETATM    1  C1    D T9001       8.196  10.859   1.482  1.00 30.38     0.107 A 
HETATM    2  C2    D T9001       8.219  12.248   1.115  1.00 29.65     0.113 A 
HETATM    3  C3    D T9001       9.058  12.662   0.031  1.00 28.21     0.045 A 
HETATM    4  C4    D T9001       9.862  11.749  -0.682  1.00 27.21     0.088 A 
HETATM    5  C5    D T9001       9.849  10.357  -0.302  1.00 26.27     0.055 A 
HETATM    6  C6    D T9001       9.013   9.935   0.775  1.00 29.22     0.026 A 
HETATM    7  N7    D T9001      10.620  12.222  -1.702  1.00 25.99    -0.224 NA
HETATM    8  C8    D T9001      11.381  11.326  -2.363  1.00 24.59     0.200 A 
HETATM    9  N9    D T9001      11.462  10.004  -2.098  1.00 25.70    -0.205 NA
HETATM   10  C10   D T9001      10.697   9.506  -1.064  1.00 27.48     0.166 A 
ENDROOT
BRANCH  10  11
HETATM   11  N14   D T9001      10.763   8.110  -0.753  1.00 23.22    -0.227 NA
BRANCH  11  12
HETATM   12  C15   D T9001      11.778   7.451  -0.013  1.00 24.25     0.084 A 
HETATM   13  C16   D T9001      11.809   7.482   1.418  1.00 25.06     0.033 A 
HETATM   14  C17   D T9001      12.823   6.832   2.139  1.00 28.28     0.087 A 
HETATM   15  C18   D T9001      13.840   6.130   1.448  1.00 25.55     0.151 A 
HETATM   16 CL     D T9001      12.794   6.920   3.858  1.00 31.70    -0.080 Cl
HETATM   17  C19   D T9001      13.838   6.079   0.031  1.00 24.70     0.032 A 
HETATM   18  F21   D T9001      14.820   5.505   2.117  1.00 27.22    -0.203 F 
HETATM   19  C20   D T9001      12.808   6.739  -0.697  1.00 24.32     0.021 A 
ENDBRANCH  11  12
ENDBRANCH  10  11
BRANCH   1  20
HETATM   20  N13   D T9001       7.328  10.467   2.539  1.00 34.61    -0.210 NA
HETATM   21  C26   D T9001       6.092   9.846   2.290  1.00 36.24     0.256 C 
HETATM   22  O27   D T9001       5.630   9.574   1.181  1.00 39.97    -0.270 OA
BRANCH  21  23
HETATM   23  C24   D T9001       5.326   9.562   3.571  1.00 35.38     0.092 C 
BRANCH  23  24
HETATM   24  C23   D T9001       3.841   9.949   3.461  1.00 34.93     0.051 C 
BRANCH  24  25
HETATM   25  C25   D T9001       2.999   8.677   3.308  1.00 37.23     0.339 C 
HETATM   26  N33   D T9001       3.450   7.615   4.280  1.00 41.10     0.618 N 
ENDBRANCH  24  25
ENDBRANCH  23  24
ENDBRANCH  21  23
ENDBRANCH   1  20
BRANCH   2  27
HETATM   27  O11   D T9001       7.397  13.076   1.874  1.00 31.09    -0.327 OA
HETATM   28  C12   D T9001       6.531  14.012   1.227  1.00 29.66     0.181 C 
ENDBRANCH   2  27
TORSDOF 7
ENDMDL
MODEL 7
REMARK VINA RESULT:    -4.415      2.100      2.675
REMARK INTER + INTRA:          -7.445
REMARK INTER:                  -6.382
REMARK INTRA:                  -1.063
REMARK UNBOUND:                -1.223
REMARK  7 active torsions:
REMARK  status: ('A' for Active; 'I' for Inactive)
REMARK    1  A    between atoms: C1_1  and  N13_22 
REMARK    2  A    between atoms: C2_2  and  O11_20 
REMARK    3  A    between atoms: C10_10  and  N14_11 
REMARK    4  A    between atoms: N14_11  and  C15_12 
REMARK       I    between atoms: N13_22  and  C26_23 
REMARK    5  A    between atoms: C26_23  and  C24_24 
REMARK    6  A    between atoms: C24_24  and  C23_25 
REMARK    7  A    between atoms: C23_25  and  C25_26 
ROOT
HETATM    1  C1    D T9001       7.046  10.575   2.684  1.00 30.38     0.107 A 
HETATM    2  C2    D T9001       7.352  10.470   4.083  1.00 29.65     0.113 A 
HETATM    3  C3    D T9001       8.573   9.833   4.477  1.00 28.21     0.045 A 
HETATM    4  C4    D T9001       9.478   9.304   3.534  1.00 27.21     0.088 A 
HETATM    5  C5    D T9001       9.161   9.398   2.130  1.00 26.27     0.055 A 
HETATM    6  C6    D T9001       7.948  10.035   1.728  1.00 29.22     0.026 A 
HETATM    7  N7    D T9001      10.615   8.726   3.991  1.00 25.99    -0.224 NA
HETATM    8  C8    D T9001      11.460   8.227   3.065  1.00 24.59     0.200 A 
HETATM    9  N9    D T9001      11.273   8.245   1.727  1.00 25.70    -0.205 NA
HETATM   10  C10   D T9001      10.120   8.830   1.245  1.00 27.48     0.166 A 
ENDROOT
BRANCH  10  11
HETATM   11  N14   D T9001       9.889   8.861  -0.167  1.00 23.22    -0.227 NA
BRANCH  11  12
HETATM   12  C15   D T9001      10.619   9.603  -1.131  1.00 24.25     0.084 A 
HETATM   13  C16   D T9001      10.439  11.015  -1.292  1.00 25.06     0.033 A 
HETATM   14  C17   D T9001      11.162  11.735  -2.254  1.00 28.28     0.087 A 
HETATM   15  C18   D T9001      12.089  11.065  -3.088  1.00 25.55     0.151 A 
HETATM   16 CL     D T9001      10.886  13.429  -2.390  1.00 31.70    -0.080 Cl
HETATM   17  C19   D T9001      12.292   9.668  -2.955  1.00 24.70     0.032 A 
HETATM   18  F21   D T9001      12.789  11.734  -4.017  1.00 27.22    -0.203 F 
HETATM   19  C20   D T9001      11.557   8.940  -1.977  1.00 24.32     0.021 A 
ENDBRANCH  11  12
ENDBRANCH  10  11
BRANCH   1  20
HETATM   20  N13   D T9001       5.845  11.244   2.317  1.00 34.61    -0.210 NA
HETATM   21  C26   D T9001       4.697  10.538   1.914  1.00 36.24     0.256 C 
HETATM   22  O27   D T9001       4.592   9.313   1.837  1.00 39.97    -0.270 OA
BRANCH  21  23
HETATM   23  C24   D T9001       3.559  11.468   1.531  1.00 35.38     0.092 C 
BRANCH  23  24
HETATM   24  C23   D T9001       4.063  12.840   1.050  1.00 34.93     0.051 C 
BRANCH  24  25
HETATM   25  C25   D T9001       3.263  13.944   1.751  1.00 37.23     0.339 C 
HETATM   26  N33   D T9001       4.126  14.685   2.743  1.00 41.10     0.618 N 
ENDBRANCH  24  25
ENDBRANCH  23  24
ENDBRANCH  21  23
ENDBRANCH   1  20
BRANCH   2  27
HETATM   27  O11   D T9001       6.402  11.016   4.942  1.00 31.09    -0.327 OA
HETATM   28  C12   D T9001       6.422  10.690   6.334  1.00 29.66     0.181 C 
ENDBRANCH   2  27
TORSDOF 7
ENDMDL
MODEL 8
REMARK VINA RESULT:    -4.271      3.606      6.979
REMARK INTER + INTRA:          -7.242
REMARK INTER:                  -6.075
REMARK INTRA:                  -1.167
REMARK UNBOUND:                -1.223
REMARK  7 active torsions:
REMARK  status: ('A' for Active; 'I' for Inactive)
REMARK    1  A    between atoms: C1_1  and  N13_22 
REMARK    2  A    between atoms: C2_2  and  O11_20 
REMARK    3  A    between atoms: C10_10  and  N14_11 
REMARK    4  A    between atoms: N14_11  and  C15_12 
REMARK       I    between atoms: N13_22  and  C26_23 
REMARK    5  A    between atoms: C26_23  and  C24_24 
REMARK    6  A    between atoms: C24_24  and  C23_25 
REMARK    7  A    between atoms: C23_25  and  C25_26 
ROOT
HETATM    1  C1    D T9001       7.556   9.984   3.992  1.00 30.38     0.107 A 
HETATM    2  C2    D T9001       7.606   9.084   5.110  1.00 29.65     0.113 A 
HETATM    3  C3    D T9001       6.437   8.326   5.439  1.00 28.21     0.045 A 
HETATM    4  C4    D T9001       5.241   8.439   4.702  1.00 27.21     0.088 A 
HETATM    5  C5    D T9001       5.188   9.355   3.588  1.00 26.27     0.055 A 
HETATM    6  C6    D T9001       6.350  10.112   3.250  1.00 29.22     0.026 A 
HETATM    7  N7    D T9001       4.183   7.678   5.074  1.00 25.99    -0.224 NA
HETATM    8  C8    D T9001       3.052   7.810   4.351  1.00 24.59     0.200 A 
HETATM    9  N9    D T9001       2.875   8.636   3.297  1.00 25.70    -0.205 NA
HETATM   10  C10   D T9001       3.942   9.418   2.904  1.00 27.48     0.166 A 
ENDROOT
BRANCH  10  11
HETATM   11  N14   D T9001       3.787  10.307   1.793  1.00 23.22    -0.227 NA
BRANCH  11  12
HETATM   12  C15   D T9001       3.447  11.683   1.847  1.00 24.25     0.084 A 
HETATM   13  C16   D T9001       4.299  12.693   1.296  1.00 25.06     0.033 A 
HETATM   14  C17   D T9001       3.954  14.052   1.363  1.00 28.28     0.087 A 
HETATM   15  C18   D T9001       2.744  14.443   1.985  1.00 25.55     0.151 A 
HETATM   16 CL     D T9001       5.034  15.207   0.682  1.00 31.70    -0.080 Cl
HETATM   17  C19   D T9001       1.877  13.468   2.540  1.00 24.70     0.032 A 
HETATM   18  F21   D T9001       2.397  15.736   2.063  1.00 27.22    -0.203 F 
HETATM   19  C20   D T9001       2.229  12.091   2.470  1.00 24.32     0.021 A 
ENDBRANCH  11  12
ENDBRANCH  10  11
BRANCH   1  20
HETATM   20  N13   D T9001       8.741  10.700   3.663  1.00 34.61    -0.210 NA
HETATM   21  C26   D T9001       9.613  10.262   2.650  1.00 36.24     0.256 C 
HETATM   22  O27   D T9001       9.466   9.257   1.954  1.00 39.97    -0.270 OA
BRANCH  21  23
HETATM   23  C24   D T9001      10.829  11.165   2.513  1.00 35.38     0.092 C 
BRANCH  23  24
HETATM   24  C23   D T9001      10.448  12.595   2.093  1.00 34.93     0.051 C 
BRANCH  24  25
HETATM   25  C25   D T9001      10.124  12.610   0.595  1.00 37.23     0.339 C 
HETATM   26  N33   D T9001      11.060  13.533  -0.147  1.00 41.10     0.618 N 
ENDBRANCH  24  25
ENDBRANCH  23  24
ENDBRANCH  21  23
ENDBRANCH   1  20
BRANCH   2  27
HETATM   27  O11   D T9001       8.825   9.038   5.781  1.00 31.09    -0.327 OA
HETATM   28  C12   D T9001       9.455   7.781   6.036  1.00 29.66     0.181 C 
ENDBRANCH   2  27
TORSDOF 7
ENDMDL
MODEL 9
REMARK VINA RESULT:    -4.235      6.786      9.379
REMARK INTER + INTRA:          -7.191
REMARK INTER:                  -6.174
REMARK INTRA:                  -1.017
REMARK UNBOUND:                -1.223
REMARK  7 active torsions:
REMARK  status: ('A' for Active; 'I' for Inactive)
REMARK    1  A    between atoms: C1_1  and  N13_22 
REMARK    2  A    between atoms: C2_2  and  O11_20 
REMARK    3  A    between atoms: C10_10  and  N14_11 
REMARK    4  A    between atoms: N14_11  and  C15_12 
REMARK       I    between atoms: N13_22  and  C26_23 
REMARK    5  A    between atoms: C26_23  and  C24_24 
REMARK    6  A    between atoms: C24_24  and  C23_25 
REMARK    7  A    between atoms: C23_25  and  C25_26 
ROOT
HETATM    1  C1    D T9001       2.714  11.529   4.206  1.00 30.38     0.107 A 
HETATM    2  C2    D T9001       2.686  10.232   3.590  1.00 29.65     0.113 A 
HETATM    3  C3    D T9001       2.219   9.114   4.354  1.00 28.21     0.045 A 
HETATM    4  C4    D T9001       1.791   9.249   5.691  1.00 27.21     0.088 A 
HETATM    5  C5    D T9001       1.835  10.550   6.312  1.00 26.27     0.055 A 
HETATM    6  C6    D T9001       2.295  11.671   5.557  1.00 29.22     0.026 A 
HETATM    7  N7    D T9001       1.355   8.142   6.340  1.00 25.99    -0.224 NA
HETATM    8  C8    D T9001       0.955   8.303   7.618  1.00 24.59     0.200 A 
HETATM    9  N9    D T9001       0.957   9.462   8.311  1.00 25.70    -0.205 NA
HETATM   10  C10   D T9001       1.397  10.598   7.666  1.00 27.48     0.166 A 
ENDROOT
BRANCH  10  11
HETATM   11  N14   D T9001       1.416  11.843   8.373  1.00 23.22    -0.227 NA
BRANCH  11  12
HETATM   12  C15   D T9001       2.337  12.234   9.379  1.00 24.25     0.084 A 
HETATM   13  C16   D T9001       2.043  13.288  10.303  1.00 25.06     0.033 A 
HETATM   14  C17   D T9001       2.965  13.670  11.289  1.00 28.28     0.087 A 
HETATM   15  C18   D T9001       4.213  13.009  11.382  1.00 25.55     0.151 A 
HETATM   16 CL     D T9001       2.540  14.951  12.358  1.00 31.70    -0.080 Cl
HETATM   17  C19   D T9001       4.536  11.960  10.483  1.00 24.70     0.032 A 
HETATM   18  F21   D T9001       5.110  13.360  12.314  1.00 27.22    -0.203 F 
HETATM   19  C20   D T9001       3.598  11.574   9.485  1.00 24.32     0.021 A 
ENDBRANCH  11  12
ENDBRANCH  10  11
BRANCH   1  20
HETATM   20  N13   D T9001       3.148  12.629   3.416  1.00 34.61    -0.210 NA
HETATM   21  C26   D T9001       4.485  13.065   3.422  1.00 36.24     0.256 C 
HETATM   22  O27   D T9001       5.403  12.570   4.078  1.00 39.97    -0.270 OA
BRANCH  21  23
HETATM   23  C24   D T9001       4.695  14.280   2.534  1.00 35.38     0.092 C 
BRANCH  23  24
HETATM   24  C23   D T9001       4.336  13.997   1.065  1.00 34.93     0.051 C 
BRANCH  24  25
HETATM   25  C25   D T9001       5.452  14.536   0.162  1.00 37.23     0.339 C 
HETATM   26  N33   D T9001       6.767  13.863   0.474  1.00 41.10     0.618 N 
ENDBRANCH  24  25
ENDBRANCH  23  24
ENDBRANCH  21  23
ENDBRANCH   1  20
BRANCH   2  27
HETATM   27  O11   D T9001       3.127  10.191   2.270  1.00 31.09    -0.327 OA
HETATM   28  C12   D T9001       4.096   9.221   1.869  1.00 29.66     0.181 C 
ENDBRANCH   2  27
TORSDOF 7
ENDMDL
