MODEL 1
REMARK VINA RESULT:    -7.075      0.000      0.000
REMARK INTER + INTRA:         -11.283
REMARK INTER:                  -9.970
REMARK INTRA:                  -1.314
REMARK UNBOUND:                -1.314
REMARK  7 active torsions:
REMARK  status: ('A' for Active; 'I' for Inactive)
REMARK    1  A    between atoms: C1_1  and  N13_22 
REMARK    2  A    between atoms: C2_2  and  O11_20 
REMARK    3  A    between atoms: C10_10  and  N14_11 
REMARK    4  A    between atoms: N14_11  and  C15_12 
REMARK       I    between atoms: N13_22  and  C26_23 
REMARK    5  A    between atoms: C26_23  and  C24_24 
REMARK    6  A    between atoms: C24_24  and  C23_25 
REMARK    7  A    between atoms: C23_25  and  C25_26 
ROOT
HETATM    1  C1    D T9001       1.514   2.705  11.693  1.00 30.38     0.107 A 
HETATM    2  C2    D T9001       1.750   3.353  10.432  1.00 29.65     0.113 A 
HETATM    3  C3    D T9001       0.739   4.212   9.897  1.00 28.21     0.045 A 
HETATM    4  C4    D T9001      -0.481   4.437  10.567  1.00 27.21     0.088 A 
HETATM    5  C5    D T9001      -0.724   3.774  11.824  1.00 26.27     0.055 A 
HETATM    6  C6    D T9001       0.281   2.918  12.367  1.00 29.22     0.026 A 
HETATM    7  N7    D T9001      -1.383   5.273   9.994  1.00 25.99    -0.224 NA
HETATM    8  C8    D T9001      -2.543   5.465  10.657  1.00 24.59     0.200 A 
HETATM    9  N9    D T9001      -2.889   4.899  11.832  1.00 25.70    -0.205 NA
HETATM   10  C10   D T9001      -1.984   4.045  12.428  1.00 27.48     0.166 A 
ENDROOT
BRANCH  10  11
HETATM   11  N14   D T9001      -2.322   3.423  13.672  1.00 23.22    -0.227 NA
BRANCH  11  12
HETATM   12  C15   D T9001      -2.805   2.103  13.858  1.00 24.25     0.084 A 
HETATM   13  C16   D T9001      -2.080   1.136  14.628  1.00 25.06     0.033 A 
HETATM   14  C17   D T9001      -2.566  -0.170  14.799  1.00 28.28     0.087 A 
HETATM   15  C18   D T9001      -3.793  -0.550  14.204  1.00 25.55     0.151 A 
HETATM   16 CL     D T9001      -1.633  -1.276  15.733  1.00 31.70    -0.080 Cl
HETATM   17  C19   D T9001      -4.536   0.383  13.437  1.00 24.70     0.032 A 
HETATM   18  F21   D T9001      -4.272  -1.793  14.353  1.00 27.22    -0.203 F 
HETATM   19  C20   D T9001      -4.042   1.706  13.266  1.00 24.32     0.021 A 
ENDBRANCH  11  12
ENDBRANCH  10  11
BRANCH   1  20
HETATM   20  N13   D T9001       2.550   1.885  12.221  1.00 34.61    -0.210 NA
HETATM   21  C26   D T9001       2.630   0.513  11.928  1.00 36.24     0.256 C 
HETATM   22  O27   D T9001       1.854  -0.120  11.210  1.00 39.97    -0.270 OA
BRANCH  21  23
HETATM   23  C24   D T9001       3.793  -0.157  12.640  1.00 35.38     0.092 C 
BRANCH  23  24
HETATM   24  C23   D T9001       3.711   0.004  14.168  1.00 34.93     0.051 C 
BRANCH  24  25
HETATM   25  C25   D T9001       2.382  -0.577  14.666  1.00 37.23     0.339 C 
HETATM   26  N33   D T9001       1.520   0.500  15.277  1.00 41.10     0.618 N 
ENDBRANCH  24  25
ENDBRANCH  23  24
ENDBRANCH  21  23
ENDBRANCH   1  20
BRANCH   2  27
HETATM   27  O11   D T9001       2.980   3.072   9.843  1.00 31.09    -0.327 OA
HETATM   28  C12   D T9001       3.935   4.118   9.648  1.00 29.66     0.181 C 
ENDBRANCH   2  27
TORSDOF 7
ENDMDL
MODEL 2
REMARK VINA RESULT:    -7.013      2.294      2.880
REMARK INTER + INTRA:         -11.197
REMARK INTER:                 -10.415
REMARK INTRA:                  -0.783
REMARK UNBOUND:                -1.314
REMARK  7 active torsions:
REMARK  status: ('A' for Active; 'I' for Inactive)
REMARK    1  A    between atoms: C1_1  and  N13_22 
REMARK    2  A    between atoms: C2_2  and  O11_20 
REMARK    3  A    between atoms: C10_10  and  N14_11 
REMARK    4  A    between atoms: N14_11  and  C15_12 
REMARK       I    between atoms: N13_22  and  C26_23 
REMARK    5  A    between atoms: C26_23  and  C24_24 
REMARK    6  A    between atoms: C24_24  and  C23_25 
REMARK    7  A    between atoms: C23_25  and  C25_26 
ROOT
HETATM    1  C1    D T9001       2.530   1.755  11.093  1.00 30.38     0.107 A 
HETATM    2  C2    D T9001       2.588   2.733  10.043  1.00 29.65     0.113 A 
HETATM    3  C3    D T9001       1.655   3.818  10.057  1.00 28.21     0.045 A 
HETATM    4  C4    D T9001       0.682   3.953  11.069  1.00 27.21     0.088 A 
HETATM    5  C5    D T9001       0.615   2.962  12.115  1.00 26.27     0.055 A 
HETATM    6  C6    D T9001       1.544   1.878  12.109  1.00 29.22     0.026 A 
HETATM    7  N7    D T9001      -0.158   5.017  11.014  1.00 25.99    -0.224 NA
HETATM    8  C8    D T9001      -1.081   5.116  11.993  1.00 24.59     0.200 A 
HETATM    9  N9    D T9001      -1.248   4.253  13.017  1.00 25.70    -0.205 NA
HETATM   10  C10   D T9001      -0.403   3.165  13.089  1.00 27.48     0.166 A 
ENDROOT
BRANCH  10  11
HETATM   11  N14   D T9001      -0.557   2.228  14.159  1.00 23.22    -0.227 NA
BRANCH  11  12
HETATM   12  C15   D T9001      -1.681   1.400  14.408  1.00 24.25     0.084 A 
HETATM   13  C16   D T9001      -2.938   1.618  13.756  1.00 25.06     0.033 A 
HETATM   14  C17   D T9001      -4.044   0.795  14.017  1.00 28.28     0.087 A 
HETATM   15  C18   D T9001      -3.929  -0.272  14.940  1.00 25.55     0.151 A 
HETATM   16 CL     D T9001      -5.523   1.126  13.198  1.00 31.70    -0.080 Cl
HETATM   17  C19   D T9001      -2.698  -0.517  15.602  1.00 24.70     0.032 A 
HETATM   18  F21   D T9001      -4.975  -1.067  15.205  1.00 27.22    -0.203 F 
HETATM   19  C20   D T9001      -1.578   0.319  15.335  1.00 24.32     0.021 A 
ENDBRANCH  11  12
ENDBRANCH  10  11
BRANCH   1  20
HETATM   20  N13   D T9001       3.491   0.706  11.076  1.00 34.61    -0.210 NA
HETATM   21  C26   D T9001       4.680   0.779  11.822  1.00 36.24     0.256 C 
HETATM   22  O27   D T9001       5.021   1.713  12.549  1.00 39.97    -0.270 OA
BRANCH  21  23
HETATM   23  C24   D T9001       5.564  -0.438  11.609  1.00 35.38     0.092 C 
BRANCH  23  24
HETATM   24  C23   D T9001       4.905  -1.484  10.694  1.00 34.93     0.051 C 
BRANCH  24  25
HETATM   25  C25   D T9001       5.996  -2.329  10.025  1.00 37.23     0.339 C 
HETATM   26  N33   D T9001       6.238  -3.604  10.795  1.00 41.10     0.618 N 
ENDBRANCH  24  25
ENDBRANCH  23  24
ENDBRANCH  21  23
ENDBRANCH   1  20
BRANCH   2  27
HETATM   27  O11   D T9001       3.578   2.520   9.088  1.00 31.09    -0.327 OA
HETATM   28  C12   D T9001       4.644   3.461   8.941  1.00 29.66     0.181 C 
ENDBRANCH   2  27
TORSDOF 7
ENDMDL
MODEL 3
REMARK VINA RESULT:    -6.982      3.638      6.147
REMARK INTER + INTRA:         -11.153
REMARK INTER:                 -10.130
REMARK INTRA:                  -1.023
REMARK UNBOUND:                -1.314
REMARK  7 active torsions:
REMARK  status: ('A' for Active; 'I' for Inactive)
REMARK    1  A    between atoms: C1_1  and  N13_22 
REMARK    2  A    between atoms: C2_2  and  O11_20 
REMARK    3  A    between atoms: C10_10  and  N14_11 
REMARK    4  A    between atoms: N14_11  and  C15_12 
REMARK       I    between atoms: N13_22  and  C26_23 
REMARK    5  A    between atoms: C26_23  and  C24_24 
REMARK    6  A    between atoms: C24_24  and  C23_25 
REMARK    7  A    between atoms: C23_25  and  C25_26 
ROOT
HETATM    1  C1    D T9001      -2.041   0.696  14.806  1.00 30.38     0.107 A 
HETATM    2  C2    D T9001      -3.259   1.127  14.179  1.00 29.65     0.113 A 
HETATM    3  C3    D T9001      -3.215   2.233  13.271  1.00 28.21     0.045 A 
HETATM    4  C4    D T9001      -2.014   2.912  12.979  1.00 27.21     0.088 A 
HETATM    5  C5    D T9001      -0.794   2.487  13.620  1.00 26.27     0.055 A 
HETATM    6  C6    D T9001      -0.829   1.383  14.525  1.00 29.22     0.026 A 
HETATM    7  N7    D T9001      -2.058   3.943  12.100  1.00 25.99    -0.224 NA
HETATM    8  C8    D T9001      -0.894   4.576  11.843  1.00 24.59     0.200 A 
HETATM    9  N9    D T9001       0.307   4.279  12.384  1.00 25.70    -0.205 NA
HETATM   10  C10   D T9001       0.370   3.232  13.281  1.00 27.48     0.166 A 
ENDROOT
BRANCH  10  11
HETATM   11  N14   D T9001       1.626   2.896  13.877  1.00 23.22    -0.227 NA
BRANCH  11  12
HETATM   12  C15   D T9001       2.386   1.720  13.652  1.00 24.25     0.084 A 
HETATM   13  C16   D T9001       2.608   1.206  12.332  1.00 25.06     0.033 A 
HETATM   14  C17   D T9001       3.356   0.037  12.124  1.00 28.28     0.087 A 
HETATM   15  C18   D T9001       3.906  -0.656  13.229  1.00 25.55     0.151 A 
HETATM   16 CL     D T9001       3.574  -0.520  10.509  1.00 31.70    -0.080 Cl
HETATM   17  C19   D T9001       3.706  -0.174  14.548  1.00 24.70     0.032 A 
HETATM   18  F21   D T9001       4.621  -1.776  13.051  1.00 27.22    -0.203 F 
HETATM   19  C20   D T9001       2.948   1.012  14.757  1.00 24.32     0.021 A 
ENDBRANCH  11  12
ENDBRANCH  10  11
BRANCH   1  20
HETATM   20  N13   D T9001      -2.105  -0.428  15.676  1.00 34.61    -0.210 NA
HETATM   21  C26   D T9001      -1.612  -1.688  15.296  1.00 36.24     0.256 C 
HETATM   22  O27   D T9001      -1.087  -1.963  14.215  1.00 39.97    -0.270 OA
BRANCH  21  23
HETATM   23  C24   D T9001      -1.831  -2.737  16.373  1.00 35.38     0.092 C 
BRANCH  23  24
HETATM   24  C23   D T9001      -0.607  -3.652  16.553  1.00 34.93     0.051 C 
BRANCH  24  25
HETATM   25  C25   D T9001      -1.042  -4.945  17.251  1.00 37.23     0.339 C 
HETATM   26  N33   D T9001      -2.544  -5.090  17.228  1.00 41.10     0.618 N 
ENDBRANCH  24  25
ENDBRANCH  23  24
ENDBRANCH  21  23
ENDBRANCH   1  20
BRANCH   2  27
HETATM   27  O11   D T9001      -4.394   0.401  14.527  1.00 31.09    -0.327 OA
HETATM   28  C12   D T9001      -5.250  -0.122  13.508  1.00 29.66     0.181 C 
ENDBRANCH   2  27
TORSDOF 7
ENDMDL
MODEL 4
REMARK VINA RESULT:    -6.952      1.825      5.122
REMARK INTER + INTRA:         -11.111
REMARK INTER:                 -10.141
REMARK INTRA:                  -0.971
REMARK UNBOUND:                -1.314
REMARK  7 active torsions:
REMARK  status: ('A' for Active; 'I' for Inactive)
REMARK    1  A    between atoms: C1_1  and  N13_22 
REMARK    2  A    between atoms: C2_2  and  O11_20 
REMARK    3  A    between atoms: C10_10  and  N14_11 
REMARK    4  A    between atoms: N14_11  and  C15_12 
REMARK       I    between atoms: N13_22  and  C26_23 
REMARK    5  A    between atoms: C26_23  and  C24_24 
REMARK    6  A    between atoms: C24_24  and  C23_25 
REMARK    7  A    between atoms: C23_25  and  C25_26 
ROOT
HETATM    1  C1    D T9001       1.180   2.771  11.545  1.00 30.38     0.107 A 
HETATM    2  C2    D T9001       2.425   2.458  10.899  1.00 29.65     0.113 A 
HETATM    3  C3    D T9001       3.330   1.558  11.544  1.00 28.21     0.045 A 
HETATM    4  C4    D T9001       3.040   0.973  12.794  1.00 27.21     0.088 A 
HETATM    5  C5    D T9001       1.797   1.300  13.449  1.00 26.27     0.055 A 
HETATM    6  C6    D T9001       0.886   2.195  12.810  1.00 29.22     0.026 A 
HETATM    7  N7    D T9001       3.949   0.123  13.332  1.00 25.99    -0.224 NA
HETATM    8  C8    D T9001       3.644  -0.417  14.530  1.00 24.59     0.200 A 
HETATM    9  N9    D T9001       2.522  -0.185  15.244  1.00 25.70    -0.205 NA
HETATM   10  C10   D T9001       1.586   0.678  14.711  1.00 27.48     0.166 A 
ENDROOT
BRANCH  10  11
HETATM   11  N14   D T9001       0.388   0.950  15.445  1.00 23.22    -0.227 NA
BRANCH  11  12
HETATM   12  C15   D T9001      -0.891   0.380  15.224  1.00 24.25     0.084 A 
HETATM   13  C16   D T9001      -1.937   1.105  14.563  1.00 25.06     0.033 A 
HETATM   14  C17   D T9001      -3.200   0.531  14.357  1.00 28.28     0.087 A 
HETATM   15  C18   D T9001      -3.460  -0.787  14.805  1.00 25.55     0.151 A 
HETATM   16 CL     D T9001      -4.407   1.469  13.561  1.00 31.70    -0.080 Cl
HETATM   17  C19   D T9001      -2.447  -1.532  15.461  1.00 24.70     0.032 A 
HETATM   18  F21   D T9001      -4.661  -1.351  14.621  1.00 27.22    -0.203 F 
HETATM   19  C20   D T9001      -1.166  -0.948  15.669  1.00 24.32     0.021 A 
ENDBRANCH  11  12
ENDBRANCH  10  11
BRANCH   1  20
HETATM   20  N13   D T9001       0.281   3.640  10.866  1.00 34.61    -0.210 NA
HETATM   21  C26   D T9001      -0.173   4.836  11.448  1.00 36.24     0.256 C 
HETATM   22  O27   D T9001       0.138   5.262  12.561  1.00 39.97    -0.270 OA
BRANCH  21  23
HETATM   23  C24   D T9001      -1.156   5.570  10.552  1.00 35.38     0.092 C 
BRANCH  23  24
HETATM   24  C23   D T9001      -2.314   4.667  10.094  1.00 34.93     0.051 C 
BRANCH  24  25
HETATM   25  C25   D T9001      -3.279   4.450  11.265  1.00 37.23     0.339 C 
HETATM   26  N33   D T9001      -4.437   3.575  10.855  1.00 41.10     0.618 N 
ENDBRANCH  24  25
ENDBRANCH  23  24
ENDBRANCH  21  23
ENDBRANCH   1  20
BRANCH   2  27
HETATM   27  O11   D T9001       2.627   3.080   9.670  1.00 31.09    -0.327 OA
HETATM   28  C12   D T9001       3.784   3.895   9.463  1.00 29.66     0.181 C 
ENDBRANCH   2  27
TORSDOF 7
ENDMDL
MODEL 5
REMARK VINA RESULT:    -6.722      3.387      7.230
REMARK INTER + INTRA:         -10.787
REMARK INTER:                  -9.826
REMARK INTRA:                  -0.961
REMARK UNBOUND:                -1.314
REMARK  7 active torsions:
REMARK  status: ('A' for Active; 'I' for Inactive)
REMARK    1  A    between atoms: C1_1  and  N13_22 
REMARK    2  A    between atoms: C2_2  and  O11_20 
REMARK    3  A    between atoms: C10_10  and  N14_11 
REMARK    4  A    between atoms: N14_11  and  C15_12 
REMARK       I    between atoms: N13_22  and  C26_23 
REMARK    5  A    between atoms: C26_23  and  C24_24 
REMARK    6  A    between atoms: C24_24  and  C23_25 
REMARK    7  A    between atoms: C23_25  and  C25_26 
ROOT
HETATM    1  C1    D T9001      -2.443   2.000  13.926  1.00 30.38     0.107 A 
HETATM    2  C2    D T9001      -3.650   1.261  14.174  1.00 29.65     0.113 A 
HETATM    3  C3    D T9001      -3.551  -0.080  14.664  1.00 28.21     0.045 A 
HETATM    4  C4    D T9001      -2.307  -0.697  14.907  1.00 27.21     0.088 A 
HETATM    5  C5    D T9001      -1.095   0.040  14.643  1.00 26.27     0.055 A 
HETATM    6  C6    D T9001      -1.185   1.380  14.157  1.00 29.22     0.026 A 
HETATM    7  N7    D T9001      -2.302  -1.968  15.380  1.00 25.99    -0.224 NA
HETATM    8  C8    D T9001      -1.096  -2.532  15.599  1.00 24.59     0.200 A 
HETATM    9  N9    D T9001       0.104  -1.951  15.385  1.00 25.70    -0.205 NA
HETATM   10  C10   D T9001       0.117  -0.658  14.902  1.00 27.48     0.166 A 
ENDROOT
BRANCH  10  11
HETATM   11  N14   D T9001       1.372  -0.015  14.659  1.00 23.22    -0.227 NA
BRANCH  11  12
HETATM   12  C15   D T9001       1.865   0.440  13.411  1.00 24.25     0.084 A 
HETATM   13  C16   D T9001       2.449   1.740  13.258  1.00 25.06     0.033 A 
HETATM   14  C17   D T9001       2.927   2.181  12.015  1.00 28.28     0.087 A 
HETATM   15  C18   D T9001       2.837   1.335  10.883  1.00 25.55     0.151 A 
HETATM   16 CL     D T9001       3.610   3.759  11.912  1.00 31.70    -0.080 Cl
HETATM   17  C19   D T9001       2.266   0.042  10.999  1.00 24.70     0.032 A 
HETATM   18  F21   D T9001       3.285   1.740   9.686  1.00 27.22    -0.203 F 
HETATM   19  C20   D T9001       1.783  -0.403  12.261  1.00 24.32     0.021 A 
ENDBRANCH  11  12
ENDBRANCH  10  11
BRANCH   1  20
HETATM   20  N13   D T9001      -2.569   3.343  13.474  1.00 34.61    -0.210 NA
HETATM   21  C26   D T9001      -2.961   3.647  12.159  1.00 36.24     0.256 C 
HETATM   22  O27   D T9001      -3.234   2.830  11.278  1.00 39.97    -0.270 OA
BRANCH  21  23
HETATM   23  C24   D T9001      -2.981   5.144  11.901  1.00 35.38     0.092 C 
BRANCH  23  24
HETATM   24  C23   D T9001      -2.150   5.535  10.667  1.00 34.93     0.051 C 
BRANCH  24  25
HETATM   25  C25   D T9001      -0.659   5.412  11.003  1.00 37.23     0.339 C 
HETATM   26  N33   D T9001       0.001   4.360  10.146  1.00 41.10     0.618 N 
ENDBRANCH  24  25
ENDBRANCH  23  24
ENDBRANCH  21  23
ENDBRANCH   1  20
BRANCH   2  27
HETATM   27  O11   D T9001      -4.831   1.947  13.905  1.00 31.09    -0.327 OA
HETATM   28  C12   D T9001      -5.929   1.270  13.290  1.00 29.66     0.181 C 
ENDBRANCH   2  27
TORSDOF 7
ENDMDL
MODEL 6
REMARK VINA RESULT:    -6.526      3.926      6.458
REMARK INTER + INTRA:         -10.510
REMARK INTER:                  -9.852
REMARK INTRA:                  -0.658
REMARK UNBOUND:                -1.314
REMARK  7 active torsions:
REMARK  status: ('A' for Active; 'I' for Inactive)
REMARK    1  A    between atoms: C1_1  and  N13_22 
REMARK    2  A    between atoms: C2_2  and  O11_20 
REMARK    3  A    between atoms: C10_10  and  N14_11 
REMARK    4  A    between atoms: N14_11  and  C15_12 
REMARK       I    between atoms: N13_22  and  C26_23 
REMARK    5  A    between atoms: C26_23  and  C24_24 
REMARK    6  A    between atoms: C24_24  and  C23_25 
REMARK    7  A    between atoms: C23_25  and  C25_26 
ROOT
HETATM    1  C1    D T9001      -1.905   1.797  13.799  1.00 30.38     0.107 A 
HETATM    2  C2    D T9001      -3.252   2.071  13.379  1.00 29.65     0.113 A 
HETATM    3  C3    D T9001      -3.477   3.092  12.403  1.00 28.21     0.045 A 
HETATM    4  C4    D T9001      -2.419   3.839  11.845  1.00 27.21     0.088 A 
HETATM    5  C5    D T9001      -1.069   3.574  12.278  1.00 26.27     0.055 A 
HETATM    6  C6    D T9001      -0.835   2.554  13.249  1.00 29.22     0.026 A 
HETATM    7  N7    D T9001      -2.718   4.783  10.918  1.00 25.99    -0.224 NA
HETATM    8  C8    D T9001      -1.685   5.484  10.406  1.00 24.59     0.200 A 
HETATM    9  N9    D T9001      -0.384   5.335  10.735  1.00 25.70    -0.205 NA
HETATM   10  C10   D T9001      -0.062   4.379  11.676  1.00 27.48     0.166 A 
ENDROOT
BRANCH  10  11
HETATM   11  N14   D T9001       1.308   4.200  12.051  1.00 23.22    -0.227 NA
BRANCH  11  12
HETATM   12  C15   D T9001       2.376   3.808  11.206  1.00 24.25     0.084 A 
HETATM   13  C16   D T9001       3.479   4.680  10.930  1.00 25.06     0.033 A 
HETATM   14  C17   D T9001       4.526   4.282  10.085  1.00 28.28     0.087 A 
HETATM   15  C18   D T9001       4.505   2.998   9.490  1.00 25.55     0.151 A 
HETATM   16 CL     D T9001       5.814   5.390   9.797  1.00 31.70    -0.080 Cl
HETATM   17  C19   D T9001       3.429   2.109   9.744  1.00 24.70     0.032 A 
HETATM   18  F21   D T9001       5.494   2.600   8.678  1.00 27.22    -0.203 F 
HETATM   19  C20   D T9001       2.368   2.515  10.601  1.00 24.32     0.021 A 
ENDBRANCH  11  12
ENDBRANCH  10  11
BRANCH   1  20
HETATM   20  N13   D T9001      -1.704   0.752  14.743  1.00 34.61    -0.210 NA
HETATM   21  C26   D T9001      -0.699  -0.216  14.574  1.00 36.24     0.256 C 
HETATM   22  O27   D T9001       0.096  -0.275  13.634  1.00 39.97    -0.270 OA
BRANCH  21  23
HETATM   23  C24   D T9001      -0.708  -1.250  15.686  1.00 35.38     0.092 C 
BRANCH  23  24
HETATM   24  C23   D T9001      -1.789  -2.324  15.476  1.00 34.93     0.051 C 
BRANCH  24  25
HETATM   25  C25   D T9001      -1.123  -3.630  15.029  1.00 37.23     0.339 C 
HETATM   26  N33   D T9001      -0.354  -4.258  16.165  1.00 41.10     0.618 N 
ENDBRANCH  24  25
ENDBRANCH  23  24
ENDBRANCH  21  23
ENDBRANCH   1  20
BRANCH   2  27
HETATM   27  O11   D T9001      -4.231   1.287  13.982  1.00 31.09    -0.327 OA
HETATM   28  C12   D T9001      -4.988   0.360  13.200  1.00 29.66     0.181 C 
ENDBRANCH   2  27
TORSDOF 7
ENDMDL
MODEL 7
REMARK VINA RESULT:    -6.406      2.461      3.260
REMARK INTER + INTRA:         -10.341
REMARK INTER:                  -9.304
REMARK INTRA:                  -1.037
REMARK UNBOUND:                -1.314
REMARK  7 active torsions:
REMARK  status: ('A' for Active; 'I' for Inactive)
REMARK    1  A    between atoms: C1_1  and  N13_22 
REMARK    2  A    between atoms: C2_2  and  O11_20 
REMARK    3  A    between atoms: C10_10  and  N14_11 
REMARK    4  A    between atoms: N14_11  and  C15_12 
REMARK       I    between atoms: N13_22  and  C26_23 
REMARK    5  A    between atoms: C26_23  and  C24_24 
REMARK    6  A    between atoms: C24_24  and  C23_25 
REMARK    7  A    between atoms: C23_25  and  C25_26 
ROOT
HETATM    1  C1    D T9001       2.883   0.210  12.605  1.00 30.38     0.107 A 
HETATM    2  C2    D T9001       3.414   0.432  11.288  1.00 29.65     0.113 A 
HETATM    3  C3    D T9001       2.815   1.434  10.461  1.00 28.21     0.045 A 
HETATM    4  C4    D T9001       1.719   2.206  10.898  1.00 27.21     0.088 A 
HETATM    5  C5    D T9001       1.177   1.973  12.214  1.00 26.27     0.055 A 
HETATM    6  C6    D T9001       1.770   0.977  13.047  1.00 29.22     0.026 A 
HETATM    7  N7    D T9001       1.217   3.142  10.055  1.00 25.99    -0.224 NA
HETATM    8  C8    D T9001       0.166   3.862  10.500  1.00 24.59     0.200 A 
HETATM    9  N9    D T9001      -0.434   3.733  11.703  1.00 25.70    -0.205 NA
HETATM   10  C10   D T9001       0.064   2.784  12.573  1.00 27.48     0.166 A 
ENDROOT
BRANCH  10  11
HETATM   11  N14   D T9001      -0.552   2.617  13.853  1.00 23.22    -0.227 NA
BRANCH  11  12
HETATM   12  C15   D T9001      -1.606   1.727  14.179  1.00 24.25     0.084 A 
HETATM   13  C16   D T9001      -2.924   1.889  13.641  1.00 25.06     0.033 A 
HETATM   14  C17   D T9001      -3.960   1.004  13.977  1.00 28.28     0.087 A 
HETATM   15  C18   D T9001      -3.711  -0.072  14.863  1.00 25.55     0.151 A 
HETATM   16 CL     D T9001      -5.519   1.269  13.294  1.00 31.70    -0.080 Cl
HETATM   17  C19   D T9001      -2.417  -0.262  15.412  1.00 24.70     0.032 A 
HETATM   18  F21   D T9001      -4.688  -0.926  15.199  1.00 27.22    -0.203 F 
HETATM   19  C20   D T9001      -1.368   0.636  15.069  1.00 24.32     0.021 A 
ENDBRANCH  11  12
ENDBRANCH  10  11
BRANCH   1  20
HETATM   20  N13   D T9001       3.518  -0.767  13.421  1.00 34.61    -0.210 NA
HETATM   21  C26   D T9001       4.426  -0.409  14.433  1.00 36.24     0.256 C 
HETATM   22  O27   D T9001       4.766   0.738  14.726  1.00 39.97    -0.270 OA
BRANCH  21  23
HETATM   23  C24   D T9001       5.004  -1.624  15.138  1.00 35.38     0.092 C 
BRANCH  23  24
HETATM   24  C23   D T9001       4.620  -1.672  16.627  1.00 34.93     0.051 C 
BRANCH  24  25
HETATM   25  C25   D T9001       4.225  -3.105  17.001  1.00 37.23     0.339 C 
HETATM   26  N33   D T9001       4.318  -3.318  18.491  1.00 41.10     0.618 N 
ENDBRANCH  24  25
ENDBRANCH  23  24
ENDBRANCH  21  23
ENDBRANCH   1  20
BRANCH   2  27
HETATM   27  O11   D T9001       4.494  -0.375  10.942  1.00 31.09    -0.327 OA
HETATM   28  C12   D T9001       5.798   0.195  10.803  1.00 29.66     0.181 C 
ENDBRANCH   2  27
TORSDOF 7
ENDMDL
MODEL 8
REMARK VINA RESULT:    -6.401      2.971      5.232
REMARK INTER + INTRA:         -10.334
REMARK INTER:                  -9.339
REMARK INTRA:                  -0.995
REMARK UNBOUND:                -1.314
REMARK  7 active torsions:
REMARK  status: ('A' for Active; 'I' for Inactive)
REMARK    1  A    between atoms: C1_1  and  N13_22 
REMARK    2  A    between atoms: C2_2  and  O11_20 
REMARK    3  A    between atoms: C10_10  and  N14_11 
REMARK    4  A    between atoms: N14_11  and  C15_12 
REMARK       I    between atoms: N13_22  and  C26_23 
REMARK    5  A    between atoms: C26_23  and  C24_24 
REMARK    6  A    between atoms: C24_24  and  C23_25 
REMARK    7  A    between atoms: C23_25  and  C25_26 
ROOT
HETATM    1  C1    D T9001       2.191   0.374  12.107  1.00 30.38     0.107 A 
HETATM    2  C2    D T9001       3.592   0.101  12.272  1.00 29.65     0.113 A 
HETATM    3  C3    D T9001       4.543   1.025  11.734  1.00 28.21     0.045 A 
HETATM    4  C4    D T9001       4.147   2.190  11.046  1.00 27.21     0.088 A 
HETATM    5  C5    D T9001       2.741   2.456  10.868  1.00 26.27     0.055 A 
HETATM    6  C6    D T9001       1.784   1.541  11.404  1.00 29.22     0.026 A 
HETATM    7  N7    D T9001       5.113   3.018  10.576  1.00 25.99    -0.224 NA
HETATM    8  C8    D T9001       4.703   4.123   9.918  1.00 24.59     0.200 A 
HETATM    9  N9    D T9001       3.422   4.476   9.681  1.00 25.70    -0.205 NA
HETATM   10  C10   D T9001       2.426   3.645  10.152  1.00 27.48     0.166 A 
ENDROOT
BRANCH  10  11
HETATM   11  N14   D T9001       1.057   3.987   9.913  1.00 23.22    -0.227 NA
BRANCH  11  12
HETATM   12  C15   D T9001       0.058   4.225  10.890  1.00 24.25     0.084 A 
HETATM   13  C16   D T9001      -1.303   3.823  10.691  1.00 25.06     0.033 A 
HETATM   14  C17   D T9001      -2.284   4.070  11.663  1.00 28.28     0.087 A 
HETATM   15  C18   D T9001      -1.935   4.728  12.867  1.00 25.55     0.151 A 
HETATM   16 CL     D T9001      -3.899   3.562  11.346  1.00 31.70    -0.080 Cl
HETATM   17  C19   D T9001      -0.597   5.138  13.097  1.00 24.70     0.032 A 
HETATM   18  F21   D T9001      -2.858   4.977  13.806  1.00 27.22    -0.203 F 
HETATM   19  C20   D T9001       0.396   4.886  12.109  1.00 24.32     0.021 A 
ENDBRANCH  11  12
ENDBRANCH  10  11
BRANCH   1  20
HETATM   20  N13   D T9001       1.265  -0.540  12.682  1.00 34.61    -0.210 NA
HETATM   21  C26   D T9001       0.835  -0.419  14.014  1.00 36.24     0.256 C 
HETATM   22  O27   D T9001       1.188   0.452  14.811  1.00 39.97    -0.270 OA
BRANCH  21  23
HETATM   23  C24   D T9001      -0.117  -1.534  14.411  1.00 35.38     0.092 C 
BRANCH  23  24
HETATM   24  C23   D T9001      -1.104  -1.095  15.508  1.00 34.93     0.051 C 
BRANCH  24  25
HETATM   25  C25   D T9001      -2.224  -0.263  14.875  1.00 37.23     0.339 C 
HETATM   26  N33   D T9001      -3.402  -1.134  14.511  1.00 41.10     0.618 N 
ENDBRANCH  24  25
ENDBRANCH  23  24
ENDBRANCH  21  23
ENDBRANCH   1  20
BRANCH   2  27
HETATM   27  O11   D T9001       3.890  -1.070  12.962  1.00 31.09    -0.327 OA
HETATM   28  C12   D T9001       4.859  -1.054  14.013  1.00 29.66     0.181 C 
ENDBRANCH   2  27
TORSDOF 7
ENDMDL
MODEL 9
REMARK VINA RESULT:    -6.255      2.898      5.471
REMARK INTER + INTRA:         -10.129
REMARK INTER:                  -9.274
REMARK INTRA:                  -0.856
REMARK UNBOUND:                -1.314
REMARK  7 active torsions:
REMARK  status: ('A' for Active; 'I' for Inactive)
REMARK    1  A    between atoms: C1_1  and  N13_22 
REMARK    2  A    between atoms: C2_2  and  O11_20 
REMARK    3  A    between atoms: C10_10  and  N14_11 
REMARK    4  A    between atoms: N14_11  and  C15_12 
REMARK       I    between atoms: N13_22  and  C26_23 
REMARK    5  A    between atoms: C26_23  and  C24_24 
REMARK    6  A    between atoms: C24_24  and  C23_25 
REMARK    7  A    between atoms: C23_25  and  C25_26 
ROOT
HETATM    1  C1    D T9001      -1.013   3.652  12.421  1.00 30.38     0.107 A 
HETATM    2  C2    D T9001      -2.326   3.793  11.856  1.00 29.65     0.113 A 
HETATM    3  C3    D T9001      -3.375   2.940  12.325  1.00 28.21     0.045 A 
HETATM    4  C4    D T9001      -3.157   1.967  13.322  1.00 27.21     0.088 A 
HETATM    5  C5    D T9001      -1.835   1.816  13.878  1.00 26.27     0.055 A 
HETATM    6  C6    D T9001      -0.784   2.665  13.418  1.00 29.22     0.026 A 
HETATM    7  N7    D T9001      -4.209   1.206  13.717  1.00 25.99    -0.224 NA
HETATM    8  C8    D T9001      -3.968   0.281  14.669  1.00 24.59     0.200 A 
HETATM    9  N9    D T9001      -2.778   0.040  15.259  1.00 25.70    -0.205 NA
HETATM   10  C10   D T9001      -1.698   0.804  14.869  1.00 27.48     0.166 A 
ENDROOT
BRANCH  10  11
HETATM   11  N14   D T9001      -0.421   0.570  15.471  1.00 23.22    -0.227 NA
BRANCH  11  12
HETATM   12  C15   D T9001       0.790   0.261  14.801  1.00 24.25     0.084 A 
HETATM   13  C16   D T9001       2.058   0.726  15.281  1.00 25.06     0.033 A 
HETATM   14  C17   D T9001       3.248   0.418  14.605  1.00 28.28     0.087 A 
HETATM   15  C18   D T9001       3.209  -0.365  13.427  1.00 25.55     0.151 A 
HETATM   16 CL     D T9001       4.732   1.020  15.241  1.00 31.70    -0.080 Cl
HETATM   17  C19   D T9001       1.971  -0.843  12.925  1.00 24.70     0.032 A 
HETATM   18  F21   D T9001       4.335  -0.667  12.765  1.00 27.22    -0.203 F 
HETATM   19  C20   D T9001       0.766  -0.530  13.613  1.00 24.32     0.021 A 
ENDBRANCH  11  12
ENDBRANCH  10  11
BRANCH   1  20
HETATM   20  N13   D T9001       0.004   4.536  11.964  1.00 34.61    -0.210 NA
HETATM   21  C26   D T9001       1.045   4.096  11.128  1.00 36.24     0.256 C 
HETATM   22  O27   D T9001       1.198   2.949  10.706  1.00 39.97    -0.270 OA
BRANCH  21  23
HETATM   23  C24   D T9001       2.030   5.208  10.809  1.00 35.38     0.092 C 
BRANCH  23  24
HETATM   24  C23   D T9001       3.245   4.701  10.012  1.00 34.93     0.051 C 
BRANCH  24  25
HETATM   25  C25   D T9001       4.434   4.523  10.963  1.00 37.23     0.339 C 
HETATM   26  N33   D T9001       4.904   3.089  10.974  1.00 41.10     0.618 N 
ENDBRANCH  24  25
ENDBRANCH  23  24
ENDBRANCH  21  23
ENDBRANCH   1  20
BRANCH   2  27
HETATM   27  O11   D T9001      -2.448   4.777  10.879  1.00 31.09    -0.327 OA
HETATM   28  C12   D T9001      -3.743   5.169  10.416  1.00 29.66     0.181 C 
ENDBRANCH   2  27
TORSDOF 7
ENDMDL
