MODEL 1
REMARK VINA RESULT:    -7.902      0.000      0.000
REMARK INTER + INTRA:         -12.274
REMARK INTER:                 -11.135
REMARK INTRA:                  -1.139
REMARK UNBOUND:                -1.139
REMARK  7 active torsions:
REMARK  status: ('A' for Active; 'I' for Inactive)
REMARK    1  A    between atoms: C1_1  and  N13_22 
REMARK    2  A    between atoms: C2_2  and  O11_20 
REMARK    3  A    between atoms: C10_10  and  N14_11 
REMARK    4  A    between atoms: N14_11  and  C15_12 
REMARK       I    between atoms: N13_22  and  C26_23 
REMARK    5  A    between atoms: C26_23  and  C24_24 
REMARK    6  A    between atoms: C24_24  and  C23_25 
REMARK    7  A    between atoms: C23_25  and  C25_26 
ROOT
HETATM    1  C1    D T9001      -2.514  -2.372 -11.880  1.00 30.38     0.107 A 
HETATM    2  C2    D T9001      -3.577  -2.926 -12.670  1.00 29.65     0.113 A 
HETATM    3  C3    D T9001      -4.552  -2.042 -13.232  1.00 28.21     0.045 A 
HETATM    4  C4    D T9001      -4.502  -0.648 -13.030  1.00 27.21     0.088 A 
HETATM    5  C5    D T9001      -3.441  -0.094 -12.224  1.00 26.27     0.055 A 
HETATM    6  C6    D T9001      -2.462  -0.968 -11.661  1.00 29.22     0.026 A 
HETATM    7  N7    D T9001      -5.459   0.120 -13.606  1.00 25.99    -0.224 NA
HETATM    8  C8    D T9001      -5.386   1.450 -13.392  1.00 24.59     0.200 A 
HETATM    9  N9    D T9001      -4.451   2.085 -12.653  1.00 25.70    -0.205 NA
HETATM   10  C10   D T9001      -3.469   1.320 -12.059  1.00 27.48     0.166 A 
ENDROOT
BRANCH  10  11
HETATM   11  N14   D T9001      -2.467   1.960 -11.264  1.00 23.22    -0.227 NA
BRANCH  11  12
HETATM   12  C15   D T9001      -1.272   2.566 -11.730  1.00 24.25     0.084 A 
HETATM   13  C16   D T9001      -0.326   3.159 -10.833  1.00 25.06     0.033 A 
HETATM   14  C17   D T9001       0.849   3.761 -11.309  1.00 28.28     0.087 A 
HETATM   15  C18   D T9001       1.114   3.791 -12.699  1.00 25.55     0.151 A 
HETATM   16 CL     D T9001       1.935   4.457 -10.168  1.00 31.70    -0.080 Cl
HETATM   17  C19   D T9001       0.199   3.213 -13.615  1.00 24.70     0.032 A 
HETATM   18  F21   D T9001       2.229   4.365 -13.174  1.00 27.22    -0.203 F 
HETATM   19  C20   D T9001      -0.991   2.602 -13.130  1.00 24.32     0.021 A 
ENDBRANCH  11  12
ENDBRANCH  10  11
BRANCH   1  20
HETATM   20  N13   D T9001      -1.536  -3.268 -11.361  1.00 34.61    -0.210 NA
HETATM   21  C26   D T9001      -0.336  -3.530 -12.045  1.00 36.24     0.256 C 
HETATM   22  O27   D T9001       0.004  -3.040 -13.124  1.00 39.97    -0.270 OA
BRANCH  21  23
HETATM   23  C24   D T9001       0.525  -4.549 -11.317  1.00 35.38     0.092 C 
BRANCH  23  24
HETATM   24  C23   D T9001       1.021  -4.027  -9.957  1.00 34.93     0.051 C 
BRANCH  24  25
HETATM   25  C25   D T9001       1.812  -2.732 -10.173  1.00 37.23     0.339 C 
HETATM   26  N33   D T9001       2.802  -2.515  -9.056  1.00 41.10     0.618 N 
ENDBRANCH  24  25
ENDBRANCH  23  24
ENDBRANCH  21  23
ENDBRANCH   1  20
BRANCH   2  27
HETATM   27  O11   D T9001      -3.549  -4.310 -12.815  1.00 31.09    -0.327 OA
HETATM   28  C12   D T9001      -3.901  -4.906 -14.067  1.00 29.66     0.181 C 
ENDBRANCH   2  27
TORSDOF 7
ENDMDL
MODEL 2
REMARK VINA RESULT:    -7.811      3.235      6.336
REMARK INTER + INTRA:         -12.147
REMARK INTER:                 -11.129
REMARK INTRA:                  -1.018
REMARK UNBOUND:                -1.139
REMARK  7 active torsions:
REMARK  status: ('A' for Active; 'I' for Inactive)
REMARK    1  A    between atoms: C1_1  and  N13_22 
REMARK    2  A    between atoms: C2_2  and  O11_20 
REMARK    3  A    between atoms: C10_10  and  N14_11 
REMARK    4  A    between atoms: N14_11  and  C15_12 
REMARK       I    between atoms: N13_22  and  C26_23 
REMARK    5  A    between atoms: C26_23  and  C24_24 
REMARK    6  A    between atoms: C24_24  and  C23_25 
REMARK    7  A    between atoms: C23_25  and  C25_26 
ROOT
HETATM    1  C1    D T9001      -4.219   0.570 -12.697  1.00 30.38     0.107 A 
HETATM    2  C2    D T9001      -5.580   0.741 -12.271  1.00 29.65     0.113 A 
HETATM    3  C3    D T9001      -6.334  -0.415 -11.887  1.00 28.21     0.045 A 
HETATM    4  C4    D T9001      -5.782  -1.711 -11.919  1.00 27.21     0.088 A 
HETATM    5  C5    D T9001      -4.419  -1.883 -12.361  1.00 26.27     0.055 A 
HETATM    6  C6    D T9001      -3.659  -0.736 -12.743  1.00 29.22     0.026 A 
HETATM    7  N7    D T9001      -6.561  -2.750 -11.530  1.00 25.99    -0.224 NA
HETATM    8  C8    D T9001      -6.006  -3.980 -11.574  1.00 24.59     0.200 A 
HETATM    9  N9    D T9001      -4.750  -4.269 -11.975  1.00 25.70    -0.205 NA
HETATM   10  C10   D T9001      -3.942  -3.225 -12.375  1.00 27.48     0.166 A 
ENDROOT
BRANCH  10  11
HETATM   11  N14   D T9001      -2.608  -3.497 -12.811  1.00 23.22    -0.227 NA
BRANCH  11  12
HETATM   12  C15   D T9001      -1.463  -3.664 -11.990  1.00 24.25     0.084 A 
HETATM   13  C16   D T9001      -1.010  -2.631 -11.107  1.00 25.06     0.033 A 
HETATM   14  C17   D T9001       0.128  -2.806 -10.306  1.00 28.28     0.087 A 
HETATM   15  C18   D T9001       0.851  -4.022 -10.363  1.00 25.55     0.151 A 
HETATM   16 CL     D T9001       0.613  -1.515  -9.274  1.00 31.70    -0.080 Cl
HETATM   17  C19   D T9001       0.430  -5.066 -11.225  1.00 24.70     0.032 A 
HETATM   18  F21   D T9001       1.943  -4.208  -9.607  1.00 27.22    -0.203 F 
HETATM   19  C20   D T9001      -0.726  -4.885 -12.036  1.00 24.32     0.021 A 
ENDBRANCH  11  12
ENDBRANCH  10  11
BRANCH   1  20
HETATM   20  N13   D T9001      -3.479   1.737 -13.039  1.00 34.61    -0.210 NA
HETATM   21  C26   D T9001      -2.424   2.205 -12.237  1.00 36.24     0.256 C 
HETATM   22  O27   D T9001      -2.026   1.689 -11.191  1.00 39.97    -0.270 OA
BRANCH  21  23
HETATM   23  C24   D T9001      -1.817   3.487 -12.783  1.00 35.38     0.092 C 
BRANCH  23  24
HETATM   24  C23   D T9001      -0.605   3.216 -13.691  1.00 34.93     0.051 C 
BRANCH  24  25
HETATM   25  C25   D T9001       0.609   3.980 -13.150  1.00 37.23     0.339 C 
HETATM   26  N33   D T9001       0.180   5.246 -12.452  1.00 41.10     0.618 N 
ENDBRANCH  24  25
ENDBRANCH  23  24
ENDBRANCH  21  23
ENDBRANCH   1  20
BRANCH   2  27
HETATM   27  O11   D T9001      -6.041   2.053 -12.273  1.00 31.09    -0.327 OA
HETATM   28  C12   D T9001      -6.392   2.691 -11.042  1.00 29.66     0.181 C 
ENDBRANCH   2  27
TORSDOF 7
ENDMDL
MODEL 3
REMARK VINA RESULT:    -7.262      3.897      6.191
REMARK INTER + INTRA:         -11.373
REMARK INTER:                 -10.271
REMARK INTRA:                  -1.101
REMARK UNBOUND:                -1.139
REMARK  7 active torsions:
REMARK  status: ('A' for Active; 'I' for Inactive)
REMARK    1  A    between atoms: C1_1  and  N13_22 
REMARK    2  A    between atoms: C2_2  and  O11_20 
REMARK    3  A    between atoms: C10_10  and  N14_11 
REMARK    4  A    between atoms: N14_11  and  C15_12 
REMARK       I    between atoms: N13_22  and  C26_23 
REMARK    5  A    between atoms: C26_23  and  C24_24 
REMARK    6  A    between atoms: C24_24  and  C23_25 
REMARK    7  A    between atoms: C23_25  and  C25_26 
ROOT
HETATM    1  C1    D T9001      -1.177   0.560 -11.184  1.00 30.38     0.107 A 
HETATM    2  C2    D T9001      -1.002   1.892 -10.677  1.00 29.65     0.113 A 
HETATM    3  C3    D T9001      -1.972   2.890 -11.010  1.00 28.21     0.045 A 
HETATM    4  C4    D T9001      -3.089   2.606 -11.822  1.00 27.21     0.088 A 
HETATM    5  C5    D T9001      -3.256   1.271 -12.343  1.00 26.27     0.055 A 
HETATM    6  C6    D T9001      -2.294   0.268 -12.014  1.00 29.22     0.026 A 
HETATM    7  N7    D T9001      -3.965   3.607 -12.082  1.00 25.99    -0.224 NA
HETATM    8  C8    D T9001      -5.023   3.305 -12.864  1.00 24.59     0.200 A 
HETATM    9  N9    D T9001      -5.283   2.101 -13.416  1.00 25.70    -0.205 NA
HETATM   10  C10   D T9001      -4.402   1.070 -13.163  1.00 27.48     0.166 A 
ENDROOT
BRANCH  10  11
HETATM   11  N14   D T9001      -4.645  -0.217 -13.737  1.00 23.22    -0.227 NA
BRANCH  11  12
HETATM   12  C15   D T9001      -4.901  -1.424 -13.038  1.00 24.25     0.084 A 
HETATM   13  C16   D T9001      -4.157  -2.620 -13.299  1.00 25.06     0.033 A 
HETATM   14  C17   D T9001      -4.426  -3.809 -12.605  1.00 28.28     0.087 A 
HETATM   15  C18   D T9001      -5.450  -3.840 -11.627  1.00 25.55     0.151 A 
HETATM   16 CL     D T9001      -3.492  -5.207 -12.978  1.00 31.70    -0.080 Cl
HETATM   17  C19   D T9001      -6.205  -2.674 -11.344  1.00 24.70     0.032 A 
HETATM   18  F21   D T9001      -5.724  -4.968 -10.955  1.00 27.22    -0.203 F 
HETATM   19  C20   D T9001      -5.929  -1.469 -12.049  1.00 24.32     0.021 A 
ENDBRANCH  11  12
ENDBRANCH  10  11
BRANCH   1  20
HETATM   20  N13   D T9001      -0.219  -0.424 -10.810  1.00 34.61    -0.210 NA
HETATM   21  C26   D T9001      -0.400  -1.242  -9.681  1.00 36.24     0.256 C 
HETATM   22  O27   D T9001      -1.364  -1.213  -8.914  1.00 39.97    -0.270 OA
BRANCH  21  23
HETATM   23  C24   D T9001       0.774  -2.182  -9.462  1.00 35.38     0.092 C 
BRANCH  23  24
HETATM   24  C23   D T9001       1.216  -2.875 -10.763  1.00 34.93     0.051 C 
BRANCH  24  25
HETATM   25  C25   D T9001       0.820  -4.355 -10.705  1.00 37.23     0.339 C 
HETATM   26  N33   D T9001      -0.052  -4.724 -11.878  1.00 41.10     0.618 N 
ENDBRANCH  24  25
ENDBRANCH  23  24
ENDBRANCH  21  23
ENDBRANCH   1  20
BRANCH   2  27
HETATM   27  O11   D T9001       0.128   2.081  -9.887  1.00 31.09    -0.327 OA
HETATM   28  C12   D T9001       0.359   3.346  -9.260  1.00 29.66     0.181 C 
ENDBRANCH   2  27
TORSDOF 7
ENDMDL
MODEL 4
REMARK VINA RESULT:    -7.241      2.137      5.319
REMARK INTER + INTRA:         -11.343
REMARK INTER:                 -10.163
REMARK INTRA:                  -1.179
REMARK UNBOUND:                -1.139
REMARK  7 active torsions:
REMARK  status: ('A' for Active; 'I' for Inactive)
REMARK    1  A    between atoms: C1_1  and  N13_22 
REMARK    2  A    between atoms: C2_2  and  O11_20 
REMARK    3  A    between atoms: C10_10  and  N14_11 
REMARK    4  A    between atoms: N14_11  and  C15_12 
REMARK       I    between atoms: N13_22  and  C26_23 
REMARK    5  A    between atoms: C26_23  and  C24_24 
REMARK    6  A    between atoms: C24_24  and  C23_25 
REMARK    7  A    between atoms: C23_25  and  C25_26 
ROOT
HETATM    1  C1    D T9001      -3.891  -2.369 -12.268  1.00 30.38     0.107 A 
HETATM    2  C2    D T9001      -3.477  -3.659 -12.743  1.00 29.65     0.113 A 
HETATM    3  C3    D T9001      -2.158  -4.120 -12.427  1.00 28.21     0.045 A 
HETATM    4  C4    D T9001      -1.257  -3.346 -11.669  1.00 27.21     0.088 A 
HETATM    5  C5    D T9001      -1.670  -2.043 -11.205  1.00 26.27     0.055 A 
HETATM    6  C6    D T9001      -2.984  -1.576 -11.513  1.00 29.22     0.026 A 
HETATM    7  N7    D T9001      -0.031  -3.860 -11.407  1.00 25.99    -0.224 NA
HETATM    8  C8    D T9001       0.810  -3.093 -10.682  1.00 24.59     0.200 A 
HETATM    9  N9    D T9001       0.545  -1.860 -10.200  1.00 25.70    -0.205 NA
HETATM   10  C10   D T9001      -0.698  -1.320 -10.458  1.00 27.48     0.166 A 
ENDROOT
BRANCH  10  11
HETATM   11  N14   D T9001      -1.009  -0.013  -9.968  1.00 23.22    -0.227 NA
BRANCH  11  12
HETATM   12  C15   D T9001      -0.543   1.222 -10.487  1.00 24.25     0.084 A 
HETATM   13  C16   D T9001      -0.780   1.608 -11.845  1.00 25.06     0.033 A 
HETATM   14  C17   D T9001      -0.307   2.830 -12.347  1.00 28.28     0.087 A 
HETATM   15  C18   D T9001       0.420   3.705 -11.505  1.00 25.55     0.151 A 
HETATM   16 CL     D T9001      -0.628   3.221 -13.994  1.00 31.70    -0.080 Cl
HETATM   17  C19   D T9001       0.673   3.354 -10.155  1.00 24.70     0.032 A 
HETATM   18  F21   D T9001       0.884   4.876 -11.967  1.00 27.22    -0.203 F 
HETATM   19  C20   D T9001       0.191   2.115  -9.648  1.00 24.32     0.021 A 
ENDBRANCH  11  12
ENDBRANCH  10  11
BRANCH   1  20
HETATM   20  N13   D T9001      -5.219  -1.948 -12.564  1.00 34.61    -0.210 NA
HETATM   21  C26   D T9001      -6.267  -2.104 -11.642  1.00 36.24     0.256 C 
HETATM   22  O27   D T9001      -6.174  -2.599 -10.517  1.00 39.97    -0.270 OA
BRANCH  21  23
HETATM   23  C24   D T9001      -7.596  -1.621 -12.200  1.00 35.38     0.092 C 
BRANCH  23  24
HETATM   24  C23   D T9001      -7.423  -0.452 -13.185  1.00 34.93     0.051 C 
BRANCH  24  25
HETATM   25  C25   D T9001      -7.890   0.845 -12.515  1.00 37.23     0.339 C 
HETATM   26  N33   D T9001      -6.793   1.435 -11.664  1.00 41.10     0.618 N 
ENDBRANCH  24  25
ENDBRANCH  23  24
ENDBRANCH  21  23
ENDBRANCH   1  20
BRANCH   2  27
HETATM   27  O11   D T9001      -4.429  -4.353 -13.483  1.00 31.09    -0.327 OA
HETATM   28  C12   D T9001      -4.032  -5.115 -14.626  1.00 29.66     0.181 C 
ENDBRANCH   2  27
TORSDOF 7
ENDMDL
MODEL 5
REMARK VINA RESULT:    -7.100      2.482      5.571
REMARK INTER + INTRA:         -11.144
REMARK INTER:                 -10.106
REMARK INTRA:                  -1.038
REMARK UNBOUND:                -1.139
REMARK  7 active torsions:
REMARK  status: ('A' for Active; 'I' for Inactive)
REMARK    1  A    between atoms: C1_1  and  N13_22 
REMARK    2  A    between atoms: C2_2  and  O11_20 
REMARK    3  A    between atoms: C10_10  and  N14_11 
REMARK    4  A    between atoms: N14_11  and  C15_12 
REMARK       I    between atoms: N13_22  and  C26_23 
REMARK    5  A    between atoms: C26_23  and  C24_24 
REMARK    6  A    between atoms: C24_24  and  C23_25 
REMARK    7  A    between atoms: C23_25  and  C25_26 
ROOT
HETATM    1  C1    D T9001      -3.765  -2.401 -12.074  1.00 30.38     0.107 A 
HETATM    2  C2    D T9001      -3.388  -3.623 -12.727  1.00 29.65     0.113 A 
HETATM    3  C3    D T9001      -2.041  -4.089 -12.596  1.00 28.21     0.045 A 
HETATM    4  C4    D T9001      -1.075  -3.382 -11.851  1.00 27.21     0.088 A 
HETATM    5  C5    D T9001      -1.452  -2.146 -11.208  1.00 26.27     0.055 A 
HETATM    6  C6    D T9001      -2.794  -1.676 -11.330  1.00 29.22     0.026 A 
HETATM    7  N7    D T9001       0.177  -3.897 -11.769  1.00 25.99    -0.224 NA
HETATM    8  C8    D T9001       1.079  -3.196 -11.051  1.00 24.59     0.200 A 
HETATM    9  N9    D T9001       0.852  -2.029 -10.413  1.00 25.70    -0.205 NA
HETATM   10  C10   D T9001      -0.416  -1.489 -10.486  1.00 27.48     0.166 A 
ENDROOT
BRANCH  10  11
HETATM   11  N14   D T9001      -0.689  -0.250  -9.826  1.00 23.22    -0.227 NA
BRANCH  11  12
HETATM   12  C15   D T9001      -0.424   1.053 -10.322  1.00 24.25     0.084 A 
HETATM   13  C16   D T9001      -0.719   1.420 -11.674  1.00 25.06     0.033 A 
HETATM   14  C17   D T9001      -0.446   2.710 -12.154  1.00 28.28     0.087 A 
HETATM   15  C18   D T9001       0.133   3.674 -11.294  1.00 25.55     0.151 A 
HETATM   16 CL     D T9001      -0.825   3.074 -13.794  1.00 31.70    -0.080 Cl
HETATM   17  C19   D T9001       0.438   3.344  -9.949  1.00 24.70     0.032 A 
HETATM   18  F21   D T9001       0.405   4.912 -11.734  1.00 27.22    -0.203 F 
HETATM   19  C20   D T9001       0.159   2.035  -9.466  1.00 24.32     0.021 A 
ENDBRANCH  11  12
ENDBRANCH  10  11
BRANCH   1  20
HETATM   20  N13   D T9001      -5.120  -1.977 -12.189  1.00 34.61    -0.210 NA
HETATM   21  C26   D T9001      -5.507  -0.975 -13.095  1.00 36.24     0.256 C 
HETATM   22  O27   D T9001      -4.760  -0.369 -13.867  1.00 39.97    -0.270 OA
BRANCH  21  23
HETATM   23  C24   D T9001      -6.992  -0.665 -13.005  1.00 35.38     0.092 C 
BRANCH  23  24
HETATM   24  C23   D T9001      -7.776  -1.779 -12.289  1.00 34.93     0.051 C 
BRANCH  24  25
HETATM   25  C25   D T9001      -9.202  -1.291 -12.010  1.00 37.23     0.339 C 
HETATM   26  N33   D T9001     -10.217  -2.189 -12.671  1.00 41.10     0.618 N 
ENDBRANCH  24  25
ENDBRANCH  23  24
ENDBRANCH  21  23
ENDBRANCH   1  20
BRANCH   2  27
HETATM   27  O11   D T9001      -4.404  -4.252 -13.441  1.00 31.09    -0.327 OA
HETATM   28  C12   D T9001      -4.083  -5.092 -14.553  1.00 29.66     0.181 C 
ENDBRANCH   2  27
TORSDOF 7
ENDMDL
MODEL 6
REMARK VINA RESULT:    -7.043      1.921      2.335
REMARK INTER + INTRA:         -11.064
REMARK INTER:                  -9.988
REMARK INTRA:                  -1.076
REMARK UNBOUND:                -1.139
REMARK  7 active torsions:
REMARK  status: ('A' for Active; 'I' for Inactive)
REMARK    1  A    between atoms: C1_1  and  N13_22 
REMARK    2  A    between atoms: C2_2  and  O11_20 
REMARK    3  A    between atoms: C10_10  and  N14_11 
REMARK    4  A    between atoms: N14_11  and  C15_12 
REMARK       I    between atoms: N13_22  and  C26_23 
REMARK    5  A    between atoms: C26_23  and  C24_24 
REMARK    6  A    between atoms: C24_24  and  C23_25 
REMARK    7  A    between atoms: C23_25  and  C25_26 
ROOT
HETATM    1  C1    D T9001      -4.189  -1.386 -12.695  1.00 30.38     0.107 A 
HETATM    2  C2    D T9001      -5.481  -1.608 -12.110  1.00 29.65     0.113 A 
HETATM    3  C3    D T9001      -6.405  -0.517 -12.042  1.00 28.21     0.045 A 
HETATM    4  C4    D T9001      -6.083   0.767 -12.527  1.00 27.21     0.088 A 
HETATM    5  C5    D T9001      -4.779   0.992 -13.102  1.00 26.27     0.055 A 
HETATM    6  C6    D T9001      -3.852  -0.091 -13.177  1.00 29.22     0.026 A 
HETATM    7  N7    D T9001      -7.019   1.743 -12.433  1.00 25.99    -0.224 NA
HETATM    8  C8    D T9001      -6.680   2.961 -12.904  1.00 24.59     0.200 A 
HETATM    9  N9    D T9001      -5.494   3.298 -13.454  1.00 25.70    -0.205 NA
HETATM   10  C10   D T9001      -4.529   2.318 -13.558  1.00 27.48     0.166 A 
ENDROOT
BRANCH  10  11
HETATM   11  N14   D T9001      -3.259   2.642 -14.130  1.00 23.22    -0.227 NA
BRANCH  11  12
HETATM   12  C15   D T9001      -2.093   3.050 -13.433  1.00 24.25     0.084 A 
HETATM   13  C16   D T9001      -2.137   3.459 -12.062  1.00 25.06     0.033 A 
HETATM   14  C17   D T9001      -0.976   3.866 -11.386  1.00 28.28     0.087 A 
HETATM   15  C18   D T9001       0.267   3.878 -12.064  1.00 25.55     0.151 A 
HETATM   16 CL     D T9001      -1.111   4.350  -9.739  1.00 31.70    -0.080 Cl
HETATM   17  C19   D T9001       0.346   3.479 -13.422  1.00 24.70     0.032 A 
HETATM   18  F21   D T9001       1.387   4.268 -11.437  1.00 27.22    -0.203 F 
HETATM   19  C20   D T9001      -0.833   3.065 -14.104  1.00 24.32     0.021 A 
ENDBRANCH  11  12
ENDBRANCH  10  11
BRANCH   1  20
HETATM   20  N13   D T9001      -3.301  -2.495 -12.784  1.00 34.61    -0.210 NA
HETATM   21  C26   D T9001      -2.323  -2.741 -11.804  1.00 36.24     0.256 C 
HETATM   22  O27   D T9001      -2.125  -2.063 -10.794  1.00 39.97    -0.270 OA
BRANCH  21  23
HETATM   23  C24   D T9001      -1.470  -3.953 -12.139  1.00 35.38     0.092 C 
BRANCH  23  24
HETATM   24  C23   D T9001      -0.099  -3.560 -12.715  1.00 34.93     0.051 C 
BRANCH  24  25
HETATM   25  C25   D T9001       0.827  -3.141 -11.568  1.00 37.23     0.339 C 
HETATM   26  N33   D T9001       0.950  -4.244 -10.546  1.00 41.10     0.618 N 
ENDBRANCH  24  25
ENDBRANCH  23  24
ENDBRANCH  21  23
ENDBRANCH   1  20
BRANCH   2  27
HETATM   27  O11   D T9001      -5.711  -2.903 -11.656  1.00 31.09    -0.327 OA
HETATM   28  C12   D T9001      -6.607  -3.762 -12.366  1.00 29.66     0.181 C 
ENDBRANCH   2  27
TORSDOF 7
ENDMDL
MODEL 7
REMARK VINA RESULT:    -6.903      3.132      6.027
REMARK INTER + INTRA:         -10.867
REMARK INTER:                  -9.616
REMARK INTRA:                  -1.251
REMARK UNBOUND:                -1.139
REMARK  7 active torsions:
REMARK  status: ('A' for Active; 'I' for Inactive)
REMARK    1  A    between atoms: C1_1  and  N13_22 
REMARK    2  A    between atoms: C2_2  and  O11_20 
REMARK    3  A    between atoms: C10_10  and  N14_11 
REMARK    4  A    between atoms: N14_11  and  C15_12 
REMARK       I    between atoms: N13_22  and  C26_23 
REMARK    5  A    between atoms: C26_23  and  C24_24 
REMARK    6  A    between atoms: C24_24  and  C23_25 
REMARK    7  A    between atoms: C23_25  and  C25_26 
ROOT
HETATM    1  C1    D T9001      -4.816  -0.875 -12.211  1.00 30.38     0.107 A 
HETATM    2  C2    D T9001      -5.987  -1.707 -12.174  1.00 29.65     0.113 A 
HETATM    3  C3    D T9001      -5.824  -3.129 -12.189  1.00 28.21     0.045 A 
HETATM    4  C4    D T9001      -4.553  -3.736 -12.242  1.00 27.21     0.088 A 
HETATM    5  C5    D T9001      -3.378  -2.899 -12.293  1.00 26.27     0.055 A 
HETATM    6  C6    D T9001      -3.531  -1.479 -12.276  1.00 29.22     0.026 A 
HETATM    7  N7    D T9001      -4.487  -5.090 -12.243  1.00 25.99    -0.224 NA
HETATM    8  C8    D T9001      -3.257  -5.641 -12.298  1.00 24.59     0.200 A 
HETATM    9  N9    D T9001      -2.088  -4.968 -12.357  1.00 25.70    -0.205 NA
HETATM   10  C10   D T9001      -2.135  -3.589 -12.358  1.00 27.48     0.166 A 
ENDROOT
BRANCH  10  11
HETATM   11  N14   D T9001      -0.915  -2.846 -12.426  1.00 23.22    -0.227 NA
BRANCH  11  12
HETATM   12  C15   D T9001      -0.032  -2.562 -11.352  1.00 24.25     0.084 A 
HETATM   13  C16   D T9001      -0.174  -1.384 -10.550  1.00 25.06     0.033 A 
HETATM   14  C17   D T9001       0.711  -1.112  -9.496  1.00 28.28     0.087 A 
HETATM   15  C18   D T9001       1.768  -2.011  -9.211  1.00 25.55     0.151 A 
HETATM   16 CL     D T9001       0.479   0.328  -8.579  1.00 31.70    -0.080 Cl
HETATM   17  C19   D T9001       1.936  -3.186  -9.985  1.00 24.70     0.032 A 
HETATM   18  F21   D T9001       2.626  -1.767  -8.210  1.00 27.22    -0.203 F 
HETATM   19  C20   D T9001       1.037  -3.460 -11.054  1.00 24.32     0.021 A 
ENDBRANCH  11  12
ENDBRANCH  10  11
BRANCH   1  20
HETATM   20  N13   D T9001      -5.002   0.535 -12.159  1.00 34.61    -0.210 NA
HETATM   21  C26   D T9001      -4.821   1.261 -10.969  1.00 36.24     0.256 C 
HETATM   22  O27   D T9001      -4.494   0.793  -9.877  1.00 39.97    -0.270 OA
BRANCH  21  23
HETATM   23  C24   D T9001      -5.118   2.741 -11.152  1.00 35.38     0.092 C 
BRANCH  23  24
HETATM   24  C23   D T9001      -4.311   3.358 -12.308  1.00 34.93     0.051 C 
BRANCH  24  25
HETATM   25  C25   D T9001      -2.832   3.421 -11.911  1.00 37.23     0.339 C 
HETATM   26  N33   D T9001      -1.980   2.644 -12.883  1.00 41.10     0.618 N 
ENDBRANCH  24  25
ENDBRANCH  23  24
ENDBRANCH  21  23
ENDBRANCH   1  20
BRANCH   2  27
HETATM   27  O11   D T9001      -7.198  -1.023 -12.124  1.00 31.09    -0.327 OA
HETATM   28  C12   D T9001      -8.431  -1.745 -12.190  1.00 29.66     0.181 C 
ENDBRANCH   2  27
TORSDOF 7
ENDMDL
MODEL 8
REMARK VINA RESULT:    -6.825      4.166      7.561
REMARK INTER + INTRA:         -10.757
REMARK INTER:                  -9.574
REMARK INTRA:                  -1.183
REMARK UNBOUND:                -1.139
REMARK  7 active torsions:
REMARK  status: ('A' for Active; 'I' for Inactive)
REMARK    1  A    between atoms: C1_1  and  N13_22 
REMARK    2  A    between atoms: C2_2  and  O11_20 
REMARK    3  A    between atoms: C10_10  and  N14_11 
REMARK    4  A    between atoms: N14_11  and  C15_12 
REMARK       I    between atoms: N13_22  and  C26_23 
REMARK    5  A    between atoms: C26_23  and  C24_24 
REMARK    6  A    between atoms: C24_24  and  C23_25 
REMARK    7  A    between atoms: C23_25  and  C25_26 
ROOT
HETATM    1  C1    D T9001      -4.634   1.002 -11.275  1.00 30.38     0.107 A 
HETATM    2  C2    D T9001      -4.964   1.787 -10.119  1.00 29.65     0.113 A 
HETATM    3  C3    D T9001      -3.949   2.034  -9.139  1.00 28.21     0.045 A 
HETATM    4  C4    D T9001      -2.641   1.528  -9.274  1.00 27.21     0.088 A 
HETATM    5  C5    D T9001      -2.314   0.728 -10.430  1.00 26.27     0.055 A 
HETATM    6  C6    D T9001      -3.319   0.478 -11.413  1.00 29.22     0.026 A 
HETATM    7  N7    D T9001      -1.737   1.816  -8.306  1.00 25.99    -0.224 NA
HETATM    8  C8    D T9001      -0.494   1.315  -8.462  1.00 24.59     0.200 A 
HETATM    9  N9    D T9001      -0.070   0.549  -9.489  1.00 25.70    -0.205 NA
HETATM   10  C10   D T9001      -0.976   0.245 -10.485  1.00 27.48     0.166 A 
ENDROOT
BRANCH  10  11
HETATM   11  N14   D T9001      -0.561  -0.569 -11.585  1.00 23.22    -0.227 NA
BRANCH  11  12
HETATM   12  C15   D T9001      -0.496  -1.986 -11.615  1.00 24.25     0.084 A 
HETATM   13  C16   D T9001      -1.574  -2.781 -12.124  1.00 25.06     0.033 A 
HETATM   14  C17   D T9001      -1.499  -4.182 -12.142  1.00 28.28     0.087 A 
HETATM   15  C18   D T9001      -0.342  -4.833 -11.650  1.00 25.55     0.151 A 
HETATM   16 CL     D T9001      -2.838  -5.068 -12.765  1.00 31.70    -0.080 Cl
HETATM   17  C19   D T9001       0.743  -4.077 -11.139  1.00 24.70     0.032 A 
HETATM   18  F21   D T9001      -0.252  -6.171 -11.655  1.00 27.22    -0.203 F 
HETATM   19  C20   D T9001       0.664  -2.656 -11.123  1.00 24.32     0.021 A 
ENDBRANCH  11  12
ENDBRANCH  10  11
BRANCH   1  20
HETATM   20  N13   D T9001      -5.649   0.800 -12.252  1.00 34.61    -0.210 NA
HETATM   21  C26   D T9001      -6.395  -0.390 -12.308  1.00 36.24     0.256 C 
HETATM   22  O27   D T9001      -6.272  -1.358 -11.555  1.00 39.97    -0.270 OA
BRANCH  21  23
HETATM   23  C24   D T9001      -7.387  -0.388 -13.460  1.00 35.38     0.092 C 
BRANCH  23  24
HETATM   24  C23   D T9001      -8.348   0.812 -13.400  1.00 34.93     0.051 C 
BRANCH  24  25
HETATM   25  C25   D T9001      -9.279   0.650 -12.193  1.00 37.23     0.339 C 
HETATM   26  N33   D T9001      -9.509   1.975 -11.510  1.00 41.10     0.618 N 
ENDBRANCH  24  25
ENDBRANCH  23  24
ENDBRANCH  21  23
ENDBRANCH   1  20
BRANCH   2  27
HETATM   27  O11   D T9001      -6.277   2.243 -10.067  1.00 31.09    -0.327 OA
HETATM   28  C12   D T9001      -6.709   3.062  -8.977  1.00 29.66     0.181 C 
ENDBRANCH   2  27
TORSDOF 7
ENDMDL
MODEL 9
REMARK VINA RESULT:    -6.619      3.182      6.370
REMARK INTER + INTRA:         -10.466
REMARK INTER:                  -9.475
REMARK INTRA:                  -0.992
REMARK UNBOUND:                -1.139
REMARK  7 active torsions:
REMARK  status: ('A' for Active; 'I' for Inactive)
REMARK    1  A    between atoms: C1_1  and  N13_22 
REMARK    2  A    between atoms: C2_2  and  O11_20 
REMARK    3  A    between atoms: C10_10  and  N14_11 
REMARK    4  A    between atoms: N14_11  and  C15_12 
REMARK       I    between atoms: N13_22  and  C26_23 
REMARK    5  A    between atoms: C26_23  and  C24_24 
REMARK    6  A    between atoms: C24_24  and  C23_25 
REMARK    7  A    between atoms: C23_25  and  C25_26 
ROOT
HETATM    1  C1    D T9001      -5.201  -1.449 -11.637  1.00 30.38     0.107 A 
HETATM    2  C2    D T9001      -6.096  -2.569 -11.705  1.00 29.65     0.113 A 
HETATM    3  C3    D T9001      -5.551  -3.877 -11.915  1.00 28.21     0.045 A 
HETATM    4  C4    D T9001      -4.166  -4.095 -12.059  1.00 27.21     0.088 A 
HETATM    5  C5    D T9001      -3.269  -2.966 -12.004  1.00 26.27     0.055 A 
HETATM    6  C6    D T9001      -3.803  -1.658 -11.793  1.00 29.22     0.026 A 
HETATM    7  N7    D T9001      -3.732  -5.365 -12.245  1.00 25.99    -0.224 NA
HETATM    8  C8    D T9001      -2.401  -5.542 -12.382  1.00 24.59     0.200 A 
HETATM    9  N9    D T9001      -1.465  -4.570 -12.358  1.00 25.70    -0.205 NA
HETATM   10  C10   D T9001      -1.888  -3.270 -12.171  1.00 27.48     0.166 A 
ENDROOT
BRANCH  10  11
HETATM   11  N14   D T9001      -0.923  -2.215 -12.146  1.00 23.22    -0.227 NA
BRANCH  11  12
HETATM   12  C15   D T9001      -0.675  -1.315 -11.077  1.00 24.25     0.084 A 
HETATM   13  C16   D T9001      -0.632   0.102 -11.278  1.00 25.06     0.033 A 
HETATM   14  C17   D T9001      -0.379   0.980 -10.214  1.00 28.28     0.087 A 
HETATM   15  C18   D T9001      -0.159   0.467  -8.913  1.00 25.55     0.151 A 
HETATM   16 CL     D T9001      -0.339   2.672 -10.536  1.00 31.70    -0.080 Cl
HETATM   17  C19   D T9001      -0.194  -0.931  -8.679  1.00 24.70     0.032 A 
HETATM   18  F21   D T9001       0.088   1.290  -7.883  1.00 27.22    -0.203 F 
HETATM   19  C20   D T9001      -0.452  -1.819  -9.761  1.00 24.32     0.021 A 
ENDBRANCH  11  12
ENDBRANCH  10  11
BRANCH   1  20
HETATM   20  N13   D T9001      -5.763  -0.164 -11.393  1.00 34.61    -0.210 NA
HETATM   21  C26   D T9001      -5.931   0.778 -12.423  1.00 36.24     0.256 C 
HETATM   22  O27   D T9001      -5.630   0.617 -13.607  1.00 39.97    -0.270 OA
BRANCH  21  23
HETATM   23  C24   D T9001      -6.509   2.088 -11.910  1.00 35.38     0.092 C 
BRANCH  23  24
HETATM   24  C23   D T9001      -7.858   2.425 -12.567  1.00 34.93     0.051 C 
BRANCH  24  25
HETATM   25  C25   D T9001      -8.989   2.118 -11.579  1.00 37.23     0.339 C 
HETATM   26  N33   D T9001      -9.759   0.893 -12.007  1.00 41.10     0.618 N 
ENDBRANCH  24  25
ENDBRANCH  23  24
ENDBRANCH  21  23
ENDBRANCH   1  20
BRANCH   2  27
HETATM   27  O11   D T9001      -7.444  -2.261 -11.555  1.00 31.09    -0.327 OA
HETATM   28  C12   D T9001      -8.319  -2.301 -12.686  1.00 29.66     0.181 C 
ENDBRANCH   2  27
TORSDOF 7
ENDMDL
