MODEL 1
REMARK VINA RESULT:    -7.263      0.000      0.000
REMARK INTER + INTRA:         -11.197
REMARK INTER:                 -10.235
REMARK INTRA:                  -0.961
REMARK UNBOUND:                -0.961
REMARK  7 active torsions:
REMARK  status: ('A' for Active; 'I' for Inactive)
REMARK    1  A    between atoms: C1_1  and  N13_22 
REMARK    2  A    between atoms: C2_2  and  O11_20 
REMARK    3  A    between atoms: C10_10  and  N14_11 
REMARK    4  A    between atoms: N14_11  and  C15_12 
REMARK       I    between atoms: N13_22  and  C26_23 
REMARK    5  A    between atoms: C26_23  and  C24_24 
REMARK    6  A    between atoms: C24_24  and  C23_25 
REMARK    7  A    between atoms: C23_25  and  C25_26 
ROOT
HETATM    1  C1    D T9001       1.024   4.776  12.671  1.00 30.38     0.107 A 
HETATM    2  C2    D T9001       0.372   3.514  12.893  1.00 29.65     0.113 A 
HETATM    3  C3    D T9001      -0.865   3.248  12.226  1.00 28.21     0.045 A 
HETATM    4  C4    D T9001      -1.465   4.187  11.361  1.00 27.21     0.088 A 
HETATM    5  C5    D T9001      -0.817   5.459  11.150  1.00 26.27     0.055 A 
HETATM    6  C6    D T9001       0.420   5.732  11.809  1.00 29.22     0.026 A 
HETATM    7  N7    D T9001      -2.633   3.852  10.761  1.00 25.99    -0.224 NA
HETATM    8  C8    D T9001      -3.184   4.772   9.942  1.00 24.59     0.200 A 
HETATM    9  N9    D T9001      -2.683   5.996   9.671  1.00 25.70    -0.205 NA
HETATM   10  C10   D T9001      -1.495   6.354  10.273  1.00 27.48     0.166 A 
ENDROOT
BRANCH  10  11
HETATM   11  N14   D T9001      -0.937   7.646  10.012  1.00 23.22    -0.227 NA
BRANCH  11  12
HETATM   12  C15   D T9001      -0.162   8.024   8.885  1.00 24.25     0.084 A 
HETATM   13  C16   D T9001      -0.744   8.689   7.758  1.00 25.06     0.033 A 
HETATM   14  C17   D T9001       0.034   9.050   6.647  1.00 28.28     0.087 A 
HETATM   15  C18   D T9001       1.419   8.758   6.629  1.00 25.55     0.151 A 
HETATM   16 CL     D T9001      -0.740   9.842   5.328  1.00 31.70    -0.080 Cl
HETATM   17  C19   D T9001       2.026   8.101   7.730  1.00 24.70     0.032 A 
HETATM   18  F21   D T9001       2.178   9.093   5.576  1.00 27.22    -0.203 F 
HETATM   19  C20   D T9001       1.236   7.736   8.855  1.00 24.32     0.021 A 
ENDBRANCH  11  12
ENDBRANCH  10  11
BRANCH   1  20
HETATM   20  N13   D T9001       2.271   5.002  13.317  1.00 34.61    -0.210 NA
HETATM   21  C26   D T9001       3.475   5.072  12.597  1.00 36.24     0.256 C 
HETATM   22  O27   D T9001       3.597   4.956  11.377  1.00 39.97    -0.270 OA
BRANCH  21  23
HETATM   23  C24   D T9001       4.675   5.279  13.508  1.00 35.38     0.092 C 
BRANCH  23  24
HETATM   24  C23   D T9001       5.727   4.168  13.345  1.00 34.93     0.051 C 
BRANCH  24  25
HETATM   25  C25   D T9001       5.251   2.912  14.082  1.00 37.23     0.339 C 
HETATM   26  N33   D T9001       4.513   1.987  13.146  1.00 41.10     0.618 N 
ENDBRANCH  24  25
ENDBRANCH  23  24
ENDBRANCH  21  23
ENDBRANCH   1  20
BRANCH   2  27
HETATM   27  O11   D T9001       1.035   2.652  13.762  1.00 31.09    -0.327 OA
HETATM   28  C12   D T9001       0.336   1.550  14.348  1.00 29.66     0.181 C 
ENDBRANCH   2  27
TORSDOF 7
ENDMDL
MODEL 2
REMARK VINA RESULT:    -7.230      2.274      2.914
REMARK INTER + INTRA:         -11.150
REMARK INTER:                 -10.589
REMARK INTRA:                  -0.561
REMARK UNBOUND:                -0.961
REMARK  7 active torsions:
REMARK  status: ('A' for Active; 'I' for Inactive)
REMARK    1  A    between atoms: C1_1  and  N13_22 
REMARK    2  A    between atoms: C2_2  and  O11_20 
REMARK    3  A    between atoms: C10_10  and  N14_11 
REMARK    4  A    between atoms: N14_11  and  C15_12 
REMARK       I    between atoms: N13_22  and  C26_23 
REMARK    5  A    between atoms: C26_23  and  C24_24 
REMARK    6  A    between atoms: C24_24  and  C23_25 
REMARK    7  A    between atoms: C23_25  and  C25_26 
ROOT
HETATM    1  C1    D T9001      -0.131   4.185  12.094  1.00 30.38     0.107 A 
HETATM    2  C2    D T9001      -1.486   3.786  11.830  1.00 29.65     0.113 A 
HETATM    3  C3    D T9001      -2.278   4.576  10.938  1.00 28.21     0.045 A 
HETATM    4  C4    D T9001      -1.770   5.733  10.313  1.00 27.21     0.088 A 
HETATM    5  C5    D T9001      -0.414   6.142  10.590  1.00 26.27     0.055 A 
HETATM    6  C6    D T9001       0.385   5.358  11.477  1.00 29.22     0.026 A 
HETATM    7  N7    D T9001      -2.584   6.420   9.474  1.00 25.99    -0.224 NA
HETATM    8  C8    D T9001      -2.070   7.525   8.894  1.00 24.59     0.200 A 
HETATM    9  N9    D T9001      -0.825   8.013   9.079  1.00 25.70    -0.205 NA
HETATM   10  C10   D T9001       0.016   7.328   9.930  1.00 27.48     0.166 A 
ENDROOT
BRANCH  10  11
HETATM   11  N14   D T9001       1.342   7.820  10.152  1.00 23.22    -0.227 NA
BRANCH  11  12
HETATM   12  C15   D T9001       2.132   8.570   9.243  1.00 24.25     0.084 A 
HETATM   13  C16   D T9001       2.862   9.730   9.657  1.00 25.06     0.033 A 
HETATM   14  C17   D T9001       3.633  10.467   8.745  1.00 28.28     0.087 A 
HETATM   15  C18   D T9001       3.701  10.065   7.390  1.00 25.55     0.151 A 
HETATM   16 CL     D T9001       4.477  11.855   9.318  1.00 31.70    -0.080 Cl
HETATM   17  C19   D T9001       2.990   8.919   6.947  1.00 24.70     0.032 A 
HETATM   18  F21   D T9001       4.430  10.756   6.502  1.00 27.22    -0.203 F 
HETATM   19  C20   D T9001       2.209   8.173   7.874  1.00 24.32     0.021 A 
ENDBRANCH  11  12
ENDBRANCH  10  11
BRANCH   1  20
HETATM   20  N13   D T9001       0.647   3.364  12.956  1.00 34.61    -0.210 NA
HETATM   21  C26   D T9001       1.419   3.908  13.998  1.00 36.24     0.256 C 
HETATM   22  O27   D T9001       1.510   5.102  14.283  1.00 39.97    -0.270 OA
BRANCH  21  23
HETATM   23  C24   D T9001       2.193   2.840  14.752  1.00 35.38     0.092 C 
BRANCH  23  24
HETATM   24  C23   D T9001       3.714   3.067  14.686  1.00 34.93     0.051 C 
BRANCH  24  25
HETATM   25  C25   D T9001       4.221   2.667  13.296  1.00 37.23     0.339 C 
HETATM   26  N33   D T9001       4.832   3.850  12.585  1.00 41.10     0.618 N 
ENDBRANCH  24  25
ENDBRANCH  23  24
ENDBRANCH  21  23
ENDBRANCH   1  20
BRANCH   2  27
HETATM   27  O11   D T9001      -1.902   2.633  12.490  1.00 31.09    -0.327 OA
HETATM   28  C12   D T9001      -2.251   1.466  11.740  1.00 29.66     0.181 C 
ENDBRANCH   2  27
TORSDOF 7
ENDMDL
MODEL 3
REMARK VINA RESULT:    -7.202      4.389      7.860
REMARK INTER + INTRA:         -11.111
REMARK INTER:                 -10.514
REMARK INTRA:                  -0.597
REMARK UNBOUND:                -0.961
REMARK  7 active torsions:
REMARK  status: ('A' for Active; 'I' for Inactive)
REMARK    1  A    between atoms: C1_1  and  N13_22 
REMARK    2  A    between atoms: C2_2  and  O11_20 
REMARK    3  A    between atoms: C10_10  and  N14_11 
REMARK    4  A    between atoms: N14_11  and  C15_12 
REMARK       I    between atoms: N13_22  and  C26_23 
REMARK    5  A    between atoms: C26_23  and  C24_24 
REMARK    6  A    between atoms: C24_24  and  C23_25 
REMARK    7  A    between atoms: C23_25  and  C25_26 
ROOT
HETATM    1  C1    D T9001      -0.257   5.812  11.021  1.00 30.38     0.107 A 
HETATM    2  C2    D T9001      -1.448   5.090  10.667  1.00 29.65     0.113 A 
HETATM    3  C3    D T9001      -1.718   3.843  11.316  1.00 28.21     0.045 A 
HETATM    4  C4    D T9001      -0.851   3.303  12.287  1.00 27.21     0.088 A 
HETATM    5  C5    D T9001       0.352   4.021  12.631  1.00 26.27     0.055 A 
HETATM    6  C6    D T9001       0.629   5.268  11.991  1.00 29.22     0.026 A 
HETATM    7  N7    D T9001      -1.186   2.121  12.860  1.00 25.99    -0.224 NA
HETATM    8  C8    D T9001      -0.334   1.627  13.784  1.00 24.59     0.200 A 
HETATM    9  N9    D T9001       0.823   2.198  14.183  1.00 25.70    -0.205 NA
HETATM   10  C10   D T9001       1.179   3.401  13.610  1.00 27.48     0.166 A 
ENDROOT
BRANCH  10  11
HETATM   11  N14   D T9001       2.401   4.031  14.007  1.00 23.22    -0.227 NA
BRANCH  11  12
HETATM   12  C15   D T9001       3.599   3.385  14.408  1.00 24.25     0.084 A 
HETATM   13  C16   D T9001       3.656   2.561  15.578  1.00 25.06     0.033 A 
HETATM   14  C17   D T9001       4.850   1.934  15.967  1.00 28.28     0.087 A 
HETATM   15  C18   D T9001       6.024   2.111  15.198  1.00 25.55     0.151 A 
HETATM   16 CL     D T9001       4.840   0.964  17.391  1.00 31.70    -0.080 Cl
HETATM   17  C19   D T9001       6.001   2.920  14.033  1.00 24.70     0.032 A 
HETATM   18  F21   D T9001       7.175   1.523  15.554  1.00 27.22    -0.203 F 
HETATM   19  C20   D T9001       4.790   3.554  13.639  1.00 24.32     0.021 A 
ENDBRANCH  11  12
ENDBRANCH  10  11
BRANCH   1  20
HETATM   20  N13   D T9001      -0.029   7.066  10.388  1.00 34.61    -0.210 NA
HETATM   21  C26   D T9001       1.059   7.270   9.522  1.00 36.24     0.256 C 
HETATM   22  O27   D T9001       1.906   6.430   9.213  1.00 39.97    -0.270 OA
BRANCH  21  23
HETATM   23  C24   D T9001       1.117   8.698   9.004  1.00 35.38     0.092 C 
BRANCH  23  24
HETATM   24  C23   D T9001       1.140   8.759   7.467  1.00 34.93     0.051 C 
BRANCH  24  25
HETATM   25  C25   D T9001      -0.286   8.580   6.935  1.00 37.23     0.339 C 
HETATM   26  N33   D T9001      -1.257   9.452   7.695  1.00 41.10     0.618 N 
ENDBRANCH  24  25
ENDBRANCH  23  24
ENDBRANCH  21  23
ENDBRANCH   1  20
BRANCH   2  27
HETATM   27  O11   D T9001      -2.243   5.698   9.700  1.00 31.09    -0.327 OA
HETATM   28  C12   D T9001      -3.347   4.987   9.131  1.00 29.66     0.181 C 
ENDBRANCH   2  27
TORSDOF 7
ENDMDL
MODEL 4
REMARK VINA RESULT:    -7.175      3.228      6.614
REMARK INTER + INTRA:         -11.072
REMARK INTER:                 -10.182
REMARK INTRA:                  -0.890
REMARK UNBOUND:                -0.961
REMARK  7 active torsions:
REMARK  status: ('A' for Active; 'I' for Inactive)
REMARK    1  A    between atoms: C1_1  and  N13_22 
REMARK    2  A    between atoms: C2_2  and  O11_20 
REMARK    3  A    between atoms: C10_10  and  N14_11 
REMARK    4  A    between atoms: N14_11  and  C15_12 
REMARK       I    between atoms: N13_22  and  C26_23 
REMARK    5  A    between atoms: C26_23  and  C24_24 
REMARK    6  A    between atoms: C24_24  and  C23_25 
REMARK    7  A    between atoms: C23_25  and  C25_26 
ROOT
HETATM    1  C1    D T9001      -1.758   5.036  10.647  1.00 30.38     0.107 A 
HETATM    2  C2    D T9001      -2.544   4.009  10.021  1.00 29.65     0.113 A 
HETATM    3  C3    D T9001      -2.430   2.665  10.498  1.00 28.21     0.045 A 
HETATM    4  C4    D T9001      -1.568   2.318  11.559  1.00 27.21     0.088 A 
HETATM    5  C5    D T9001      -0.768   3.348  12.177  1.00 26.27     0.055 A 
HETATM    6  C6    D T9001      -0.878   4.693  11.709  1.00 29.22     0.026 A 
HETATM    7  N7    D T9001      -1.526   1.023  11.956  1.00 25.99    -0.224 NA
HETATM    8  C8    D T9001      -0.689   0.722  12.971  1.00 24.59     0.200 A 
HETATM    9  N9    D T9001       0.114   1.591  13.622  1.00 25.70    -0.205 NA
HETATM   10  C10   D T9001       0.085   2.913  13.230  1.00 27.48     0.166 A 
ENDROOT
BRANCH  10  11
HETATM   11  N14   D T9001       0.927   3.860  13.896  1.00 23.22    -0.227 NA
BRANCH  11  12
HETATM   12  C15   D T9001       2.216   4.286  13.485  1.00 24.25     0.084 A 
HETATM   13  C16   D T9001       2.530   5.671  13.303  1.00 25.06     0.033 A 
HETATM   14  C17   D T9001       3.808   6.078  12.887  1.00 28.28     0.087 A 
HETATM   15  C18   D T9001       4.812   5.111  12.643  1.00 25.55     0.151 A 
HETATM   16 CL     D T9001       4.106   7.762  12.684  1.00 31.70    -0.080 Cl
HETATM   17  C19   D T9001       4.534   3.731  12.815  1.00 24.70     0.032 A 
HETATM   18  F21   D T9001       6.038   5.479  12.243  1.00 27.22    -0.203 F 
HETATM   19  C20   D T9001       3.238   3.321  13.237  1.00 24.32     0.021 A 
ENDBRANCH  11  12
ENDBRANCH  10  11
BRANCH   1  20
HETATM   20  N13   D T9001      -1.916   6.371  10.179  1.00 34.61    -0.210 NA
HETATM   21  C26   D T9001      -0.811   7.174   9.849  1.00 36.24     0.256 C 
HETATM   22  O27   D T9001       0.373   6.840   9.916  1.00 39.97    -0.270 OA
BRANCH  21  23
HETATM   23  C24   D T9001      -1.229   8.570   9.416  1.00 35.38     0.092 C 
BRANCH  23  24
HETATM   24  C23   D T9001      -1.732   8.602   7.962  1.00 34.93     0.051 C 
BRANCH  24  25
HETATM   25  C25   D T9001      -0.536   8.785   7.021  1.00 37.23     0.339 C 
HETATM   26  N33   D T9001       0.473   9.738   7.612  1.00 41.10     0.618 N 
ENDBRANCH  24  25
ENDBRANCH  23  24
ENDBRANCH  21  23
ENDBRANCH   1  20
BRANCH   2  27
HETATM   27  O11   D T9001      -3.365   4.442   8.983  1.00 31.09    -0.327 OA
HETATM   28  C12   D T9001      -4.783   4.484   9.163  1.00 29.66     0.181 C 
ENDBRANCH   2  27
TORSDOF 7
ENDMDL
MODEL 5
REMARK VINA RESULT:    -7.035      4.866      7.386
REMARK INTER + INTRA:         -10.875
REMARK INTER:                  -9.817
REMARK INTRA:                  -1.058
REMARK UNBOUND:                -0.961
REMARK  7 active torsions:
REMARK  status: ('A' for Active; 'I' for Inactive)
REMARK    1  A    between atoms: C1_1  and  N13_22 
REMARK    2  A    between atoms: C2_2  and  O11_20 
REMARK    3  A    between atoms: C10_10  and  N14_11 
REMARK    4  A    between atoms: N14_11  and  C15_12 
REMARK       I    between atoms: N13_22  and  C26_23 
REMARK    5  A    between atoms: C26_23  and  C24_24 
REMARK    6  A    between atoms: C24_24  and  C23_25 
REMARK    7  A    between atoms: C23_25  and  C25_26 
ROOT
HETATM    1  C1    D T9001       5.015   2.007  15.608  1.00 30.38     0.107 A 
HETATM    2  C2    D T9001       6.260   2.431  15.029  1.00 29.65     0.113 A 
HETATM    3  C3    D T9001       6.243   3.449  14.023  1.00 28.21     0.045 A 
HETATM    4  C4    D T9001       5.044   4.045  13.583  1.00 27.21     0.088 A 
HETATM    5  C5    D T9001       3.793   3.608  14.154  1.00 26.27     0.055 A 
HETATM    6  C6    D T9001       3.800   2.595  15.161  1.00 29.22     0.026 A 
HETATM    7  N7    D T9001       5.117   5.009  12.633  1.00 25.99    -0.224 NA
HETATM    8  C8    D T9001       3.952   5.558  12.229  1.00 24.59     0.200 A 
HETATM    9  N9    D T9001       2.721   5.230  12.679  1.00 25.70    -0.205 NA
HETATM   10  C10   D T9001       2.628   4.250  13.646  1.00 27.48     0.166 A 
ENDROOT
BRANCH  10  11
HETATM   11  N14   D T9001       1.339   3.875  14.141  1.00 23.22    -0.227 NA
BRANCH  11  12
HETATM   12  C15   D T9001       0.352   3.122  13.456  1.00 24.25     0.084 A 
HETATM   13  C16   D T9001      -0.531   3.726  12.504  1.00 25.06     0.033 A 
HETATM   14  C17   D T9001      -1.509   2.969  11.839  1.00 28.28     0.087 A 
HETATM   15  C18   D T9001      -1.633   1.585  12.104  1.00 25.55     0.151 A 
HETATM   16 CL     D T9001      -2.538   3.769  10.712  1.00 31.70    -0.080 Cl
HETATM   17  C19   D T9001      -0.773   0.956  13.040  1.00 24.70     0.032 A 
HETATM   18  F21   D T9001      -2.562   0.845  11.481  1.00 27.22    -0.203 F 
HETATM   19  C20   D T9001       0.218   1.724  13.713  1.00 24.32     0.021 A 
ENDBRANCH  11  12
ENDBRANCH  10  11
BRANCH   1  20
HETATM   20  N13   D T9001       5.061   1.020  16.631  1.00 34.61    -0.210 NA
HETATM   21  C26   D T9001       5.268   1.360  17.979  1.00 36.24     0.256 C 
HETATM   22  O27   D T9001       5.424   2.498  18.422  1.00 39.97    -0.270 OA
BRANCH  21  23
HETATM   23  C24   D T9001       5.320   0.134  18.876  1.00 35.38     0.092 C 
BRANCH  23  24
HETATM   24  C23   D T9001       6.673  -0.594  18.789  1.00 34.93     0.051 C 
BRANCH  24  25
HETATM   25  C25   D T9001       7.614  -0.035  19.861  1.00 37.23     0.339 C 
HETATM   26  N33   D T9001       8.594   0.944  19.260  1.00 41.10     0.618 N 
ENDBRANCH  24  25
ENDBRANCH  23  24
ENDBRANCH  21  23
ENDBRANCH   1  20
BRANCH   2  27
HETATM   27  O11   D T9001       7.392   1.788  15.523  1.00 31.09    -0.327 OA
HETATM   28  C12   D T9001       8.502   2.557  15.995  1.00 29.66     0.181 C 
ENDBRANCH   2  27
TORSDOF 7
ENDMDL
MODEL 6
REMARK VINA RESULT:    -7.028      3.002      3.974
REMARK INTER + INTRA:         -10.866
REMARK INTER:                  -9.728
REMARK INTRA:                  -1.138
REMARK UNBOUND:                -0.961
REMARK  7 active torsions:
REMARK  status: ('A' for Active; 'I' for Inactive)
REMARK    1  A    between atoms: C1_1  and  N13_22 
REMARK    2  A    between atoms: C2_2  and  O11_20 
REMARK    3  A    between atoms: C10_10  and  N14_11 
REMARK    4  A    between atoms: N14_11  and  C15_12 
REMARK       I    between atoms: N13_22  and  C26_23 
REMARK    5  A    between atoms: C26_23  and  C24_24 
REMARK    6  A    between atoms: C24_24  and  C23_25 
REMARK    7  A    between atoms: C23_25  and  C25_26 
ROOT
HETATM    1  C1    D T9001       1.422   5.979  10.563  1.00 30.38     0.107 A 
HETATM    2  C2    D T9001       0.097   5.813  11.094  1.00 29.65     0.113 A 
HETATM    3  C3    D T9001      -0.973   6.583  10.536  1.00 28.21     0.045 A 
HETATM    4  C4    D T9001      -0.765   7.499   9.485  1.00 27.21     0.088 A 
HETATM    5  C5    D T9001       0.569   7.676   8.962  1.00 26.27     0.055 A 
HETATM    6  C6    D T9001       1.642   6.909   9.510  1.00 29.22     0.026 A 
HETATM    7  N7    D T9001      -1.834   8.182   9.007  1.00 25.99    -0.224 NA
HETATM    8  C8    D T9001      -1.603   9.054   8.004  1.00 24.59     0.200 A 
HETATM    9  N9    D T9001      -0.405   9.314   7.438  1.00 25.70    -0.205 NA
HETATM   10  C10   D T9001       0.694   8.629   7.912  1.00 27.48     0.166 A 
ENDROOT
BRANCH  10  11
HETATM   11  N14   D T9001       1.980   8.883   7.337  1.00 23.22    -0.227 NA
BRANCH  11  12
HETATM   12  C15   D T9001       2.878   9.923   7.692  1.00 24.25     0.084 A 
HETATM   13  C16   D T9001       4.256   9.896   7.301  1.00 25.06     0.033 A 
HETATM   14  C17   D T9001       5.134  10.927   7.666  1.00 28.28     0.087 A 
HETATM   15  C18   D T9001       4.662  12.020   8.432  1.00 25.55     0.151 A 
HETATM   16 CL     D T9001       6.779  10.819   7.164  1.00 31.70    -0.080 Cl
HETATM   17  C19   D T9001       3.303  12.077   8.834  1.00 24.70     0.032 A 
HETATM   18  F21   D T9001       5.487  13.014   8.794  1.00 27.22    -0.203 F 
HETATM   19  C20   D T9001       2.414  11.031   8.463  1.00 24.32     0.021 A 
ENDBRANCH  11  12
ENDBRANCH  10  11
BRANCH   1  20
HETATM   20  N13   D T9001       2.462   5.176  11.110  1.00 34.61    -0.210 NA
HETATM   21  C26   D T9001       3.265   5.629  12.170  1.00 36.24     0.256 C 
HETATM   22  O27   D T9001       3.172   6.720  12.734  1.00 39.97    -0.270 OA
BRANCH  21  23
HETATM   23  C24   D T9001       4.332   4.616  12.552  1.00 35.38     0.092 C 
BRANCH  23  24
HETATM   24  C23   D T9001       3.726   3.269  12.986  1.00 34.93     0.051 C 
BRANCH  24  25
HETATM   25  C25   D T9001       3.043   3.441  14.347  1.00 37.23     0.339 C 
HETATM   26  N33   D T9001       1.689   2.773  14.357  1.00 41.10     0.618 N 
ENDBRANCH  24  25
ENDBRANCH  23  24
ENDBRANCH  21  23
ENDBRANCH   1  20
BRANCH   2  27
HETATM   27  O11   D T9001      -0.014   4.889  12.129  1.00 31.09    -0.327 OA
HETATM   28  C12   D T9001      -0.951   3.813  12.030  1.00 29.66     0.181 C 
ENDBRANCH   2  27
TORSDOF 7
ENDMDL
MODEL 7
REMARK VINA RESULT:    -6.994      4.526      7.838
REMARK INTER + INTRA:         -10.818
REMARK INTER:                  -9.675
REMARK INTRA:                  -1.143
REMARK UNBOUND:                -0.961
REMARK  7 active torsions:
REMARK  status: ('A' for Active; 'I' for Inactive)
REMARK    1  A    between atoms: C1_1  and  N13_22 
REMARK    2  A    between atoms: C2_2  and  O11_20 
REMARK    3  A    between atoms: C10_10  and  N14_11 
REMARK    4  A    between atoms: N14_11  and  C15_12 
REMARK       I    between atoms: N13_22  and  C26_23 
REMARK    5  A    between atoms: C26_23  and  C24_24 
REMARK    6  A    between atoms: C24_24  and  C23_25 
REMARK    7  A    between atoms: C23_25  and  C25_26 
ROOT
HETATM    1  C1    D T9001       2.262   8.798   7.744  1.00 30.38     0.107 A 
HETATM    2  C2    D T9001       1.332   8.818   6.649  1.00 29.65     0.113 A 
HETATM    3  C3    D T9001       0.002   8.337   6.863  1.00 28.21     0.045 A 
HETATM    4  C4    D T9001      -0.422   7.841   8.114  1.00 27.21     0.088 A 
HETATM    5  C5    D T9001       0.518   7.808   9.209  1.00 26.27     0.055 A 
HETATM    6  C6    D T9001       1.847   8.289   9.005  1.00 29.22     0.026 A 
HETATM    7  N7    D T9001      -1.702   7.413   8.235  1.00 25.99    -0.224 NA
HETATM    8  C8    D T9001      -2.076   6.941   9.443  1.00 24.59     0.200 A 
HETATM    9  N9    D T9001      -1.291   6.850  10.538  1.00 25.70    -0.205 NA
HETATM   10  C10   D T9001       0.015   7.281  10.432  1.00 27.48     0.166 A 
ENDROOT
BRANCH  10  11
HETATM   11  N14   D T9001       0.875   7.194  11.572  1.00 23.22    -0.227 NA
BRANCH  11  12
HETATM   12  C15   D T9001       1.544   6.036  12.046  1.00 24.25     0.084 A 
HETATM   13  C16   D T9001       0.860   5.020  12.789  1.00 25.06     0.033 A 
HETATM   14  C17   D T9001       1.536   3.884  13.258  1.00 28.28     0.087 A 
HETATM   15  C18   D T9001       2.918   3.726  12.997  1.00 25.55     0.151 A 
HETATM   16 CL     D T9001       0.645   2.710  14.150  1.00 31.70    -0.080 Cl
HETATM   17  C19   D T9001       3.625   4.712  12.263  1.00 24.70     0.032 A 
HETATM   18  F21   D T9001       3.583   2.648  13.438  1.00 27.22    -0.203 F 
HETATM   19  C20   D T9001       2.937   5.864  11.788  1.00 24.32     0.021 A 
ENDBRANCH  11  12
ENDBRANCH  10  11
BRANCH   1  20
HETATM   20  N13   D T9001       3.568   9.315   7.515  1.00 34.61    -0.210 NA
HETATM   21  C26   D T9001       3.902  10.644   7.828  1.00 36.24     0.256 C 
HETATM   22  O27   D T9001       3.147  11.484   8.318  1.00 39.97    -0.270 OA
BRANCH  21  23
HETATM   23  C24   D T9001       5.339  10.974   7.456  1.00 35.38     0.092 C 
BRANCH  23  24
HETATM   24  C23   D T9001       5.497  12.428   6.979  1.00 34.93     0.051 C 
BRANCH  24  25
HETATM   25  C25   D T9001       5.237  12.493   5.470  1.00 37.23     0.339 C 
HETATM   26  N33   D T9001       3.943  13.213   5.178  1.00 41.10     0.618 N 
ENDBRANCH  24  25
ENDBRANCH  23  24
ENDBRANCH  21  23
ENDBRANCH   1  20
BRANCH   2  27
HETATM   27  O11   D T9001       1.836   9.323   5.454  1.00 31.09    -0.327 OA
HETATM   28  C12   D T9001       1.394  10.594   4.970  1.00 29.66     0.181 C 
ENDBRANCH   2  27
TORSDOF 7
ENDMDL
MODEL 8
REMARK VINA RESULT:    -6.940      4.269      7.800
REMARK INTER + INTRA:         -10.741
REMARK INTER:                  -9.766
REMARK INTRA:                  -0.975
REMARK UNBOUND:                -0.961
REMARK  7 active torsions:
REMARK  status: ('A' for Active; 'I' for Inactive)
REMARK    1  A    between atoms: C1_1  and  N13_22 
REMARK    2  A    between atoms: C2_2  and  O11_20 
REMARK    3  A    between atoms: C10_10  and  N14_11 
REMARK    4  A    between atoms: N14_11  and  C15_12 
REMARK       I    between atoms: N13_22  and  C26_23 
REMARK    5  A    between atoms: C26_23  and  C24_24 
REMARK    6  A    between atoms: C24_24  and  C23_25 
REMARK    7  A    between atoms: C23_25  and  C25_26 
ROOT
HETATM    1  C1    D T9001       1.702   4.919  11.815  1.00 30.38     0.107 A 
HETATM    2  C2    D T9001       0.938   4.140  12.750  1.00 29.65     0.113 A 
HETATM    3  C3    D T9001       1.628   3.417  13.774  1.00 28.21     0.045 A 
HETATM    4  C4    D T9001       3.033   3.444  13.890  1.00 27.21     0.088 A 
HETATM    5  C5    D T9001       3.801   4.214  12.941  1.00 26.27     0.055 A 
HETATM    6  C6    D T9001       3.120   4.941  11.918  1.00 29.22     0.026 A 
HETATM    7  N7    D T9001       3.608   2.738  14.895  1.00 25.99    -0.224 NA
HETATM    8  C8    D T9001       4.954   2.781  14.978  1.00 24.59     0.200 A 
HETATM    9  N9    D T9001       5.780   3.454  14.149  1.00 25.70    -0.205 NA
HETATM   10  C10   D T9001       5.213   4.177  13.120  1.00 27.48     0.166 A 
ENDROOT
BRANCH  10  11
HETATM   11  N14   D T9001       6.060   4.899  12.221  1.00 23.22    -0.227 NA
BRANCH  11  12
HETATM   12  C15   D T9001       7.227   5.631  12.557  1.00 24.25     0.084 A 
HETATM   13  C16   D T9001       8.535   5.061  12.439  1.00 25.06     0.033 A 
HETATM   14  C17   D T9001       9.681   5.795  12.784  1.00 28.28     0.087 A 
HETATM   15  C18   D T9001       9.555   7.123  13.254  1.00 25.55     0.151 A 
HETATM   16 CL     D T9001      11.220   5.037  12.621  1.00 31.70    -0.080 Cl
HETATM   17  C19   D T9001       8.273   7.718  13.381  1.00 24.70     0.032 A 
HETATM   18  F21   D T9001      10.637   7.840  13.591  1.00 27.22    -0.203 F 
HETATM   19  C20   D T9001       7.113   6.973  13.031  1.00 24.32     0.021 A 
ENDBRANCH  11  12
ENDBRANCH  10  11
BRANCH   1  20
HETATM   20  N13   D T9001       0.991   5.657  10.828  1.00 34.61    -0.210 NA
HETATM   21  C26   D T9001       0.676   7.015  11.005  1.00 36.24     0.256 C 
HETATM   22  O27   D T9001       0.965   7.703  11.984  1.00 39.97    -0.270 OA
BRANCH  21  23
HETATM   23  C24   D T9001      -0.122   7.573   9.838  1.00 35.38     0.092 C 
BRANCH  23  24
HETATM   24  C23   D T9001      -1.630   7.629  10.137  1.00 34.93     0.051 C 
BRANCH  24  25
HETATM   25  C25   D T9001      -2.309   6.394   9.534  1.00 37.23     0.339 C 
HETATM   26  N33   D T9001      -2.868   5.504  10.618  1.00 41.10     0.618 N 
ENDBRANCH  24  25
ENDBRANCH  23  24
ENDBRANCH  21  23
ENDBRANCH   1  20
BRANCH   2  27
HETATM   27  O11   D T9001      -0.441   4.172  12.559  1.00 31.09    -0.327 OA
HETATM   28  C12   D T9001      -1.185   2.951  12.514  1.00 29.66     0.181 C 
ENDBRANCH   2  27
TORSDOF 7
ENDMDL
MODEL 9
REMARK VINA RESULT:    -6.845      3.895      7.670
REMARK INTER + INTRA:         -10.607
REMARK INTER:                  -9.684
REMARK INTRA:                  -0.924
REMARK UNBOUND:                -0.961
REMARK  7 active torsions:
REMARK  status: ('A' for Active; 'I' for Inactive)
REMARK    1  A    between atoms: C1_1  and  N13_22 
REMARK    2  A    between atoms: C2_2  and  O11_20 
REMARK    3  A    between atoms: C10_10  and  N14_11 
REMARK    4  A    between atoms: N14_11  and  C15_12 
REMARK       I    between atoms: N13_22  and  C26_23 
REMARK    5  A    between atoms: C26_23  and  C24_24 
REMARK    6  A    between atoms: C24_24  and  C23_25 
REMARK    7  A    between atoms: C23_25  and  C25_26 
ROOT
HETATM    1  C1    D T9001       1.708   5.065  11.640  1.00 30.38     0.107 A 
HETATM    2  C2    D T9001       0.841   4.379  12.558  1.00 29.65     0.113 A 
HETATM    3  C3    D T9001       1.423   3.616  13.619  1.00 28.21     0.045 A 
HETATM    4  C4    D T9001       2.818   3.516  13.790  1.00 27.21     0.088 A 
HETATM    5  C5    D T9001       3.689   4.193  12.859  1.00 26.27     0.055 A 
HETATM    6  C6    D T9001       3.117   4.959  11.798  1.00 29.22     0.026 A 
HETATM    7  N7    D T9001       3.287   2.781  14.827  1.00 25.99    -0.224 NA
HETATM    8  C8    D T9001       4.628   2.700  14.962  1.00 24.59     0.200 A 
HETATM    9  N9    D T9001       5.543   3.278  14.155  1.00 25.70    -0.205 NA
HETATM   10  C10   D T9001       5.084   4.029  13.093  1.00 27.48     0.166 A 
ENDROOT
BRANCH  10  11
HETATM   11  N14   D T9001       6.027   4.652  12.216  1.00 23.22    -0.227 NA
BRANCH  11  12
HETATM   12  C15   D T9001       7.088   5.518  12.586  1.00 24.25     0.084 A 
HETATM   13  C16   D T9001       6.855   6.886  12.943  1.00 25.06     0.033 A 
HETATM   14  C17   D T9001       7.916   7.733  13.299  1.00 28.28     0.087 A 
HETATM   15  C18   D T9001       9.242   7.240  13.311  1.00 25.55     0.151 A 
HETATM   16 CL     D T9001       7.556   9.367  13.710  1.00 31.70    -0.080 Cl
HETATM   17  C19   D T9001       9.506   5.890  12.963  1.00 24.70     0.032 A 
HETATM   18  F21   D T9001      10.269   8.034  13.645  1.00 27.22    -0.203 F 
HETATM   19  C20   D T9001       8.430   5.032  12.603  1.00 24.32     0.021 A 
ENDBRANCH  11  12
ENDBRANCH  10  11
BRANCH   1  20
HETATM   20  N13   D T9001       1.106   5.845  10.614  1.00 34.61    -0.210 NA
HETATM   21  C26   D T9001       0.853   7.218  10.781  1.00 36.24     0.256 C 
HETATM   22  O27   D T9001       1.112   7.885  11.783  1.00 39.97    -0.270 OA
BRANCH  21  23
HETATM   23  C24   D T9001       0.167   7.824   9.568  1.00 35.38     0.092 C 
BRANCH  23  24
HETATM   24  C23   D T9001      -1.352   7.579   9.575  1.00 34.93     0.051 C 
BRANCH  24  25
HETATM   25  C25   D T9001      -1.932   7.977   8.213  1.00 37.23     0.339 C 
HETATM   26  N33   D T9001      -2.073   9.476   8.106  1.00 41.10     0.618 N 
ENDBRANCH  24  25
ENDBRANCH  23  24
ENDBRANCH  21  23
ENDBRANCH   1  20
BRANCH   2  27
HETATM   27  O11   D T9001      -0.521   4.534  12.312  1.00 31.09    -0.327 OA
HETATM   28  C12   D T9001      -1.337   3.386  12.062  1.00 29.66     0.181 C 
ENDBRANCH   2  27
TORSDOF 7
ENDMDL
