MODEL 1
REMARK VINA RESULT:    -7.310      0.000      0.000
REMARK INTER + INTRA:         -11.173
REMARK INTER:                 -10.301
REMARK INTRA:                  -0.873
REMARK UNBOUND:                -0.873
REMARK  7 active torsions:
REMARK  status: ('A' for Active; 'I' for Inactive)
REMARK    1  A    between atoms: C1_1  and  N13_22 
REMARK    2  A    between atoms: C2_2  and  O11_20 
REMARK    3  A    between atoms: C10_10  and  N14_11 
REMARK    4  A    between atoms: N14_11  and  C15_12 
REMARK       I    between atoms: N13_22  and  C26_23 
REMARK    5  A    between atoms: C26_23  and  C24_24 
REMARK    6  A    between atoms: C24_24  and  C23_25 
REMARK    7  A    between atoms: C23_25  and  C25_26 
ROOT
HETATM    1  C1    D T9001      10.102  -2.662  -0.718  1.00 30.38     0.107 A 
HETATM    2  C2    D T9001      10.437  -4.052  -0.853  1.00 29.65     0.113 A 
HETATM    3  C3    D T9001      10.195  -4.702  -2.105  1.00 28.21     0.045 A 
HETATM    4  C4    D T9001       9.634  -4.022  -3.204  1.00 27.21     0.088 A 
HETATM    5  C5    D T9001       9.283  -2.629  -3.062  1.00 26.27     0.055 A 
HETATM    6  C6    D T9001       9.526  -1.971  -1.818  1.00 29.22     0.026 A 
HETATM    7  N7    D T9001       9.446  -4.709  -4.357  1.00 25.99    -0.224 NA
HETATM    8  C8    D T9001       8.905  -4.031  -5.390  1.00 24.59     0.200 A 
HETATM    9  N9    D T9001       8.527  -2.734  -5.380  1.00 25.70    -0.205 NA
HETATM   10  C10   D T9001       8.712  -2.019  -4.215  1.00 27.48     0.166 A 
ENDROOT
BRANCH  10  11
HETATM   11  N14   D T9001       8.318  -0.644  -4.167  1.00 23.22    -0.227 NA
BRANCH  11  12
HETATM   12  C15   D T9001       8.487   0.323  -5.189  1.00 24.25     0.084 A 
HETATM   13  C16   D T9001       7.569   0.435  -6.283  1.00 25.06     0.033 A 
HETATM   14  C17   D T9001       7.752   1.392  -7.291  1.00 28.28     0.087 A 
HETATM   15  C18   D T9001       8.861   2.271  -7.238  1.00 25.55     0.151 A 
HETATM   16 CL     D T9001       6.607   1.460  -8.577  1.00 31.70    -0.080 Cl
HETATM   17  C19   D T9001       9.788   2.189  -6.169  1.00 24.70     0.032 A 
HETATM   18  F21   D T9001       9.055   3.192  -8.195  1.00 27.22    -0.203 F 
HETATM   19  C20   D T9001       9.600   1.217  -5.147  1.00 24.32     0.021 A 
ENDBRANCH  11  12
ENDBRANCH  10  11
BRANCH   1  20
HETATM   20  N13   D T9001      10.386  -2.028   0.524  1.00 34.61    -0.210 NA
HETATM   21  C26   D T9001      11.632  -1.432   0.783  1.00 36.24     0.256 C 
HETATM   22  O27   D T9001      12.586  -1.381   0.004  1.00 39.97    -0.270 OA
BRANCH  21  23
HETATM   23  C24   D T9001      11.711  -0.859   2.189  1.00 35.38     0.092 C 
BRANCH  23  24
HETATM   24  C23   D T9001      13.159  -0.775   2.702  1.00 34.93     0.051 C 
BRANCH  24  25
HETATM   25  C25   D T9001      13.544   0.699   2.881  1.00 37.23     0.339 C 
HETATM   26  N33   D T9001      14.261   1.220   1.659  1.00 41.10     0.618 N 
ENDBRANCH  24  25
ENDBRANCH  23  24
ENDBRANCH  21  23
ENDBRANCH   1  20
BRANCH   2  27
HETATM   27  O11   D T9001      10.984  -4.643   0.283  1.00 31.09    -0.327 OA
HETATM   28  C12   D T9001      12.278  -5.248   0.223  1.00 29.66     0.181 C 
ENDBRANCH   2  27
TORSDOF 7
ENDMDL
MODEL 2
REMARK VINA RESULT:    -7.224      3.120      6.296
REMARK INTER + INTRA:         -11.052
REMARK INTER:                 -10.190
REMARK INTRA:                  -0.863
REMARK UNBOUND:                -0.873
REMARK  7 active torsions:
REMARK  status: ('A' for Active; 'I' for Inactive)
REMARK    1  A    between atoms: C1_1  and  N13_22 
REMARK    2  A    between atoms: C2_2  and  O11_20 
REMARK    3  A    between atoms: C10_10  and  N14_11 
REMARK    4  A    between atoms: N14_11  and  C15_12 
REMARK       I    between atoms: N13_22  and  C26_23 
REMARK    5  A    between atoms: C26_23  and  C24_24 
REMARK    6  A    between atoms: C24_24  and  C23_25 
REMARK    7  A    between atoms: C23_25  and  C25_26 
ROOT
HETATM    1  C1    D T9001       9.618  -6.112  -1.640  1.00 30.38     0.107 A 
HETATM    2  C2    D T9001      10.809  -6.290  -0.857  1.00 29.65     0.113 A 
HETATM    3  C3    D T9001      11.402  -5.147  -0.232  1.00 28.21     0.045 A 
HETATM    4  C4    D T9001      10.856  -3.854  -0.367  1.00 27.21     0.088 A 
HETATM    5  C5    D T9001       9.669  -3.675  -1.168  1.00 26.27     0.055 A 
HETATM    6  C6    D T9001       9.068  -4.810  -1.791  1.00 29.22     0.026 A 
HETATM    7  N7    D T9001      11.474  -2.826   0.265  1.00 25.99    -0.224 NA
HETATM    8  C8    D T9001      10.930  -1.602   0.114  1.00 24.59     0.200 A 
HETATM    9  N9    D T9001       9.831  -1.304  -0.614  1.00 25.70    -0.205 NA
HETATM   10  C10   D T9001       9.189  -2.338  -1.263  1.00 27.48     0.166 A 
ENDROOT
BRANCH  10  11
HETATM   11  N14   D T9001       8.025  -2.057  -2.046  1.00 23.22    -0.227 NA
BRANCH  11  12
HETATM   12  C15   D T9001       7.981  -1.372  -3.287  1.00 24.25     0.084 A 
HETATM   13  C16   D T9001       7.602  -2.032  -4.501  1.00 25.06     0.033 A 
HETATM   14  C17   D T9001       7.570  -1.345  -5.723  1.00 28.28     0.087 A 
HETATM   15  C18   D T9001       7.915   0.028  -5.770  1.00 25.55     0.151 A 
HETATM   16 CL     D T9001       7.110  -2.210  -7.140  1.00 31.70    -0.080 Cl
HETATM   17  C19   D T9001       8.293   0.712  -4.587  1.00 24.70     0.032 A 
HETATM   18  F21   D T9001       7.893   0.703  -6.930  1.00 27.22    -0.203 F 
HETATM   19  C20   D T9001       8.325   0.012  -3.349  1.00 24.32     0.021 A 
ENDBRANCH  11  12
ENDBRANCH  10  11
BRANCH   1  20
HETATM   20  N13   D T9001       9.026  -7.269  -2.221  1.00 34.61    -0.210 NA
HETATM   21  C26   D T9001       7.986  -7.966  -1.583  1.00 36.24     0.256 C 
HETATM   22  O27   D T9001       7.477  -7.677  -0.499  1.00 39.97    -0.270 OA
BRANCH  21  23
HETATM   23  C24   D T9001       7.549  -9.188  -2.375  1.00 35.38     0.092 C 
BRANCH  23  24
HETATM   24  C23   D T9001       6.018  -9.302  -2.471  1.00 34.93     0.051 C 
BRANCH  24  25
HETATM   25  C25   D T9001       5.648 -10.019  -3.777  1.00 37.23     0.339 C 
HETATM   26  N33   D T9001       6.531  -9.559  -4.911  1.00 41.10     0.618 N 
ENDBRANCH  24  25
ENDBRANCH  23  24
ENDBRANCH  21  23
ENDBRANCH   1  20
BRANCH   2  27
HETATM   27  O11   D T9001      11.277  -7.598  -0.779  1.00 31.09    -0.327 OA
HETATM   28  C12   D T9001      12.602  -7.858  -0.306  1.00 29.66     0.181 C 
ENDBRANCH   2  27
TORSDOF 7
ENDMDL
MODEL 3
REMARK VINA RESULT:    -7.109      3.337      6.154
REMARK INTER + INTRA:         -10.891
REMARK INTER:                  -9.898
REMARK INTRA:                  -0.994
REMARK UNBOUND:                -0.873
REMARK  7 active torsions:
REMARK  status: ('A' for Active; 'I' for Inactive)
REMARK    1  A    between atoms: C1_1  and  N13_22 
REMARK    2  A    between atoms: C2_2  and  O11_20 
REMARK    3  A    between atoms: C10_10  and  N14_11 
REMARK    4  A    between atoms: N14_11  and  C15_12 
REMARK       I    between atoms: N13_22  and  C26_23 
REMARK    5  A    between atoms: C26_23  and  C24_24 
REMARK    6  A    between atoms: C24_24  and  C23_25 
REMARK    7  A    between atoms: C23_25  and  C25_26 
ROOT
HETATM    1  C1    D T9001       8.936  -5.719  -0.784  1.00 30.38     0.107 A 
HETATM    2  C2    D T9001      10.224  -5.897  -0.175  1.00 29.65     0.113 A 
HETATM    3  C3    D T9001      11.172  -4.826  -0.236  1.00 28.21     0.045 A 
HETATM    4  C4    D T9001      10.879  -3.606  -0.879  1.00 27.21     0.088 A 
HETATM    5  C5    D T9001       9.589  -3.434  -1.504  1.00 26.27     0.055 A 
HETATM    6  C6    D T9001       8.637  -4.496  -1.444  1.00 29.22     0.026 A 
HETATM    7  N7    D T9001      11.829  -2.639  -0.884  1.00 25.99    -0.224 NA
HETATM    8  C8    D T9001      11.520  -1.484  -1.509  1.00 24.59     0.200 A 
HETATM    9  N9    D T9001      10.357  -1.205  -2.137  1.00 25.70    -0.205 NA
HETATM   10  C10   D T9001       9.379  -2.178  -2.141  1.00 27.48     0.166 A 
ENDROOT
BRANCH  10  11
HETATM   11  N14   D T9001       8.136  -1.918  -2.800  1.00 23.22    -0.227 NA
BRANCH  11  12
HETATM   12  C15   D T9001       7.940  -1.698  -4.187  1.00 24.25     0.084 A 
HETATM   13  C16   D T9001       8.186  -0.422  -4.791  1.00 25.06     0.033 A 
HETATM   14  C17   D T9001       7.983  -0.216  -6.163  1.00 28.28     0.087 A 
HETATM   15  C18   D T9001       7.526  -1.281  -6.978  1.00 25.55     0.151 A 
HETATM   16 CL     D T9001       8.296   1.348  -6.814  1.00 31.70    -0.080 Cl
HETATM   17  C19   D T9001       7.274  -2.556  -6.412  1.00 24.70     0.032 A 
HETATM   18  F21   D T9001       7.323  -1.103  -8.292  1.00 27.22    -0.203 F 
HETATM   19  C20   D T9001       7.482  -2.763  -5.020  1.00 24.32     0.021 A 
ENDBRANCH  11  12
ENDBRANCH  10  11
BRANCH   1  20
HETATM   20  N13   D T9001       7.998  -6.784  -0.678  1.00 34.61    -0.210 NA
HETATM   21  C26   D T9001       7.948  -7.823  -1.624  1.00 36.24     0.256 C 
HETATM   22  O27   D T9001       8.675  -7.938  -2.612  1.00 39.97    -0.270 OA
BRANCH  21  23
HETATM   23  C24   D T9001       6.839  -8.818  -1.321  1.00 35.38     0.092 C 
BRANCH  23  24
HETATM   24  C23   D T9001       6.726  -9.909  -2.399  1.00 34.93     0.051 C 
BRANCH  24  25
HETATM   25  C25   D T9001       5.489  -9.635  -3.264  1.00 37.23     0.339 C 
HETATM   26  N33   D T9001       4.449  -8.865  -2.486  1.00 41.10     0.618 N 
ENDBRANCH  24  25
ENDBRANCH  23  24
ENDBRANCH  21  23
ENDBRANCH   1  20
BRANCH   2  27
HETATM   27  O11   D T9001      10.426  -7.132   0.434  1.00 31.09    -0.327 OA
HETATM   28  C12   D T9001      11.444  -8.012  -0.050  1.00 29.66     0.181 C 
ENDBRANCH   2  27
TORSDOF 7
ENDMDL
MODEL 4
REMARK VINA RESULT:    -6.727      4.209      7.718
REMARK INTER + INTRA:         -10.353
REMARK INTER:                  -9.365
REMARK INTRA:                  -0.988
REMARK UNBOUND:                -0.873
REMARK  7 active torsions:
REMARK  status: ('A' for Active; 'I' for Inactive)
REMARK    1  A    between atoms: C1_1  and  N13_22 
REMARK    2  A    between atoms: C2_2  and  O11_20 
REMARK    3  A    between atoms: C10_10  and  N14_11 
REMARK    4  A    between atoms: N14_11  and  C15_12 
REMARK       I    between atoms: N13_22  and  C26_23 
REMARK    5  A    between atoms: C26_23  and  C24_24 
REMARK    6  A    between atoms: C24_24  and  C23_25 
REMARK    7  A    between atoms: C23_25  and  C25_26 
ROOT
HETATM    1  C1    D T9001       9.012  -1.473  -3.646  1.00 30.38     0.107 A 
HETATM    2  C2    D T9001       8.828  -2.648  -4.452  1.00 29.65     0.113 A 
HETATM    3  C3    D T9001       9.121  -3.929  -3.883  1.00 28.21     0.045 A 
HETATM    4  C4    D T9001       9.587  -4.070  -2.561  1.00 27.21     0.088 A 
HETATM    5  C5    D T9001       9.785  -2.887  -1.757  1.00 26.27     0.055 A 
HETATM    6  C6    D T9001       9.492  -1.606  -2.315  1.00 29.22     0.026 A 
HETATM    7  N7    D T9001       9.831  -5.319  -2.095  1.00 25.99    -0.224 NA
HETATM    8  C8    D T9001      10.278  -5.422  -0.827  1.00 24.59     0.200 A 
HETATM    9  N9    D T9001      10.512  -4.395   0.019  1.00 25.70    -0.205 NA
HETATM   10  C10   D T9001      10.268  -3.116  -0.438  1.00 27.48     0.166 A 
ENDROOT
BRANCH  10  11
HETATM   11  N14   D T9001      10.510  -2.004   0.431  1.00 23.22    -0.227 NA
BRANCH  11  12
HETATM   12  C15   D T9001      11.769  -1.441   0.759  1.00 24.25     0.084 A 
HETATM   13  C16   D T9001      12.020  -0.845   2.037  1.00 25.06     0.033 A 
HETATM   14  C17   D T9001      13.268  -0.285   2.345  1.00 28.28     0.087 A 
HETATM   15  C18   D T9001      14.308  -0.305   1.384  1.00 25.55     0.151 A 
HETATM   16 CL     D T9001      13.490   0.419   3.902  1.00 31.70    -0.080 Cl
HETATM   17  C19   D T9001      14.094  -0.889   0.110  1.00 24.70     0.032 A 
HETATM   18  F21   D T9001      15.509   0.227   1.660  1.00 27.22    -0.203 F 
HETATM   19  C20   D T9001      12.827  -1.456  -0.200  1.00 24.32     0.021 A 
ENDBRANCH  11  12
ENDBRANCH  10  11
BRANCH   1  20
HETATM   20  N13   D T9001       8.680  -0.215  -4.222  1.00 34.61    -0.210 NA
HETATM   21  C26   D T9001       9.631   0.560  -4.906  1.00 36.24     0.256 C 
HETATM   22  O27   D T9001      10.813   0.262  -5.089  1.00 39.97    -0.270 OA
BRANCH  21  23
HETATM   23  C24   D T9001       9.051   1.878  -5.393  1.00 35.38     0.092 C 
BRANCH  23  24
HETATM   24  C23   D T9001       9.653   2.317  -6.739  1.00 34.93     0.051 C 
BRANCH  24  25
HETATM   25  C25   D T9001       8.515   2.665  -7.709  1.00 37.23     0.339 C 
HETATM   26  N33   D T9001       7.539   1.519  -7.824  1.00 41.10     0.618 N 
ENDBRANCH  24  25
ENDBRANCH  23  24
ENDBRANCH  21  23
ENDBRANCH   1  20
BRANCH   2  27
HETATM   27  O11   D T9001       8.368  -2.414  -5.745  1.00 31.09    -0.327 OA
HETATM   28  C12   D T9001       7.090  -2.912  -6.150  1.00 29.66     0.181 C 
ENDBRANCH   2  27
TORSDOF 7
ENDMDL
MODEL 5
REMARK VINA RESULT:    -6.560      5.450      8.238
REMARK INTER + INTRA:         -10.117
REMARK INTER:                  -9.101
REMARK INTRA:                  -1.016
REMARK UNBOUND:                -0.873
REMARK  7 active torsions:
REMARK  status: ('A' for Active; 'I' for Inactive)
REMARK    1  A    between atoms: C1_1  and  N13_22 
REMARK    2  A    between atoms: C2_2  and  O11_20 
REMARK    3  A    between atoms: C10_10  and  N14_11 
REMARK    4  A    between atoms: N14_11  and  C15_12 
REMARK       I    between atoms: N13_22  and  C26_23 
REMARK    5  A    between atoms: C26_23  and  C24_24 
REMARK    6  A    between atoms: C24_24  and  C23_25 
REMARK    7  A    between atoms: C23_25  and  C25_26 
ROOT
HETATM    1  C1    D T9001       8.832  -5.665  -0.088  1.00 30.38     0.107 A 
HETATM    2  C2    D T9001       9.864  -5.895   0.885  1.00 29.65     0.113 A 
HETATM    3  C3    D T9001      10.101  -7.232   1.338  1.00 28.21     0.045 A 
HETATM    4  C4    D T9001       9.350  -8.326   0.861  1.00 27.21     0.088 A 
HETATM    5  C5    D T9001       8.304  -8.091  -0.106  1.00 26.27     0.055 A 
HETATM    6  C6    D T9001       8.064  -6.761  -0.566  1.00 29.22     0.026 A 
HETATM    7  N7    D T9001       9.645  -9.562   1.333  1.00 25.99    -0.224 NA
HETATM    8  C8    D T9001       8.908 -10.588   0.860  1.00 24.59     0.200 A 
HETATM    9  N9    D T9001       7.900 -10.497  -0.035  1.00 25.70    -0.205 NA
HETATM   10  C10   D T9001       7.587  -9.247  -0.527  1.00 27.48     0.166 A 
ENDROOT
BRANCH  10  11
HETATM   11  N14   D T9001       6.522  -9.113  -1.473  1.00 23.22    -0.227 NA
BRANCH  11  12
HETATM   12  C15   D T9001       6.602  -9.309  -2.875  1.00 24.25     0.084 A 
HETATM   13  C16   D T9001       7.711  -8.828  -3.643  1.00 25.06     0.033 A 
HETATM   14  C17   D T9001       7.775  -9.023  -5.030  1.00 28.28     0.087 A 
HETATM   15  C18   D T9001       6.728  -9.707  -5.696  1.00 25.55     0.151 A 
HETATM   16 CL     D T9001       9.139  -8.410  -5.884  1.00 31.70    -0.080 Cl
HETATM   17  C19   D T9001       5.616 -10.197  -4.966  1.00 24.70     0.032 A 
HETATM   18  F21   D T9001       6.769  -9.901  -7.023  1.00 27.22    -0.203 F 
HETATM   19  C20   D T9001       5.555  -9.998  -3.558  1.00 24.32     0.021 A 
ENDBRANCH  11  12
ENDBRANCH  10  11
BRANCH   1  20
HETATM   20  N13   D T9001       8.641  -4.332  -0.549  1.00 34.61    -0.210 NA
HETATM   21  C26   D T9001       9.098  -3.913  -1.810  1.00 36.24     0.256 C 
HETATM   22  O27   D T9001       9.690  -4.611  -2.635  1.00 39.97    -0.270 OA
BRANCH  21  23
HETATM   23  C24   D T9001       8.815  -2.440  -2.060  1.00 35.38     0.092 C 
BRANCH  23  24
HETATM   24  C23   D T9001       7.825  -2.226  -3.217  1.00 34.93     0.051 C 
BRANCH  24  25
HETATM   25  C25   D T9001       8.599  -1.786  -4.467  1.00 37.23     0.339 C 
HETATM   26  N33   D T9001       8.230  -0.376  -4.858  1.00 41.10     0.618 N 
ENDBRANCH  24  25
ENDBRANCH  23  24
ENDBRANCH  21  23
ENDBRANCH   1  20
BRANCH   2  27
HETATM   27  O11   D T9001      10.551  -4.758   1.300  1.00 31.09    -0.327 OA
HETATM   28  C12   D T9001      11.463  -4.834   2.400  1.00 29.66     0.181 C 
ENDBRANCH   2  27
TORSDOF 7
ENDMDL
MODEL 6
REMARK VINA RESULT:    -6.460     16.237     19.373
REMARK INTER + INTRA:          -9.977
REMARK INTER:                  -8.927
REMARK INTRA:                  -1.050
REMARK UNBOUND:                -0.873
REMARK  7 active torsions:
REMARK  status: ('A' for Active; 'I' for Inactive)
REMARK    1  A    between atoms: C1_1  and  N13_22 
REMARK    2  A    between atoms: C2_2  and  O11_20 
REMARK    3  A    between atoms: C10_10  and  N14_11 
REMARK    4  A    between atoms: N14_11  and  C15_12 
REMARK       I    between atoms: N13_22  and  C26_23 
REMARK    5  A    between atoms: C26_23  and  C24_24 
REMARK    6  A    between atoms: C24_24  and  C23_25 
REMARK    7  A    between atoms: C23_25  and  C25_26 
ROOT
HETATM    1  C1    D T9001       4.757  13.273 -12.926  1.00 30.38     0.107 A 
HETATM    2  C2    D T9001       5.596  13.484 -11.779  1.00 29.65     0.113 A 
HETATM    3  C3    D T9001       5.325  12.748 -10.581  1.00 28.21     0.045 A 
HETATM    4  C4    D T9001       4.260  11.829 -10.493  1.00 27.21     0.088 A 
HETATM    5  C5    D T9001       3.409  11.630 -11.641  1.00 26.27     0.055 A 
HETATM    6  C6    D T9001       3.674  12.356 -12.841  1.00 29.22     0.026 A 
HETATM    7  N7    D T9001       4.078  11.167  -9.324  1.00 25.99    -0.224 NA
HETATM    8  C8    D T9001       3.049  10.297  -9.270  1.00 24.59     0.200 A 
HETATM    9  N9    D T9001       2.180  10.030 -10.269  1.00 25.70    -0.205 NA
HETATM   10  C10   D T9001       2.350  10.694 -11.465  1.00 27.48     0.166 A 
ENDROOT
BRANCH  10  11
HETATM   11  N14   D T9001       1.444  10.439 -12.543  1.00 23.22    -0.227 NA
BRANCH  11  12
HETATM   12  C15   D T9001       1.777   9.970 -13.839  1.00 24.25     0.084 A 
HETATM   13  C16   D T9001       1.183  10.523 -15.019  1.00 25.06     0.033 A 
HETATM   14  C17   D T9001       1.516  10.045 -16.294  1.00 28.28     0.087 A 
HETATM   15  C18   D T9001       2.457   8.996 -16.431  1.00 25.55     0.151 A 
HETATM   16 CL     D T9001       0.754  10.759 -17.665  1.00 31.70    -0.080 Cl
HETATM   17  C19   D T9001       3.065   8.426 -15.285  1.00 24.70     0.032 A 
HETATM   18  F21   D T9001       2.787   8.522 -17.643  1.00 27.22    -0.203 F 
HETATM   19  C20   D T9001       2.726   8.914 -13.992  1.00 24.32     0.021 A 
ENDBRANCH  11  12
ENDBRANCH  10  11
BRANCH   1  20
HETATM   20  N13   D T9001       5.069  13.988 -14.116  1.00 34.61    -0.210 NA
HETATM   21  C26   D T9001       4.467  15.222 -14.417  1.00 36.24     0.256 C 
HETATM   22  O27   D T9001       3.639  15.812 -13.722  1.00 39.97    -0.270 OA
BRANCH  21  23
HETATM   23  C24   D T9001       4.926  15.769 -15.758  1.00 35.38     0.092 C 
BRANCH  23  24
HETATM   24  C23   D T9001       5.740  14.739 -16.560  1.00 34.93     0.051 C 
BRANCH  24  25
HETATM   25  C25   D T9001       5.455  14.926 -18.055  1.00 37.23     0.339 C 
HETATM   26  N33   D T9001       6.585  14.375 -18.891  1.00 41.10     0.618 N 
ENDBRANCH  24  25
ENDBRANCH  23  24
ENDBRANCH  21  23
ENDBRANCH   1  20
BRANCH   2  27
HETATM   27  O11   D T9001       6.620  14.409 -11.956  1.00 31.09    -0.327 OA
HETATM   28  C12   D T9001       6.562  15.676 -11.295  1.00 29.66     0.181 C 
ENDBRANCH   2  27
TORSDOF 7
ENDMDL
MODEL 7
REMARK VINA RESULT:    -6.395      3.315      6.387
REMARK INTER + INTRA:          -9.884
REMARK INTER:                  -8.937
REMARK INTRA:                  -0.947
REMARK UNBOUND:                -0.873
REMARK  7 active torsions:
REMARK  status: ('A' for Active; 'I' for Inactive)
REMARK    1  A    between atoms: C1_1  and  N13_22 
REMARK    2  A    between atoms: C2_2  and  O11_20 
REMARK    3  A    between atoms: C10_10  and  N14_11 
REMARK    4  A    between atoms: N14_11  and  C15_12 
REMARK       I    between atoms: N13_22  and  C26_23 
REMARK    5  A    between atoms: C26_23  and  C24_24 
REMARK    6  A    between atoms: C24_24  and  C23_25 
REMARK    7  A    between atoms: C23_25  and  C25_26 
ROOT
HETATM    1  C1    D T9001       9.255  -6.198   0.199  1.00 30.38     0.107 A 
HETATM    2  C2    D T9001       9.488  -5.954   1.595  1.00 29.65     0.113 A 
HETATM    3  C3    D T9001      10.062  -4.704   1.991  1.00 28.21     0.045 A 
HETATM    4  C4    D T9001      10.409  -3.711   1.053  1.00 27.21     0.088 A 
HETATM    5  C5    D T9001      10.189  -3.964  -0.351  1.00 26.27     0.055 A 
HETATM    6  C6    D T9001       9.612  -5.206  -0.754  1.00 29.22     0.026 A 
HETATM    7  N7    D T9001      10.940  -2.551   1.512  1.00 25.99    -0.224 NA
HETATM    8  C8    D T9001      11.264  -1.622   0.590  1.00 24.59     0.200 A 
HETATM    9  N9    D T9001      11.116  -1.742  -0.747  1.00 25.70    -0.205 NA
HETATM   10  C10   D T9001      10.577  -2.916  -1.232  1.00 27.48     0.166 A 
ENDROOT
BRANCH  10  11
HETATM   11  N14   D T9001      10.410  -3.079  -2.644  1.00 23.22    -0.227 NA
BRANCH  11  12
HETATM   12  C15   D T9001       9.657  -2.248  -3.512  1.00 24.25     0.084 A 
HETATM   13  C16   D T9001      10.225  -1.087  -4.128  1.00 25.06     0.033 A 
HETATM   14  C17   D T9001       9.466  -0.270  -4.979  1.00 28.28     0.087 A 
HETATM   15  C18   D T9001       8.112  -0.590  -5.242  1.00 25.55     0.151 A 
HETATM   16 CL     D T9001      10.220   1.112  -5.678  1.00 31.70    -0.080 Cl
HETATM   17  C19   D T9001       7.518  -1.732  -4.649  1.00 24.70     0.032 A 
HETATM   18  F21   D T9001       7.369   0.181  -6.051  1.00 27.22    -0.203 F 
HETATM   19  C20   D T9001       8.291  -2.559  -3.787  1.00 24.32     0.021 A 
ENDBRANCH  11  12
ENDBRANCH  10  11
BRANCH   1  20
HETATM   20  N13   D T9001       8.648  -7.433  -0.167  1.00 34.61    -0.210 NA
HETATM   21  C26   D T9001       7.340  -7.493  -0.677  1.00 36.24     0.256 C 
HETATM   22  O27   D T9001       6.592  -6.532  -0.867  1.00 39.97    -0.270 OA
BRANCH  21  23
HETATM   23  C24   D T9001       6.899  -8.921  -0.954  1.00 35.38     0.092 C 
BRANCH  23  24
HETATM   24  C23   D T9001       7.679  -9.556  -2.117  1.00 34.93     0.051 C 
BRANCH  24  25
HETATM   25  C25   D T9001       6.805  -9.538  -3.378  1.00 37.23     0.339 C 
HETATM   26  N33   D T9001       7.528  -8.872  -4.524  1.00 41.10     0.618 N 
ENDBRANCH  24  25
ENDBRANCH  23  24
ENDBRANCH  21  23
ENDBRANCH   1  20
BRANCH   2  27
HETATM   27  O11   D T9001       9.117  -6.990   2.448  1.00 31.09    -0.327 OA
HETATM   28  C12   D T9001      10.105  -7.655   3.239  1.00 29.66     0.181 C 
ENDBRANCH   2  27
TORSDOF 7
ENDMDL
MODEL 8
REMARK VINA RESULT:    -5.920     16.813     18.768
REMARK INTER + INTRA:          -9.216
REMARK INTER:                  -8.064
REMARK INTRA:                  -1.152
REMARK UNBOUND:                -0.873
REMARK  7 active torsions:
REMARK  status: ('A' for Active; 'I' for Inactive)
REMARK    1  A    between atoms: C1_1  and  N13_22 
REMARK    2  A    between atoms: C2_2  and  O11_20 
REMARK    3  A    between atoms: C10_10  and  N14_11 
REMARK    4  A    between atoms: N14_11  and  C15_12 
REMARK       I    between atoms: N13_22  and  C26_23 
REMARK    5  A    between atoms: C26_23  and  C24_24 
REMARK    6  A    between atoms: C24_24  and  C23_25 
REMARK    7  A    between atoms: C23_25  and  C25_26 
ROOT
HETATM    1  C1    D T9001       2.762  10.673 -12.490  1.00 30.38     0.107 A 
HETATM    2  C2    D T9001       2.347  11.455 -11.359  1.00 29.65     0.113 A 
HETATM    3  C3    D T9001       0.949  11.557 -11.065  1.00 28.21     0.045 A 
HETATM    4  C4    D T9001      -0.028  10.917 -11.853  1.00 27.21     0.088 A 
HETATM    5  C5    D T9001       0.390  10.144 -12.998  1.00 26.27     0.055 A 
HETATM    6  C6    D T9001       1.781  10.034 -13.296  1.00 29.22     0.026 A 
HETATM    7  N7    D T9001      -1.330  11.056 -11.500  1.00 25.99    -0.224 NA
HETATM    8  C8    D T9001      -2.242  10.435 -12.276  1.00 24.59     0.200 A 
HETATM    9  N9    D T9001      -1.979   9.694 -13.375  1.00 25.70    -0.205 NA
HETATM   10  C10   D T9001      -0.660   9.541 -13.747  1.00 27.48     0.166 A 
ENDROOT
BRANCH  10  11
HETATM   11  N14   D T9001      -0.346   8.766 -14.909  1.00 23.22    -0.227 NA
BRANCH  11  12
HETATM   12  C15   D T9001       0.033   9.261 -16.183  1.00 24.25     0.084 A 
HETATM   13  C16   D T9001       0.878   8.511 -17.064  1.00 25.06     0.033 A 
HETATM   14  C17   D T9001       1.250   9.015 -18.318  1.00 28.28     0.087 A 
HETATM   15  C18   D T9001       0.788  10.288 -18.733  1.00 25.55     0.151 A 
HETATM   16 CL     D T9001       2.273   8.055 -19.318  1.00 31.70    -0.080 Cl
HETATM   17  C19   D T9001      -0.050  11.056 -17.887  1.00 24.70     0.032 A 
HETATM   18  F21   D T9001       1.136  10.789 -19.928  1.00 27.22    -0.203 F 
HETATM   19  C20   D T9001      -0.427  10.541 -16.615  1.00 24.32     0.021 A 
ENDBRANCH  11  12
ENDBRANCH  10  11
BRANCH   1  20
HETATM   20  N13   D T9001       4.158  10.557 -12.740  1.00 34.61    -0.210 NA
HETATM   21  C26   D T9001       4.815  11.382 -13.669  1.00 36.24     0.256 C 
HETATM   22  O27   D T9001       4.291  12.268 -14.347  1.00 39.97    -0.270 OA
BRANCH  21  23
HETATM   23  C24   D T9001       6.291  11.042 -13.792  1.00 35.38     0.092 C 
BRANCH  23  24
HETATM   24  C23   D T9001       7.195  12.189 -13.308  1.00 34.93     0.051 C 
BRANCH  24  25
HETATM   25  C25   D T9001       7.117  12.279 -11.778  1.00 37.23     0.339 C 
HETATM   26  N33   D T9001       6.471  13.574 -11.349  1.00 41.10     0.618 N 
ENDBRANCH  24  25
ENDBRANCH  23  24
ENDBRANCH  21  23
ENDBRANCH   1  20
BRANCH   2  27
HETATM   27  O11   D T9001       3.378  12.051 -10.639  1.00 31.09    -0.327 OA
HETATM   28  C12   D T9001       3.842  11.456  -9.424  1.00 29.66     0.181 C 
ENDBRANCH   2  27
TORSDOF 7
ENDMDL
MODEL 9
REMARK VINA RESULT:    -5.843     16.175     19.617
REMARK INTER + INTRA:          -9.106
REMARK INTER:                  -8.337
REMARK INTRA:                  -0.769
REMARK UNBOUND:                -0.873
REMARK  7 active torsions:
REMARK  status: ('A' for Active; 'I' for Inactive)
REMARK    1  A    between atoms: C1_1  and  N13_22 
REMARK    2  A    between atoms: C2_2  and  O11_20 
REMARK    3  A    between atoms: C10_10  and  N14_11 
REMARK    4  A    between atoms: N14_11  and  C15_12 
REMARK       I    between atoms: N13_22  and  C26_23 
REMARK    5  A    between atoms: C26_23  and  C24_24 
REMARK    6  A    between atoms: C24_24  and  C23_25 
REMARK    7  A    between atoms: C23_25  and  C25_26 
ROOT
HETATM    1  C1    D T9001       4.027  13.339 -12.189  1.00 30.38     0.107 A 
HETATM    2  C2    D T9001       5.106  13.079 -11.277  1.00 29.65     0.113 A 
HETATM    3  C3    D T9001       4.918  12.106 -10.244  1.00 28.21     0.045 A 
HETATM    4  C4    D T9001       3.706  11.402 -10.092  1.00 27.21     0.088 A 
HETATM    5  C5    D T9001       2.618  11.676 -11.000  1.00 26.27     0.055 A 
HETATM    6  C6    D T9001       2.798  12.641 -12.036  1.00 29.22     0.026 A 
HETATM    7  N7    D T9001       3.613  10.490  -9.093  1.00 25.99    -0.224 NA
HETATM    8  C8    D T9001       2.441   9.835  -8.972  1.00 24.59     0.200 A 
HETATM    9  N9    D T9001       1.349  10.008  -9.749  1.00 25.70    -0.205 NA
HETATM   10  C10   D T9001       1.426  10.931 -10.771  1.00 27.48     0.166 A 
ENDROOT
BRANCH  10  11
HETATM   11  N14   D T9001       0.286  11.143 -11.611  1.00 23.22    -0.227 NA
BRANCH  11  12
HETATM   12  C15   D T9001      -1.062  11.274 -11.194  1.00 24.25     0.084 A 
HETATM   13  C16   D T9001      -1.549  12.471 -10.574  1.00 25.06     0.033 A 
HETATM   14  C17   D T9001      -2.884  12.585 -10.161  1.00 28.28     0.087 A 
HETATM   15  C18   D T9001      -3.778  11.504 -10.354  1.00 25.55     0.151 A 
HETATM   16 CL     D T9001      -3.391  14.055  -9.419  1.00 31.70    -0.080 Cl
HETATM   17  C19   D T9001      -3.330  10.305 -10.964  1.00 24.70     0.032 A 
HETATM   18  F21   D T9001      -5.058  11.592  -9.962  1.00 27.22    -0.203 F 
HETATM   19  C20   D T9001      -1.975  10.193 -11.383  1.00 24.32     0.021 A 
ENDBRANCH  11  12
ENDBRANCH  10  11
BRANCH   1  20
HETATM   20  N13   D T9001       4.251  14.283 -13.230  1.00 34.61    -0.210 NA
HETATM   21  C26   D T9001       4.744  13.895 -14.487  1.00 36.24     0.256 C 
HETATM   22  O27   D T9001       5.027  12.746 -14.831  1.00 39.97    -0.270 OA
BRANCH  21  23
HETATM   23  C24   D T9001       4.939  15.082 -15.416  1.00 35.38     0.092 C 
BRANCH  23  24
HETATM   24  C23   D T9001       4.733  14.706 -16.893  1.00 34.93     0.051 C 
BRANCH  24  25
HETATM   25  C25   D T9001       5.801  15.405 -17.744  1.00 37.23     0.339 C 
HETATM   26  N33   D T9001       6.371  14.459 -18.773  1.00 41.10     0.618 N 
ENDBRANCH  24  25
ENDBRANCH  23  24
ENDBRANCH  21  23
ENDBRANCH   1  20
BRANCH   2  27
HETATM   27  O11   D T9001       6.262  13.820 -11.500  1.00 31.09    -0.327 OA
HETATM   28  C12   D T9001       6.465  15.057 -10.810  1.00 29.66     0.181 C 
ENDBRANCH   2  27
TORSDOF 7
ENDMDL
