MODEL 1
REMARK VINA RESULT:    -7.287      0.000      0.000
REMARK INTER + INTRA:         -11.250
REMARK INTER:                 -10.269
REMARK INTRA:                  -0.981
REMARK UNBOUND:                -0.981
REMARK  7 active torsions:
REMARK  status: ('A' for Active; 'I' for Inactive)
REMARK    1  A    between atoms: C1_1  and  N13_22 
REMARK    2  A    between atoms: C2_2  and  O11_20 
REMARK    3  A    between atoms: C10_10  and  N14_11 
REMARK    4  A    between atoms: N14_11  and  C15_12 
REMARK       I    between atoms: N13_22  and  C26_23 
REMARK    5  A    between atoms: C26_23  and  C24_24 
REMARK    6  A    between atoms: C24_24  and  C23_25 
REMARK    7  A    between atoms: C23_25  and  C25_26 
ROOT
HETATM    1  C1    D T9001       0.519  -1.461   9.118  1.00 30.38     0.107 A 
HETATM    2  C2    D T9001       1.423  -2.542   8.839  1.00 29.65     0.113 A 
HETATM    3  C3    D T9001       2.802  -2.398   9.200  1.00 28.21     0.045 A 
HETATM    4  C4    D T9001       3.296  -1.230   9.816  1.00 27.21     0.088 A 
HETATM    5  C5    D T9001       2.389  -0.140  10.081  1.00 26.27     0.055 A 
HETATM    6  C6    D T9001       1.011  -0.275   9.727  1.00 29.22     0.026 A 
HETATM    7  N7    D T9001       4.613  -1.180  10.134  1.00 25.99    -0.224 NA
HETATM    8  C8    D T9001       5.056  -0.048  10.718  1.00 24.59     0.200 A 
HETATM    9  N9    D T9001       4.311   1.041  11.010  1.00 25.70    -0.205 NA
HETATM   10  C10   D T9001       2.969   1.007  10.693  1.00 27.48     0.166 A 
ENDROOT
BRANCH  10  11
HETATM   11  N14   D T9001       2.152   2.146  10.983  1.00 23.22    -0.227 NA
BRANCH  11  12
HETATM   12  C15   D T9001       2.486   3.237  11.823  1.00 24.25     0.084 A 
HETATM   13  C16   D T9001       2.571   3.097  13.246  1.00 25.06     0.033 A 
HETATM   14  C17   D T9001       2.895   4.187  14.068  1.00 28.28     0.087 A 
HETATM   15  C18   D T9001       3.145   5.455  13.490  1.00 25.55     0.151 A 
HETATM   16 CL     D T9001       2.971   3.939  15.770  1.00 31.70    -0.080 Cl
HETATM   17  C19   D T9001       3.070   5.629  12.085  1.00 24.70     0.032 A 
HETATM   18  F21   D T9001       3.453   6.511  14.257  1.00 27.22    -0.203 F 
HETATM   19  C20   D T9001       2.742   4.522  11.255  1.00 24.32     0.021 A 
ENDBRANCH  11  12
ENDBRANCH  10  11
BRANCH   1  20
HETATM   20  N13   D T9001      -0.852  -1.641   8.783  1.00 34.61    -0.210 NA
HETATM   21  C26   D T9001      -1.797  -2.064   9.734  1.00 36.24     0.256 C 
HETATM   22  O27   D T9001      -1.570  -2.315  10.918  1.00 39.97    -0.270 OA
BRANCH  21  23
HETATM   23  C24   D T9001      -3.183  -2.224   9.130  1.00 35.38     0.092 C 
BRANCH  23  24
HETATM   24  C23   D T9001      -4.237  -1.372   9.857  1.00 34.93     0.051 C 
BRANCH  24  25
HETATM   25  C25   D T9001      -3.943   0.112   9.608  1.00 37.23     0.339 C 
HETATM   26  N33   D T9001      -3.860   0.871  10.910  1.00 41.10     0.618 N 
ENDBRANCH  24  25
ENDBRANCH  23  24
ENDBRANCH  21  23
ENDBRANCH   1  20
BRANCH   2  27
HETATM   27  O11   D T9001       0.849  -3.653   8.229  1.00 31.09    -0.327 OA
HETATM   28  C12   D T9001       0.801  -4.903   8.922  1.00 29.66     0.181 C 
ENDBRANCH   2  27
TORSDOF 7
ENDMDL
MODEL 2
REMARK VINA RESULT:    -7.245      1.098      1.490
REMARK INTER + INTRA:         -11.191
REMARK INTER:                 -10.256
REMARK INTRA:                  -0.935
REMARK UNBOUND:                -0.981
REMARK  7 active torsions:
REMARK  status: ('A' for Active; 'I' for Inactive)
REMARK    1  A    between atoms: C1_1  and  N13_22 
REMARK    2  A    between atoms: C2_2  and  O11_20 
REMARK    3  A    between atoms: C10_10  and  N14_11 
REMARK    4  A    between atoms: N14_11  and  C15_12 
REMARK       I    between atoms: N13_22  and  C26_23 
REMARK    5  A    between atoms: C26_23  and  C24_24 
REMARK    6  A    between atoms: C24_24  and  C23_25 
REMARK    7  A    between atoms: C23_25  and  C25_26 
ROOT
HETATM    1  C1    D T9001      -0.025  -1.341   9.101  1.00 30.38     0.107 A 
HETATM    2  C2    D T9001       0.752  -2.512   8.802  1.00 29.65     0.113 A 
HETATM    3  C3    D T9001       2.165  -2.480   9.035  1.00 28.21     0.045 A 
HETATM    4  C4    D T9001       2.813  -1.337   9.546  1.00 27.21     0.088 A 
HETATM    5  C5    D T9001       2.034  -0.158   9.830  1.00 26.27     0.055 A 
HETATM    6  C6    D T9001       0.623  -0.180   9.604  1.00 29.22     0.026 A 
HETATM    7  N7    D T9001       4.153  -1.396   9.747  1.00 25.99    -0.224 NA
HETATM    8  C8    D T9001       4.745  -0.285  10.232  1.00 24.59     0.200 A 
HETATM    9  N9    D T9001       4.128   0.880  10.530  1.00 25.70    -0.205 NA
HETATM   10  C10   D T9001       2.766   0.956  10.331  1.00 27.48     0.166 A 
ENDROOT
BRANCH  10  11
HETATM   11  N14   D T9001       2.082   2.177  10.631  1.00 23.22    -0.227 NA
BRANCH  11  12
HETATM   12  C15   D T9001       2.484   3.169  11.559  1.00 24.25     0.084 A 
HETATM   13  C16   D T9001       2.446   2.942  12.973  1.00 25.06     0.033 A 
HETATM   14  C17   D T9001       2.840   3.936  13.882  1.00 28.28     0.087 A 
HETATM   15  C18   D T9001       3.288   5.190  13.403  1.00 25.55     0.151 A 
HETATM   16 CL     D T9001       2.758   3.588  15.566  1.00 31.70    -0.080 Cl
HETATM   17  C19   D T9001       3.341   5.448  12.010  1.00 24.70     0.032 A 
HETATM   18  F21   D T9001       3.668   6.155  14.254  1.00 27.22    -0.203 F 
HETATM   19  C20   D T9001       2.940   4.439  11.091  1.00 24.32     0.021 A 
ENDBRANCH  11  12
ENDBRANCH  10  11
BRANCH   1  20
HETATM   20  N13   D T9001      -1.431  -1.408   8.894  1.00 34.61    -0.210 NA
HETATM   21  C26   D T9001      -2.321  -1.686   9.946  1.00 36.24     0.256 C 
HETATM   22  O27   D T9001      -2.012  -1.893  11.119  1.00 39.97    -0.270 OA
BRANCH  21  23
HETATM   23  C24   D T9001      -3.764  -1.747   9.471  1.00 35.38     0.092 C 
BRANCH  23  24
HETATM   24  C23   D T9001      -4.555  -2.872  10.161  1.00 34.93     0.051 C 
BRANCH  24  25
HETATM   25  C25   D T9001      -5.079  -3.844   9.097  1.00 37.23     0.339 C 
HETATM   26  N33   D T9001      -3.944  -4.407   8.277  1.00 41.10     0.618 N 
ENDBRANCH  24  25
ENDBRANCH  23  24
ENDBRANCH  21  23
ENDBRANCH   1  20
BRANCH   2  27
HETATM   27  O11   D T9001       0.030  -3.591   8.301  1.00 31.09    -0.327 OA
HETATM   28  C12   D T9001      -0.126  -4.774   9.090  1.00 29.66     0.181 C 
ENDBRANCH   2  27
TORSDOF 7
ENDMDL
MODEL 3
REMARK VINA RESULT:    -7.136      2.165      2.592
REMARK INTER + INTRA:         -11.038
REMARK INTER:                 -10.107
REMARK INTRA:                  -0.931
REMARK UNBOUND:                -0.981
REMARK  7 active torsions:
REMARK  status: ('A' for Active; 'I' for Inactive)
REMARK    1  A    between atoms: C1_1  and  N13_22 
REMARK    2  A    between atoms: C2_2  and  O11_20 
REMARK    3  A    between atoms: C10_10  and  N14_11 
REMARK    4  A    between atoms: N14_11  and  C15_12 
REMARK       I    between atoms: N13_22  and  C26_23 
REMARK    5  A    between atoms: C26_23  and  C24_24 
REMARK    6  A    between atoms: C24_24  and  C23_25 
REMARK    7  A    between atoms: C23_25  and  C25_26 
ROOT
HETATM    1  C1    D T9001      -0.894  -0.932  10.208  1.00 30.38     0.107 A 
HETATM    2  C2    D T9001      -0.198  -1.921   9.432  1.00 29.65     0.113 A 
HETATM    3  C3    D T9001       1.093  -2.358   9.870  1.00 28.21     0.045 A 
HETATM    4  C4    D T9001       1.700  -1.846  11.035  1.00 27.21     0.088 A 
HETATM    5  C5    D T9001       1.007  -0.842  11.804  1.00 26.27     0.055 A 
HETATM    6  C6    D T9001      -0.283  -0.402  11.377  1.00 29.22     0.026 A 
HETATM    7  N7    D T9001       2.921  -2.323  11.385  1.00 25.99    -0.224 NA
HETATM    8  C8    D T9001       3.477  -1.811  12.502  1.00 24.59     0.200 A 
HETATM    9  N9    D T9001       2.934  -0.865  13.299  1.00 25.70    -0.205 NA
HETATM   10  C10   D T9001       1.693  -0.369  12.958  1.00 27.48     0.166 A 
ENDROOT
BRANCH  10  11
HETATM   11  N14   D T9001       1.092   0.637  13.778  1.00 23.22    -0.227 NA
BRANCH  11  12
HETATM   12  C15   D T9001       1.634   1.907  14.098  1.00 24.25     0.084 A 
HETATM   13  C16   D T9001       2.219   2.752  13.101  1.00 25.06     0.033 A 
HETATM   14  C17   D T9001       2.759   4.004  13.432  1.00 28.28     0.087 A 
HETATM   15  C18   D T9001       2.729   4.451  14.775  1.00 25.55     0.151 A 
HETATM   16 CL     D T9001       3.451   4.958  12.177  1.00 31.70    -0.080 Cl
HETATM   17  C19   D T9001       2.157   3.641  15.787  1.00 24.70     0.032 A 
HETATM   18  F21   D T9001       3.242   5.643  15.114  1.00 27.22    -0.203 F 
HETATM   19  C20   D T9001       1.610   2.372  15.448  1.00 24.32     0.021 A 
ENDBRANCH  11  12
ENDBRANCH  10  11
BRANCH   1  20
HETATM   20  N13   D T9001      -2.190  -0.539   9.772  1.00 34.61    -0.210 NA
HETATM   21  C26   D T9001      -3.337  -1.288  10.092  1.00 36.24     0.256 C 
HETATM   22  O27   D T9001      -3.362  -2.322  10.759  1.00 39.97    -0.270 OA
BRANCH  21  23
HETATM   23  C24   D T9001      -4.595  -0.694   9.479  1.00 35.38     0.092 C 
BRANCH  23  24
HETATM   24  C23   D T9001      -4.470   0.822   9.249  1.00 34.93     0.051 C 
BRANCH  24  25
HETATM   25  C25   D T9001      -5.799   1.360   8.707  1.00 37.23     0.339 C 
HETATM   26  N33   D T9001      -6.869   0.297   8.753  1.00 41.10     0.618 N 
ENDBRANCH  24  25
ENDBRANCH  23  24
ENDBRANCH  21  23
ENDBRANCH   1  20
BRANCH   2  27
HETATM   27  O11   D T9001      -0.872  -2.368   8.299  1.00 31.09    -0.327 OA
HETATM   28  C12   D T9001      -0.969  -3.770   8.032  1.00 29.66     0.181 C 
ENDBRANCH   2  27
TORSDOF 7
ENDMDL
MODEL 4
REMARK VINA RESULT:    -6.992      3.614      7.214
REMARK INTER + INTRA:         -10.835
REMARK INTER:                  -9.828
REMARK INTRA:                  -1.007
REMARK UNBOUND:                -0.981
REMARK  7 active torsions:
REMARK  status: ('A' for Active; 'I' for Inactive)
REMARK    1  A    between atoms: C1_1  and  N13_22 
REMARK    2  A    between atoms: C2_2  and  O11_20 
REMARK    3  A    between atoms: C10_10  and  N14_11 
REMARK    4  A    between atoms: N14_11  and  C15_12 
REMARK       I    between atoms: N13_22  and  C26_23 
REMARK    5  A    between atoms: C26_23  and  C24_24 
REMARK    6  A    between atoms: C24_24  and  C23_25 
REMARK    7  A    between atoms: C23_25  and  C25_26 
ROOT
HETATM    1  C1    D T9001       1.641   0.166  10.670  1.00 30.38     0.107 A 
HETATM    2  C2    D T9001       2.720  -0.313   9.851  1.00 29.65     0.113 A 
HETATM    3  C3    D T9001       2.519  -1.494   9.067  1.00 28.21     0.045 A 
HETATM    4  C4    D T9001       1.298  -2.199   9.076  1.00 27.21     0.088 A 
HETATM    5  C5    D T9001       0.221  -1.725   9.911  1.00 26.27     0.055 A 
HETATM    6  C6    D T9001       0.411  -0.546  10.695  1.00 29.22     0.026 A 
HETATM    7  N7    D T9001       1.188  -3.303   8.296  1.00 25.99    -0.224 NA
HETATM    8  C8    D T9001       0.009  -3.957   8.330  1.00 24.59     0.200 A 
HETATM    9  N9    D T9001      -1.067  -3.619   9.073  1.00 25.70    -0.205 NA
HETATM   10  C10   D T9001      -0.973  -2.500   9.872  1.00 27.48     0.166 A 
ENDROOT
BRANCH  10  11
HETATM   11  N14   D T9001      -2.093  -2.116  10.676  1.00 23.22    -0.227 NA
BRANCH  11  12
HETATM   12  C15   D T9001      -3.159  -1.264  10.295  1.00 24.25     0.084 A 
HETATM   13  C16   D T9001      -3.172   0.128  10.633  1.00 25.06     0.033 A 
HETATM   14  C17   D T9001      -4.237   0.960  10.255  1.00 28.28     0.087 A 
HETATM   15  C18   D T9001      -5.324   0.424   9.525  1.00 25.55     0.151 A 
HETATM   16 CL     D T9001      -4.181   2.621  10.705  1.00 31.70    -0.080 Cl
HETATM   17  C19   D T9001      -5.344  -0.949   9.173  1.00 24.70     0.032 A 
HETATM   18  F21   D T9001      -6.354   1.200   9.157  1.00 27.22    -0.203 F 
HETATM   19  C20   D T9001      -4.263  -1.790   9.557  1.00 24.32     0.021 A 
ENDBRANCH  11  12
ENDBRANCH  10  11
BRANCH   1  20
HETATM   20  N13   D T9001       1.853   1.361  11.412  1.00 34.61    -0.210 NA
HETATM   21  C26   D T9001       2.176   1.334  12.781  1.00 36.24     0.256 C 
HETATM   22  O27   D T9001       2.313   0.325  13.472  1.00 39.97    -0.270 OA
BRANCH  21  23
HETATM   23  C24   D T9001       2.310   2.733  13.363  1.00 35.38     0.092 C 
BRANCH  23  24
HETATM   24  C23   D T9001       3.693   2.967  13.997  1.00 34.93     0.051 C 
BRANCH  24  25
HETATM   25  C25   D T9001       3.578   4.066  15.059  1.00 37.23     0.339 C 
HETATM   26  N33   D T9001       2.421   3.797  15.990  1.00 41.10     0.618 N 
ENDBRANCH  24  25
ENDBRANCH  23  24
ENDBRANCH  21  23
ENDBRANCH   1  20
BRANCH   2  27
HETATM   27  O11   D T9001       3.887   0.444   9.905  1.00 31.09    -0.327 OA
HETATM   28  C12   D T9001       5.088  -0.132  10.425  1.00 29.66     0.181 C 
ENDBRANCH   2  27
TORSDOF 7
ENDMDL
MODEL 5
REMARK VINA RESULT:    -6.680      4.240      7.509
REMARK INTER + INTRA:         -10.395
REMARK INTER:                  -9.551
REMARK INTRA:                  -0.844
REMARK UNBOUND:                -0.981
REMARK  7 active torsions:
REMARK  status: ('A' for Active; 'I' for Inactive)
REMARK    1  A    between atoms: C1_1  and  N13_22 
REMARK    2  A    between atoms: C2_2  and  O11_20 
REMARK    3  A    between atoms: C10_10  and  N14_11 
REMARK    4  A    between atoms: N14_11  and  C15_12 
REMARK       I    between atoms: N13_22  and  C26_23 
REMARK    5  A    between atoms: C26_23  and  C24_24 
REMARK    6  A    between atoms: C24_24  and  C23_25 
REMARK    7  A    between atoms: C23_25  and  C25_26 
ROOT
HETATM    1  C1    D T9001       3.075   0.676  11.839  1.00 30.38     0.107 A 
HETATM    2  C2    D T9001       4.216   0.240  11.082  1.00 29.65     0.113 A 
HETATM    3  C3    D T9001       4.065  -0.860  10.178  1.00 28.21     0.045 A 
HETATM    4  C4    D T9001       2.834  -1.527  10.012  1.00 27.21     0.088 A 
HETATM    5  C5    D T9001       1.694  -1.098  10.784  1.00 26.27     0.055 A 
HETATM    6  C6    D T9001       1.834   0.000  11.686  1.00 29.22     0.026 A 
HETATM    7  N7    D T9001       2.775  -2.553   9.127  1.00 25.99    -0.224 NA
HETATM    8  C8    D T9001       1.584  -3.174   8.993  1.00 24.59     0.200 A 
HETATM    9  N9    D T9001       0.450  -2.872   9.662  1.00 25.70    -0.205 NA
HETATM   10  C10   D T9001       0.493  -1.831  10.566  1.00 27.48     0.166 A 
ENDROOT
BRANCH  10  11
HETATM   11  N14   D T9001      -0.689  -1.488  11.296  1.00 23.22    -0.227 NA
BRANCH  11  12
HETATM   12  C15   D T9001      -1.990  -1.302  10.765  1.00 24.25     0.084 A 
HETATM   13  C16   D T9001      -2.808  -2.408  10.363  1.00 25.06     0.033 A 
HETATM   14  C17   D T9001      -4.092  -2.210   9.832  1.00 28.28     0.087 A 
HETATM   15  C18   D T9001      -4.599  -0.896   9.687  1.00 25.55     0.151 A 
HETATM   16 CL     D T9001      -5.010  -3.590   9.367  1.00 31.70    -0.080 Cl
HETATM   17  C19   D T9001      -3.817   0.221  10.075  1.00 24.70     0.032 A 
HETATM   18  F21   D T9001      -5.822  -0.684   9.179  1.00 27.22    -0.203 F 
HETATM   19  C20   D T9001      -2.516   0.017  10.614  1.00 24.32     0.021 A 
ENDBRANCH  11  12
ENDBRANCH  10  11
BRANCH   1  20
HETATM   20  N13   D T9001       3.241   1.793  12.704  1.00 34.61    -0.210 NA
HETATM   21  C26   D T9001       2.792   3.077  12.349  1.00 36.24     0.256 C 
HETATM   22  O27   D T9001       2.224   3.380  11.300  1.00 39.97    -0.270 OA
BRANCH  21  23
HETATM   23  C24   D T9001       3.121   4.111  13.414  1.00 35.38     0.092 C 
BRANCH  23  24
HETATM   24  C23   D T9001       3.627   3.465  14.715  1.00 34.93     0.051 C 
BRANCH  24  25
HETATM   25  C25   D T9001       2.631   3.758  15.843  1.00 37.23     0.339 C 
HETATM   26  N33   D T9001       2.007   5.122  15.669  1.00 41.10     0.618 N 
ENDBRANCH  24  25
ENDBRANCH  23  24
ENDBRANCH  21  23
ENDBRANCH   1  20
BRANCH   2  27
HETATM   27  O11   D T9001       5.388   0.955  11.312  1.00 31.09    -0.327 OA
HETATM   28  C12   D T9001       6.454   0.358  12.056  1.00 29.66     0.181 C 
ENDBRANCH   2  27
TORSDOF 7
ENDMDL
MODEL 6
REMARK VINA RESULT:    -6.679      4.900      9.018
REMARK INTER + INTRA:         -10.394
REMARK INTER:                  -9.381
REMARK INTRA:                  -1.012
REMARK UNBOUND:                -0.981
REMARK  7 active torsions:
REMARK  status: ('A' for Active; 'I' for Inactive)
REMARK    1  A    between atoms: C1_1  and  N13_22 
REMARK    2  A    between atoms: C2_2  and  O11_20 
REMARK    3  A    between atoms: C10_10  and  N14_11 
REMARK    4  A    between atoms: N14_11  and  C15_12 
REMARK       I    between atoms: N13_22  and  C26_23 
REMARK    5  A    between atoms: C26_23  and  C24_24 
REMARK    6  A    between atoms: C24_24  and  C23_25 
REMARK    7  A    between atoms: C23_25  and  C25_26 
ROOT
HETATM    1  C1    D T9001       0.499  -1.161  11.112  1.00 30.38     0.107 A 
HETATM    2  C2    D T9001       0.453  -0.069  12.044  1.00 29.65     0.113 A 
HETATM    3  C3    D T9001      -0.747   0.707  12.139  1.00 28.21     0.045 A 
HETATM    4  C4    D T9001      -1.880   0.432  11.345  1.00 27.21     0.088 A 
HETATM    5  C5    D T9001      -1.826  -0.655  10.399  1.00 26.27     0.055 A 
HETATM    6  C6    D T9001      -0.634  -1.436  10.299  1.00 29.22     0.026 A 
HETATM    7  N7    D T9001      -2.979   1.210  11.506  1.00 25.99    -0.224 NA
HETATM    8  C8    D T9001      -4.045   0.925  10.729  1.00 24.59     0.200 A 
HETATM    9  N9    D T9001      -4.115  -0.058   9.805  1.00 25.70    -0.205 NA
HETATM   10  C10   D T9001      -3.006  -0.857   9.628  1.00 27.48     0.166 A 
ENDROOT
BRANCH  10  11
HETATM   11  N14   D T9001      -3.044  -1.904   8.653  1.00 23.22    -0.227 NA
BRANCH  11  12
HETATM   12  C15   D T9001      -3.724  -3.143   8.764  1.00 24.25     0.084 A 
HETATM   13  C16   D T9001      -3.101  -4.382   8.405  1.00 25.06     0.033 A 
HETATM   14  C17   D T9001      -3.787  -5.601   8.512  1.00 28.28     0.087 A 
HETATM   15  C18   D T9001      -5.121  -5.619   8.986  1.00 25.55     0.151 A 
HETATM   16 CL     D T9001      -2.971  -7.046   8.054  1.00 31.70    -0.080 Cl
HETATM   17  C19   D T9001      -5.768  -4.411   9.352  1.00 24.70     0.032 A 
HETATM   18  F21   D T9001      -5.796  -6.772   9.094  1.00 27.22    -0.203 F 
HETATM   19  C20   D T9001      -5.069  -3.177   9.242  1.00 24.32     0.021 A 
ENDBRANCH  11  12
ENDBRANCH  10  11
BRANCH   1  20
HETATM   20  N13   D T9001       1.689  -1.939  11.061  1.00 34.61    -0.210 NA
HETATM   21  C26   D T9001       2.653  -1.751  10.054  1.00 36.24     0.256 C 
HETATM   22  O27   D T9001       2.593  -0.929   9.140  1.00 39.97    -0.270 OA
BRANCH  21  23
HETATM   23  C24   D T9001       3.812  -2.726  10.185  1.00 35.38     0.092 C 
BRANCH  23  24
HETATM   24  C23   D T9001       5.163  -2.006  10.342  1.00 34.93     0.051 C 
BRANCH  24  25
HETATM   25  C25   D T9001       5.146  -1.182  11.634  1.00 37.23     0.339 C 
HETATM   26  N33   D T9001       5.493   0.260  11.357  1.00 41.10     0.618 N 
ENDBRANCH  24  25
ENDBRANCH  23  24
ENDBRANCH  21  23
ENDBRANCH   1  20
BRANCH   2  27
HETATM   27  O11   D T9001       1.615   0.129  12.784  1.00 31.09    -0.327 OA
HETATM   28  C12   D T9001       2.356   1.344  12.638  1.00 29.66     0.181 C 
ENDBRANCH   2  27
TORSDOF 7
ENDMDL
MODEL 7
REMARK VINA RESULT:    -6.616      5.187      9.603
REMARK INTER + INTRA:         -10.304
REMARK INTER:                  -9.336
REMARK INTRA:                  -0.968
REMARK UNBOUND:                -0.981
REMARK  7 active torsions:
REMARK  status: ('A' for Active; 'I' for Inactive)
REMARK    1  A    between atoms: C1_1  and  N13_22 
REMARK    2  A    between atoms: C2_2  and  O11_20 
REMARK    3  A    between atoms: C10_10  and  N14_11 
REMARK    4  A    between atoms: N14_11  and  C15_12 
REMARK       I    between atoms: N13_22  and  C26_23 
REMARK    5  A    between atoms: C26_23  and  C24_24 
REMARK    6  A    between atoms: C24_24  and  C23_25 
REMARK    7  A    between atoms: C23_25  and  C25_26 
ROOT
HETATM    1  C1    D T9001      -2.419  -1.769   9.535  1.00 30.38     0.107 A 
HETATM    2  C2    D T9001      -3.723  -1.205   9.747  1.00 29.65     0.113 A 
HETATM    3  C3    D T9001      -4.874  -2.026   9.522  1.00 28.21     0.045 A 
HETATM    4  C4    D T9001      -4.766  -3.366   9.098  1.00 27.21     0.088 A 
HETATM    5  C5    D T9001      -3.456  -3.926   8.870  1.00 26.27     0.055 A 
HETATM    6  C6    D T9001      -2.301  -3.115   9.095  1.00 29.22     0.026 A 
HETATM    7  N7    D T9001      -5.906  -4.077   8.918  1.00 25.99    -0.224 NA
HETATM    8  C8    D T9001      -5.770  -5.355   8.508  1.00 24.59     0.200 A 
HETATM    9  N9    D T9001      -4.604  -5.988   8.254  1.00 25.70    -0.205 NA
HETATM   10  C10   D T9001      -3.434  -5.280   8.432  1.00 27.48     0.166 A 
ENDROOT
BRANCH  10  11
HETATM   11  N14   D T9001      -2.181  -5.919   8.167  1.00 23.22    -0.227 NA
BRANCH  11  12
HETATM   12  C15   D T9001      -1.456  -6.762   9.045  1.00 24.25     0.084 A 
HETATM   13  C16   D T9001      -1.950  -8.049   9.437  1.00 25.06     0.033 A 
HETATM   14  C17   D T9001      -1.226  -8.871  10.313  1.00 28.28     0.087 A 
HETATM   15  C18   D T9001       0.019  -8.432  10.825  1.00 25.55     0.151 A 
HETATM   16 CL     D T9001      -1.890 -10.401  10.742  1.00 31.70    -0.080 Cl
HETATM   17  C19   D T9001       0.537  -7.165  10.457  1.00 24.70     0.032 A 
HETATM   18  F21   D T9001       0.726  -9.201  11.666  1.00 27.22    -0.203 F 
HETATM   19  C20   D T9001      -0.199  -6.333   9.569  1.00 24.32     0.021 A 
ENDBRANCH  11  12
ENDBRANCH  10  11
BRANCH   1  20
HETATM   20  N13   D T9001      -1.289  -0.945   9.799  1.00 34.61    -0.210 NA
HETATM   21  C26   D T9001      -0.613  -0.989  11.031  1.00 36.24     0.256 C 
HETATM   22  O27   D T9001      -0.895  -1.713  11.986  1.00 39.97    -0.270 OA
BRANCH  21  23
HETATM   23  C24   D T9001       0.531   0.011  11.090  1.00 35.38     0.092 C 
BRANCH  23  24
HETATM   24  C23   D T9001       0.287   1.111  12.138  1.00 34.93     0.051 C 
BRANCH  24  25
HETATM   25  C25   D T9001       1.476   2.078  12.139  1.00 37.23     0.339 C 
HETATM   26  N33   D T9001       2.042   2.236  13.529  1.00 41.10     0.618 N 
ENDBRANCH  24  25
ENDBRANCH  23  24
ENDBRANCH  21  23
ENDBRANCH   1  20
BRANCH   2  27
HETATM   27  O11   D T9001      -3.734   0.123  10.164  1.00 31.09    -0.327 OA
HETATM   28  C12   D T9001      -4.581   1.070   9.507  1.00 29.66     0.181 C 
ENDBRANCH   2  27
TORSDOF 7
ENDMDL
MODEL 8
REMARK VINA RESULT:    -6.609      4.875      7.809
REMARK INTER + INTRA:         -10.295
REMARK INTER:                  -9.162
REMARK INTRA:                  -1.133
REMARK UNBOUND:                -0.981
REMARK  7 active torsions:
REMARK  status: ('A' for Active; 'I' for Inactive)
REMARK    1  A    between atoms: C1_1  and  N13_22 
REMARK    2  A    between atoms: C2_2  and  O11_20 
REMARK    3  A    between atoms: C10_10  and  N14_11 
REMARK    4  A    between atoms: N14_11  and  C15_12 
REMARK       I    between atoms: N13_22  and  C26_23 
REMARK    5  A    between atoms: C26_23  and  C24_24 
REMARK    6  A    between atoms: C24_24  and  C23_25 
REMARK    7  A    between atoms: C23_25  and  C25_26 
ROOT
HETATM    1  C1    D T9001      -3.228  -5.635   8.304  1.00 30.38     0.107 A 
HETATM    2  C2    D T9001      -4.612  -5.528   8.673  1.00 29.65     0.113 A 
HETATM    3  C3    D T9001      -5.117  -4.257   9.097  1.00 28.21     0.045 A 
HETATM    4  C4    D T9001      -4.297  -3.112   9.165  1.00 27.21     0.088 A 
HETATM    5  C5    D T9001      -2.904  -3.225   8.809  1.00 26.27     0.055 A 
HETATM    6  C6    D T9001      -2.391  -4.489   8.382  1.00 29.22     0.026 A 
HETATM    7  N7    D T9001      -4.857  -1.945   9.567  1.00 25.99    -0.224 NA
HETATM    8  C8    D T9001      -4.046  -0.868   9.626  1.00 24.59     0.200 A 
HETATM    9  N9    D T9001      -2.729  -0.848   9.327  1.00 25.70    -0.205 NA
HETATM   10  C10   D T9001      -2.143  -2.026   8.916  1.00 27.48     0.166 A 
ENDROOT
BRANCH  10  11
HETATM   11  N14   D T9001      -0.748  -2.041   8.598  1.00 23.22    -0.227 NA
BRANCH  11  12
HETATM   12  C15   D T9001       0.318  -2.386   9.466  1.00 24.25     0.084 A 
HETATM   13  C16   D T9001       0.338  -1.974  10.838  1.00 25.06     0.033 A 
HETATM   14  C17   D T9001       1.403  -2.316  11.686  1.00 28.28     0.087 A 
HETATM   15  C18   D T9001       2.482  -3.085  11.187  1.00 25.55     0.151 A 
HETATM   16 CL     D T9001       1.357  -1.776  13.320  1.00 31.70    -0.080 Cl
HETATM   17  C19   D T9001       2.493  -3.511   9.834  1.00 24.70     0.032 A 
HETATM   18  F21   D T9001       3.511  -3.421  11.979  1.00 27.22    -0.203 F 
HETATM   19  C20   D T9001       1.412  -3.163   8.978  1.00 24.32     0.021 A 
ENDBRANCH  11  12
ENDBRANCH  10  11
BRANCH   1  20
HETATM   20  N13   D T9001      -2.758  -6.900   7.852  1.00 34.61    -0.210 NA
HETATM   21  C26   D T9001      -2.066  -7.779   8.704  1.00 36.24     0.256 C 
HETATM   22  O27   D T9001      -1.796  -7.577   9.888  1.00 39.97    -0.270 OA
BRANCH  21  23
HETATM   23  C24   D T9001      -1.629  -9.045   7.984  1.00 35.38     0.092 C 
BRANCH  23  24
HETATM   24  C23   D T9001      -2.269  -9.171   6.590  1.00 34.93     0.051 C 
BRANCH  24  25
HETATM   25  C25   D T9001      -2.258 -10.643   6.163  1.00 37.23     0.339 C 
HETATM   26  N33   D T9001      -3.009 -10.834   4.868  1.00 41.10     0.618 N 
ENDBRANCH  24  25
ENDBRANCH  23  24
ENDBRANCH  21  23
ENDBRANCH   1  20
BRANCH   2  27
HETATM   27  O11   D T9001      -5.344  -6.708   8.576  1.00 31.09    -0.327 OA
HETATM   28  C12   D T9001      -5.830  -7.346   9.761  1.00 29.66     0.181 C 
ENDBRANCH   2  27
TORSDOF 7
ENDMDL
MODEL 9
REMARK VINA RESULT:    -6.527      4.159      7.489
REMARK INTER + INTRA:         -10.179
REMARK INTER:                  -9.166
REMARK INTRA:                  -1.013
REMARK UNBOUND:                -0.981
REMARK  7 active torsions:
REMARK  status: ('A' for Active; 'I' for Inactive)
REMARK    1  A    between atoms: C1_1  and  N13_22 
REMARK    2  A    between atoms: C2_2  and  O11_20 
REMARK    3  A    between atoms: C10_10  and  N14_11 
REMARK    4  A    between atoms: N14_11  and  C15_12 
REMARK       I    between atoms: N13_22  and  C26_23 
REMARK    5  A    between atoms: C26_23  and  C24_24 
REMARK    6  A    between atoms: C24_24  and  C23_25 
REMARK    7  A    between atoms: C23_25  and  C25_26 
ROOT
HETATM    1  C1    D T9001       3.197  -1.510   9.915  1.00 30.38     0.107 A 
HETATM    2  C2    D T9001       4.075  -2.301  10.731  1.00 29.65     0.113 A 
HETATM    3  C3    D T9001       3.818  -3.703  10.863  1.00 28.21     0.045 A 
HETATM    4  C4    D T9001       2.730  -4.327  10.219  1.00 27.21     0.088 A 
HETATM    5  C5    D T9001       1.841  -3.528   9.412  1.00 26.27     0.055 A 
HETATM    6  C6    D T9001       2.091  -2.129   9.272  1.00 29.22     0.026 A 
HETATM    7  N7    D T9001       2.564  -5.663  10.388  1.00 25.99    -0.224 NA
HETATM    8  C8    D T9001       1.512  -6.230   9.762  1.00 24.59     0.200 A 
HETATM    9  N9    D T9001       0.608  -5.591   8.989  1.00 25.70    -0.205 NA
HETATM   10  C10   D T9001       0.761  -4.232   8.806  1.00 27.48     0.166 A 
ENDROOT
BRANCH  10  11
HETATM   11  N14   D T9001      -0.182  -3.523   7.997  1.00 23.22    -0.227 NA
BRANCH  11  12
HETATM   12  C15   D T9001      -1.398  -2.936   8.429  1.00 24.25     0.084 A 
HETATM   13  C16   D T9001      -2.573  -3.720   8.669  1.00 25.06     0.033 A 
HETATM   14  C17   D T9001      -3.772  -3.125   9.089  1.00 28.28     0.087 A 
HETATM   15  C18   D T9001      -3.833  -1.725   9.285  1.00 25.55     0.151 A 
HETATM   16 CL     D T9001      -5.143  -4.134   9.349  1.00 31.70    -0.080 Cl
HETATM   17  C19   D T9001      -2.689  -0.919   9.059  1.00 24.70     0.032 A 
HETATM   18  F21   D T9001      -4.970  -1.135   9.684  1.00 27.22    -0.203 F 
HETATM   19  C20   D T9001      -1.474  -1.524   8.633  1.00 24.32     0.021 A 
ENDBRANCH  11  12
ENDBRANCH  10  11
BRANCH   1  20
HETATM   20  N13   D T9001       3.493  -0.125   9.771  1.00 34.61    -0.210 NA
HETATM   21  C26   D T9001       2.988   0.836  10.664  1.00 36.24     0.256 C 
HETATM   22  O27   D T9001       2.265   0.612  11.635  1.00 39.97    -0.270 OA
BRANCH  21  23
HETATM   23  C24   D T9001       3.406   2.247  10.280  1.00 35.38     0.092 C 
BRANCH  23  24
HETATM   24  C23   D T9001       2.538   3.317  10.966  1.00 34.93     0.051 C 
BRANCH  24  25
HETATM   25  C25   D T9001       3.372   4.587  11.168  1.00 37.23     0.339 C 
HETATM   26  N33   D T9001       2.525   5.822  10.987  1.00 41.10     0.618 N 
ENDBRANCH  24  25
ENDBRANCH  23  24
ENDBRANCH  21  23
ENDBRANCH   1  20
BRANCH   2  27
HETATM   27  O11   D T9001       5.120  -1.601  11.329  1.00 31.09    -0.327 OA
HETATM   28  C12   D T9001       5.231  -1.564  12.755  1.00 29.66     0.181 C 
ENDBRANCH   2  27
TORSDOF 7
ENDMDL
