MODEL 1
REMARK VINA RESULT:    -7.635      0.000      0.000
REMARK INTER + INTRA:         -11.735
REMARK INTER:                 -10.759
REMARK INTRA:                  -0.975
REMARK UNBOUND:                -0.975
REMARK  7 active torsions:
REMARK  status: ('A' for Active; 'I' for Inactive)
REMARK    1  A    between atoms: C1_1  and  N13_22 
REMARK    2  A    between atoms: C2_2  and  O11_20 
REMARK    3  A    between atoms: C10_10  and  N14_11 
REMARK    4  A    between atoms: N14_11  and  C15_12 
REMARK       I    between atoms: N13_22  and  C26_23 
REMARK    5  A    between atoms: C26_23  and  C24_24 
REMARK    6  A    between atoms: C24_24  and  C23_25 
REMARK    7  A    between atoms: C23_25  and  C25_26 
ROOT
HETATM    1  C1    D T9001       8.485 -11.618  -1.917  1.00 30.38     0.107 A 
HETATM    2  C2    D T9001       9.852 -11.313  -1.601  1.00 29.65     0.113 A 
HETATM    3  C3    D T9001      10.743 -10.954  -2.663  1.00 28.21     0.045 A 
HETATM    4  C4    D T9001      10.319 -10.893  -4.005  1.00 27.21     0.088 A 
HETATM    5  C5    D T9001       8.949 -11.214  -4.324  1.00 26.27     0.055 A 
HETATM    6  C6    D T9001       8.052 -11.570  -3.271  1.00 29.22     0.026 A 
HETATM    7  N7    D T9001      11.225 -10.534  -4.950  1.00 25.99    -0.224 NA
HETATM    8  C8    D T9001      10.789 -10.488  -6.225  1.00 24.59     0.200 A 
HETATM    9  N9    D T9001       9.539 -10.773  -6.650  1.00 25.70    -0.205 NA
HETATM   10  C10   D T9001       8.605 -11.140  -5.704  1.00 27.48     0.166 A 
ENDROOT
BRANCH  10  11
HETATM   11  N14   D T9001       7.273 -11.454  -6.120  1.00 23.22    -0.227 NA
BRANCH  11  12
HETATM   12  C15   D T9001       6.133 -10.615  -6.026  1.00 24.25     0.084 A 
HETATM   13  C16   D T9001       5.230 -10.690  -4.917  1.00 25.06     0.033 A 
HETATM   14  C17   D T9001       4.103  -9.860  -4.839  1.00 28.28     0.087 A 
HETATM   15  C18   D T9001       3.841  -8.926  -5.871  1.00 25.55     0.151 A 
HETATM   16 CL     D T9001       3.060 -10.015  -3.477  1.00 31.70    -0.080 Cl
HETATM   17  C19   D T9001       4.716  -8.825  -6.983  1.00 24.70     0.032 A 
HETATM   18  F21   D T9001       2.767  -8.125  -5.818  1.00 27.22    -0.203 F 
HETATM   19  C20   D T9001       5.859  -9.668  -7.057  1.00 24.32     0.021 A 
ENDBRANCH  11  12
ENDBRANCH  10  11
BRANCH   1  20
HETATM   20  N13   D T9001       7.610 -11.938  -0.841  1.00 34.61    -0.210 NA
HETATM   21  C26   D T9001       6.764 -10.976  -0.264  1.00 36.24     0.256 C 
HETATM   22  O27   D T9001       6.676  -9.794  -0.602  1.00 39.97    -0.270 OA
BRANCH  21  23
HETATM   23  C24   D T9001       5.960 -11.544   0.894  1.00 35.38     0.092 C 
BRANCH  23  24
HETATM   24  C23   D T9001       4.768 -10.645   1.270  1.00 34.93     0.051 C 
BRANCH  24  25
HETATM   25  C25   D T9001       3.484 -11.238   0.680  1.00 37.23     0.339 C 
HETATM   26  N33   D T9001       3.075 -12.486   1.424  1.00 41.10     0.618 N 
ENDBRANCH  24  25
ENDBRANCH  23  24
ENDBRANCH  21  23
ENDBRANCH   1  20
BRANCH   2  27
HETATM   27  O11   D T9001      10.182 -11.400  -0.252  1.00 31.09    -0.327 OA
HETATM   28  C12   D T9001      10.500 -10.216   0.485  1.00 29.66     0.181 C 
ENDBRANCH   2  27
TORSDOF 7
ENDMDL
MODEL 2
REMARK VINA RESULT:    -7.479      2.112      2.675
REMARK INTER + INTRA:         -11.514
REMARK INTER:                 -10.600
REMARK INTRA:                  -0.915
REMARK UNBOUND:                -0.975
REMARK  7 active torsions:
REMARK  status: ('A' for Active; 'I' for Inactive)
REMARK    1  A    between atoms: C1_1  and  N13_22 
REMARK    2  A    between atoms: C2_2  and  O11_20 
REMARK    3  A    between atoms: C10_10  and  N14_11 
REMARK    4  A    between atoms: N14_11  and  C15_12 
REMARK       I    between atoms: N13_22  and  C26_23 
REMARK    5  A    between atoms: C26_23  and  C24_24 
REMARK    6  A    between atoms: C24_24  and  C23_25 
REMARK    7  A    between atoms: C23_25  and  C25_26 
ROOT
HETATM    1  C1    D T9001       6.860 -10.511  -0.407  1.00 30.38     0.107 A 
HETATM    2  C2    D T9001       8.072 -10.346   0.346  1.00 29.65     0.113 A 
HETATM    3  C3    D T9001       9.323 -10.641  -0.285  1.00 28.21     0.045 A 
HETATM    4  C4    D T9001       9.399 -11.090  -1.619  1.00 27.21     0.088 A 
HETATM    5  C5    D T9001       8.180 -11.271  -2.370  1.00 26.27     0.055 A 
HETATM    6  C6    D T9001       6.928 -10.975  -1.750  1.00 29.22     0.026 A 
HETATM    7  N7    D T9001      10.625 -11.338  -2.144  1.00 25.99    -0.224 NA
HETATM    8  C8    D T9001      10.665 -11.769  -3.422  1.00 24.59     0.200 A 
HETATM    9  N9    D T9001       9.599 -11.985  -4.222  1.00 25.70    -0.205 NA
HETATM   10  C10   D T9001       8.344 -11.739  -3.704  1.00 27.48     0.166 A 
ENDROOT
BRANCH  10  11
HETATM   11  N14   D T9001       7.193 -11.961  -4.524  1.00 23.22    -0.227 NA
BRANCH  11  12
HETATM   12  C15   D T9001       6.628 -11.057  -5.459  1.00 24.25     0.084 A 
HETATM   13  C16   D T9001       5.372 -10.410  -5.221  1.00 25.06     0.033 A 
HETATM   14  C17   D T9001       4.821  -9.524  -6.157  1.00 28.28     0.087 A 
HETATM   15  C18   D T9001       5.508  -9.256  -7.365  1.00 25.55     0.151 A 
HETATM   16 CL     D T9001       3.303  -8.792  -5.800  1.00 31.70    -0.080 Cl
HETATM   17  C19   D T9001       6.754  -9.878  -7.633  1.00 24.70     0.032 A 
HETATM   18  F21   D T9001       4.997  -8.415  -8.276  1.00 27.22    -0.203 F 
HETATM   19  C20   D T9001       7.311 -10.776  -6.680  1.00 24.32     0.021 A 
ENDBRANCH  11  12
ENDBRANCH  10  11
BRANCH   1  20
HETATM   20  N13   D T9001       5.632 -10.178   0.230  1.00 34.61    -0.210 NA
HETATM   21  C26   D T9001       4.903 -11.121   0.974  1.00 36.24     0.256 C 
HETATM   22  O27   D T9001       5.223 -12.296   1.162  1.00 39.97    -0.270 OA
BRANCH  21  23
HETATM   23  C24   D T9001       3.608 -10.543   1.518  1.00 35.38     0.092 C 
BRANCH  23  24
HETATM   24  C23   D T9001       3.779  -9.960   2.932  1.00 34.93     0.051 C 
BRANCH  24  25
HETATM   25  C25   D T9001       4.151  -8.477   2.823  1.00 37.23     0.339 C 
HETATM   26  N33   D T9001       2.948  -7.600   3.069  1.00 41.10     0.618 N 
ENDBRANCH  24  25
ENDBRANCH  23  24
ENDBRANCH  21  23
ENDBRANCH   1  20
BRANCH   2  27
HETATM   27  O11   D T9001       7.901  -9.900   1.653  1.00 31.09    -0.327 OA
HETATM   28  C12   D T9001       8.502  -8.673   2.075  1.00 29.66     0.181 C 
ENDBRANCH   2  27
TORSDOF 7
ENDMDL
MODEL 3
REMARK VINA RESULT:    -7.255      3.772      7.853
REMARK INTER + INTRA:         -11.200
REMARK INTER:                 -10.111
REMARK INTRA:                  -1.088
REMARK UNBOUND:                -0.975
REMARK  7 active torsions:
REMARK  status: ('A' for Active; 'I' for Inactive)
REMARK    1  A    between atoms: C1_1  and  N13_22 
REMARK    2  A    between atoms: C2_2  and  O11_20 
REMARK    3  A    between atoms: C10_10  and  N14_11 
REMARK    4  A    between atoms: N14_11  and  C15_12 
REMARK       I    between atoms: N13_22  and  C26_23 
REMARK    5  A    between atoms: C26_23  and  C24_24 
REMARK    6  A    between atoms: C24_24  and  C23_25 
REMARK    7  A    between atoms: C23_25  and  C25_26 
ROOT
HETATM    1  C1    D T9001       8.348 -11.604  -4.630  1.00 30.38     0.107 A 
HETATM    2  C2    D T9001       7.326 -11.312  -5.595  1.00 29.65     0.113 A 
HETATM    3  C3    D T9001       6.017 -10.962  -5.132  1.00 28.21     0.045 A 
HETATM    4  C4    D T9001       5.704 -10.897  -3.759  1.00 27.21     0.088 A 
HETATM    5  C5    D T9001       6.727 -11.205  -2.790  1.00 26.27     0.055 A 
HETATM    6  C6    D T9001       8.036 -11.552  -3.243  1.00 29.22     0.026 A 
HETATM    7  N7    D T9001       4.442 -10.548  -3.404  1.00 25.99    -0.224 NA
HETATM    8  C8    D T9001       4.172 -10.497  -2.083  1.00 24.59     0.200 A 
HETATM    9  N9    D T9001       5.038 -10.771  -1.084  1.00 25.70    -0.205 NA
HETATM   10  C10   D T9001       6.325 -11.129  -1.426  1.00 27.48     0.166 A 
ENDROOT
BRANCH  10  11
HETATM   11  N14   D T9001       7.267 -11.429  -0.392  1.00 23.22    -0.227 NA
BRANCH  11  12
HETATM   12  C15   D T9001       7.895 -10.504   0.481  1.00 24.25     0.084 A 
HETATM   13  C16   D T9001       9.048  -9.754   0.081  1.00 25.06     0.033 A 
HETATM   14  C17   D T9001       9.665  -8.847   0.956  1.00 28.28     0.087 A 
HETATM   15  C18   D T9001       9.148  -8.663   2.261  1.00 25.55     0.151 A 
HETATM   16 CL     D T9001      11.051  -7.988   0.405  1.00 31.70    -0.080 Cl
HETATM   17  C19   D T9001       8.008  -9.389   2.688  1.00 24.70     0.032 A 
HETATM   18  F21   D T9001       9.725  -7.804   3.114  1.00 27.22    -0.203 F 
HETATM   19  C20   D T9001       7.384 -10.307   1.798  1.00 24.32     0.021 A 
ENDBRANCH  11  12
ENDBRANCH  10  11
BRANCH   1  20
HETATM   20  N13   D T9001       9.650 -11.915  -5.114  1.00 34.61    -0.210 NA
HETATM   21  C26   D T9001      10.625 -10.922  -5.307  1.00 36.24     0.256 C 
HETATM   22  O27   D T9001      10.483  -9.717  -5.089  1.00 39.97    -0.270 OA
BRANCH  21  23
HETATM   23  C24   D T9001      11.916 -11.490  -5.871  1.00 35.38     0.092 C 
BRANCH  23  24
HETATM   24  C23   D T9001      11.669 -12.712  -6.773  1.00 34.93     0.051 C 
BRANCH  24  25
HETATM   25  C25   D T9001      12.795 -12.808  -7.810  1.00 37.23     0.339 C 
HETATM   26  N33   D T9001      12.818 -11.585  -8.694  1.00 41.10     0.618 N 
ENDBRANCH  24  25
ENDBRANCH  23  24
ENDBRANCH  21  23
ENDBRANCH   1  20
BRANCH   2  27
HETATM   27  O11   D T9001       7.725 -11.402  -6.925  1.00 31.09    -0.327 OA
HETATM   28  C12   D T9001       7.785 -10.225  -7.736  1.00 29.66     0.181 C 
ENDBRANCH   2  27
TORSDOF 7
ENDMDL
MODEL 4
REMARK VINA RESULT:    -7.162      3.365      4.716
REMARK INTER + INTRA:         -11.068
REMARK INTER:                 -10.091
REMARK INTRA:                  -0.977
REMARK UNBOUND:                -0.975
REMARK  7 active torsions:
REMARK  status: ('A' for Active; 'I' for Inactive)
REMARK    1  A    between atoms: C1_1  and  N13_22 
REMARK    2  A    between atoms: C2_2  and  O11_20 
REMARK    3  A    between atoms: C10_10  and  N14_11 
REMARK    4  A    between atoms: N14_11  and  C15_12 
REMARK       I    between atoms: N13_22  and  C26_23 
REMARK    5  A    between atoms: C26_23  and  C24_24 
REMARK    6  A    between atoms: C24_24  and  C23_25 
REMARK    7  A    between atoms: C23_25  and  C25_26 
ROOT
HETATM    1  C1    D T9001       6.587  -8.616   1.506  1.00 30.38     0.107 A 
HETATM    2  C2    D T9001       7.803  -8.112   2.080  1.00 29.65     0.113 A 
HETATM    3  C3    D T9001       9.055  -8.576   1.563  1.00 28.21     0.045 A 
HETATM    4  C4    D T9001       9.129  -9.511   0.511  1.00 27.21     0.088 A 
HETATM    5  C5    D T9001       7.907 -10.028  -0.055  1.00 26.27     0.055 A 
HETATM    6  C6    D T9001       6.653  -9.569   0.452  1.00 29.22     0.026 A 
HETATM    7  N7    D T9001      10.355  -9.891   0.074  1.00 25.99    -0.224 NA
HETATM    8  C8    D T9001      10.393 -10.789  -0.932  1.00 24.59     0.200 A 
HETATM    9  N9    D T9001       9.324 -11.350  -1.537  1.00 25.70    -0.205 NA
HETATM   10  C10   D T9001       8.068 -10.977  -1.104  1.00 27.48     0.166 A 
ENDROOT
BRANCH  10  11
HETATM   11  N14   D T9001       6.914 -11.556  -1.720  1.00 23.22    -0.227 NA
BRANCH  11  12
HETATM   12  C15   D T9001       6.386 -11.243  -2.999  1.00 24.25     0.084 A 
HETATM   13  C16   D T9001       7.176 -11.350  -4.189  1.00 25.06     0.033 A 
HETATM   14  C17   D T9001       6.644 -11.031  -5.446  1.00 28.28     0.087 A 
HETATM   15  C18   D T9001       5.303 -10.592  -5.555  1.00 25.55     0.151 A 
HETATM   16 CL     D T9001       7.659 -11.179  -6.830  1.00 31.70    -0.080 Cl
HETATM   17  C19   D T9001       4.492 -10.475  -4.396  1.00 24.70     0.032 A 
HETATM   18  F21   D T9001       4.776 -10.278  -6.747  1.00 27.22    -0.203 F 
HETATM   19  C20   D T9001       5.035 -10.801  -3.122  1.00 24.32     0.021 A 
ENDBRANCH  11  12
ENDBRANCH  10  11
BRANCH   1  20
HETATM   20  N13   D T9001       5.355  -8.114   2.012  1.00 34.61    -0.210 NA
HETATM   21  C26   D T9001       4.450  -8.935   2.705  1.00 36.24     0.256 C 
HETATM   22  O27   D T9001       4.604 -10.132   2.953  1.00 39.97    -0.270 OA
BRANCH  21  23
HETATM   23  C24   D T9001       3.191  -8.185   3.107  1.00 35.38     0.092 C 
BRANCH  23  24
HETATM   24  C23   D T9001       3.497  -6.967   3.996  1.00 34.93     0.051 C 
BRANCH  24  25
HETATM   25  C25   D T9001       3.656  -7.431   5.449  1.00 37.23     0.339 C 
HETATM   26  N33   D T9001       5.101  -7.373   5.878  1.00 41.10     0.618 N 
ENDBRANCH  24  25
ENDBRANCH  23  24
ENDBRANCH  21  23
ENDBRANCH   1  20
BRANCH   2  27
HETATM   27  O11   D T9001       7.635  -7.195   3.113  1.00 31.09    -0.327 OA
HETATM   28  C12   D T9001       8.452  -7.277   4.284  1.00 29.66     0.181 C 
ENDBRANCH   2  27
TORSDOF 7
ENDMDL
MODEL 5
REMARK VINA RESULT:    -6.934      2.331      3.301
REMARK INTER + INTRA:         -10.746
REMARK INTER:                  -9.599
REMARK INTRA:                  -1.148
REMARK UNBOUND:                -0.975
REMARK  7 active torsions:
REMARK  status: ('A' for Active; 'I' for Inactive)
REMARK    1  A    between atoms: C1_1  and  N13_22 
REMARK    2  A    between atoms: C2_2  and  O11_20 
REMARK    3  A    between atoms: C10_10  and  N14_11 
REMARK    4  A    between atoms: N14_11  and  C15_12 
REMARK       I    between atoms: N13_22  and  C26_23 
REMARK    5  A    between atoms: C26_23  and  C24_24 
REMARK    6  A    between atoms: C24_24  and  C23_25 
REMARK    7  A    between atoms: C23_25  and  C25_26 
ROOT
HETATM    1  C1    D T9001       7.243  -9.080   0.859  1.00 30.38     0.107 A 
HETATM    2  C2    D T9001       8.513  -8.596   1.322  1.00 29.65     0.113 A 
HETATM    3  C3    D T9001       9.697  -8.975   0.611  1.00 28.21     0.045 A 
HETATM    4  C4    D T9001       9.652  -9.808  -0.525  1.00 27.21     0.088 A 
HETATM    5  C5    D T9001       8.377 -10.306  -0.980  1.00 26.27     0.055 A 
HETATM    6  C6    D T9001       7.190  -9.931  -0.280  1.00 29.22     0.026 A 
HETATM    7  N7    D T9001      10.820 -10.110  -1.147  1.00 25.99    -0.224 NA
HETATM    8  C8    D T9001      10.744 -10.912  -2.229  1.00 24.59     0.200 A 
HETATM    9  N9    D T9001       9.617 -11.446  -2.745  1.00 25.70    -0.205 NA
HETATM   10  C10   D T9001       8.420 -11.150  -2.126  1.00 27.48     0.166 A 
ENDROOT
BRANCH  10  11
HETATM   11  N14   D T9001       7.207 -11.704  -2.645  1.00 23.22    -0.227 NA
BRANCH  11  12
HETATM   12  C15   D T9001       6.417 -11.181  -3.700  1.00 24.25     0.084 A 
HETATM   13  C16   D T9001       5.177 -10.507  -3.452  1.00 25.06     0.033 A 
HETATM   14  C17   D T9001       4.401 -10.001  -4.504  1.00 28.28     0.087 A 
HETATM   15  C18   D T9001       4.840 -10.153  -5.842  1.00 25.55     0.151 A 
HETATM   16 CL     D T9001       2.919  -9.210  -4.126  1.00 31.70    -0.080 Cl
HETATM   17  C19   D T9001       6.063 -10.814  -6.122  1.00 24.70     0.032 A 
HETATM   18  F21   D T9001       4.112  -9.679  -6.863  1.00 27.22    -0.203 F 
HETATM   19  C20   D T9001       6.849 -11.325  -5.052  1.00 24.32     0.021 A 
ENDBRANCH  11  12
ENDBRANCH  10  11
BRANCH   1  20
HETATM   20  N13   D T9001       6.077  -8.662   1.560  1.00 34.61    -0.210 NA
HETATM   21  C26   D T9001       5.588  -9.369   2.672  1.00 36.24     0.256 C 
HETATM   22  O27   D T9001       6.086 -10.387   3.157  1.00 39.97    -0.270 OA
BRANCH  21  23
HETATM   23  C24   D T9001       4.312  -8.756   3.223  1.00 35.38     0.092 C 
BRANCH  23  24
HETATM   24  C23   D T9001       3.231  -9.816   3.502  1.00 34.93     0.051 C 
BRANCH  24  25
HETATM   25  C25   D T9001       2.732 -10.389   2.171  1.00 37.23     0.339 C 
HETATM   26  N33   D T9001       2.416 -11.858   2.302  1.00 41.10     0.618 N 
ENDBRANCH  24  25
ENDBRANCH  23  24
ENDBRANCH  21  23
ENDBRANCH   1  20
BRANCH   2  27
HETATM   27  O11   D T9001       8.462  -7.782   2.449  1.00 31.09    -0.327 OA
HETATM   28  C12   D T9001       9.177  -8.151   3.632  1.00 29.66     0.181 C 
ENDBRANCH   2  27
TORSDOF 7
ENDMDL
MODEL 6
REMARK VINA RESULT:    -6.686      4.728      7.838
REMARK INTER + INTRA:         -10.397
REMARK INTER:                  -9.785
REMARK INTRA:                  -0.612
REMARK UNBOUND:                -0.975
REMARK  7 active torsions:
REMARK  status: ('A' for Active; 'I' for Inactive)
REMARK    1  A    between atoms: C1_1  and  N13_22 
REMARK    2  A    between atoms: C2_2  and  O11_20 
REMARK    3  A    between atoms: C10_10  and  N14_11 
REMARK    4  A    between atoms: N14_11  and  C15_12 
REMARK       I    between atoms: N13_22  and  C26_23 
REMARK    5  A    between atoms: C26_23  and  C24_24 
REMARK    6  A    between atoms: C24_24  and  C23_25 
REMARK    7  A    between atoms: C23_25  and  C25_26 
ROOT
HETATM    1  C1    D T9001       6.019  -8.316   4.196  1.00 30.38     0.107 A 
HETATM    2  C2    D T9001       4.771  -8.377   4.904  1.00 29.65     0.113 A 
HETATM    3  C3    D T9001       3.704  -9.160   4.356  1.00 28.21     0.045 A 
HETATM    4  C4    D T9001       3.843  -9.868   3.145  1.00 27.21     0.088 A 
HETATM    5  C5    D T9001       5.092  -9.793   2.427  1.00 26.27     0.055 A 
HETATM    6  C6    D T9001       6.163  -9.018   2.968  1.00 29.22     0.026 A 
HETATM    7  N7    D T9001       2.787 -10.594   2.700  1.00 25.99    -0.224 NA
HETATM    8  C8    D T9001       2.949 -11.258   1.538  1.00 24.59     0.200 A 
HETATM    9  N9    D T9001       4.062 -11.260   0.773  1.00 25.70    -0.205 NA
HETATM   10  C10   D T9001       5.146 -10.527   1.208  1.00 27.48     0.166 A 
ENDROOT
BRANCH  10  11
HETATM   11  N14   D T9001       6.339 -10.504   0.419  1.00 23.22    -0.227 NA
BRANCH  11  12
HETATM   12  C15   D T9001       6.462 -10.865  -0.947  1.00 24.25     0.084 A 
HETATM   13  C16   D T9001       5.485 -10.479  -1.920  1.00 25.06     0.033 A 
HETATM   14  C17   D T9001       5.614 -10.848  -3.267  1.00 28.28     0.087 A 
HETATM   15  C18   D T9001       6.726 -11.619  -3.684  1.00 25.55     0.151 A 
HETATM   16 CL     D T9001       4.394 -10.351  -4.376  1.00 31.70    -0.080 Cl
HETATM   17  C19   D T9001       7.712 -12.018  -2.746  1.00 24.70     0.032 A 
HETATM   18  F21   D T9001       6.867 -11.986  -4.966  1.00 27.22    -0.203 F 
HETATM   19  C20   D T9001       7.579 -11.640  -1.381  1.00 24.32     0.021 A 
ENDBRANCH  11  12
ENDBRANCH  10  11
BRANCH   1  20
HETATM   20  N13   D T9001       7.076  -7.560   4.778  1.00 34.61    -0.210 NA
HETATM   21  C26   D T9001       8.016  -8.146   5.643  1.00 36.24     0.256 C 
HETATM   22  O27   D T9001       8.044  -9.330   5.985  1.00 39.97    -0.270 OA
BRANCH  21  23
HETATM   23  C24   D T9001       9.017  -7.132   6.170  1.00 35.38     0.092 C 
BRANCH  23  24
HETATM   24  C23   D T9001       9.057  -5.854   5.314  1.00 34.93     0.051 C 
BRANCH  24  25
HETATM   25  C25   D T9001       9.311  -4.647   6.224  1.00 37.23     0.339 C 
HETATM   26  N33   D T9001       8.386  -4.668   7.417  1.00 41.10     0.618 N 
ENDBRANCH  24  25
ENDBRANCH  23  24
ENDBRANCH  21  23
ENDBRANCH   1  20
BRANCH   2  27
HETATM   27  O11   D T9001       4.724  -7.647   6.087  1.00 31.09    -0.327 OA
HETATM   28  C12   D T9001       3.567  -6.867   6.402  1.00 29.66     0.181 C 
ENDBRANCH   2  27
TORSDOF 7
ENDMDL
MODEL 7
REMARK VINA RESULT:    -6.659      4.019      6.053
REMARK INTER + INTRA:         -10.360
REMARK INTER:                  -9.195
REMARK INTRA:                  -1.164
REMARK UNBOUND:                -0.975
REMARK  7 active torsions:
REMARK  status: ('A' for Active; 'I' for Inactive)
REMARK    1  A    between atoms: C1_1  and  N13_22 
REMARK    2  A    between atoms: C2_2  and  O11_20 
REMARK    3  A    between atoms: C10_10  and  N14_11 
REMARK    4  A    between atoms: N14_11  and  C15_12 
REMARK       I    between atoms: N13_22  and  C26_23 
REMARK    5  A    between atoms: C26_23  and  C24_24 
REMARK    6  A    between atoms: C24_24  and  C23_25 
REMARK    7  A    between atoms: C23_25  and  C25_26 
ROOT
HETATM    1  C1    D T9001       8.839 -11.445  -2.268  1.00 30.38     0.107 A 
HETATM    2  C2    D T9001       7.403 -11.455  -2.286  1.00 29.65     0.113 A 
HETATM    3  C3    D T9001       6.727 -11.310  -3.540  1.00 28.21     0.045 A 
HETATM    4  C4    D T9001       7.428 -11.157  -4.754  1.00 27.21     0.088 A 
HETATM    5  C5    D T9001       8.870 -11.133  -4.733  1.00 26.27     0.055 A 
HETATM    6  C6    D T9001       9.553 -11.280  -3.487  1.00 29.22     0.026 A 
HETATM    7  N7    D T9001       6.711 -11.037  -5.899  1.00 25.99    -0.224 NA
HETATM    8  C8    D T9001       7.410 -10.889  -7.043  1.00 24.59     0.200 A 
HETATM    9  N9    D T9001       8.755 -10.843  -7.152  1.00 25.70    -0.205 NA
HETATM   10  C10   D T9001       9.501 -10.963  -5.998  1.00 27.48     0.166 A 
ENDROOT
BRANCH  10  11
HETATM   11  N14   D T9001      10.928 -10.914  -6.078  1.00 23.22    -0.227 NA
BRANCH  11  12
HETATM   12  C15   D T9001      11.782 -11.894  -6.644  1.00 24.25     0.084 A 
HETATM   13  C16   D T9001      12.134 -13.088  -5.935  1.00 25.06     0.033 A 
HETATM   14  C17   D T9001      12.986 -14.047  -6.503  1.00 28.28     0.087 A 
HETATM   15  C18   D T9001      13.516 -13.841  -7.799  1.00 25.55     0.151 A 
HETATM   16 CL     D T9001      13.367 -15.454  -5.585  1.00 31.70    -0.080 Cl
HETATM   17  C19   D T9001      13.188 -12.669  -8.529  1.00 24.70     0.032 A 
HETATM   18  F21   D T9001      14.335 -14.743  -8.359  1.00 27.22    -0.203 F 
HETATM   19  C20   D T9001      12.322 -11.700  -7.950  1.00 24.32     0.021 A 
ENDBRANCH  11  12
ENDBRANCH  10  11
BRANCH   1  20
HETATM   20  N13   D T9001       9.489 -11.626  -1.015  1.00 34.61    -0.210 NA
HETATM   21  C26   D T9001       9.999 -10.541  -0.282  1.00 36.24     0.256 C 
HETATM   22  O27   D T9001       9.947  -9.356  -0.615  1.00 39.97    -0.270 OA
BRANCH  21  23
HETATM   23  C24   D T9001      10.685 -10.988   0.998  1.00 35.38     0.092 C 
BRANCH  23  24
HETATM   24  C23   D T9001      10.089 -10.312   2.245  1.00 34.93     0.051 C 
BRANCH  24  25
HETATM   25  C25   D T9001       8.659 -10.823   2.459  1.00 37.23     0.339 C 
HETATM   26  N33   D T9001       7.673  -9.682   2.454  1.00 41.10     0.618 N 
ENDBRANCH  24  25
ENDBRANCH  23  24
ENDBRANCH  21  23
ENDBRANCH   1  20
BRANCH   2  27
HETATM   27  O11   D T9001       6.796 -11.609  -1.044  1.00 31.09    -0.327 OA
HETATM   28  C12   D T9001       5.856 -10.635  -0.580  1.00 29.66     0.181 C 
ENDBRANCH   2  27
TORSDOF 7
ENDMDL
MODEL 8
REMARK VINA RESULT:    -6.635      4.028      8.311
REMARK INTER + INTRA:         -10.326
REMARK INTER:                  -9.426
REMARK INTRA:                  -0.900
REMARK UNBOUND:                -0.975
REMARK  7 active torsions:
REMARK  status: ('A' for Active; 'I' for Inactive)
REMARK    1  A    between atoms: C1_1  and  N13_22 
REMARK    2  A    between atoms: C2_2  and  O11_20 
REMARK    3  A    between atoms: C10_10  and  N14_11 
REMARK    4  A    between atoms: N14_11  and  C15_12 
REMARK       I    between atoms: N13_22  and  C26_23 
REMARK    5  A    between atoms: C26_23  and  C24_24 
REMARK    6  A    between atoms: C24_24  and  C23_25 
REMARK    7  A    between atoms: C23_25  and  C25_26 
ROOT
HETATM    1  C1    D T9001       7.765 -11.515  -4.110  1.00 30.38     0.107 A 
HETATM    2  C2    D T9001       6.379 -11.176  -4.266  1.00 29.65     0.113 A 
HETATM    3  C3    D T9001       5.615 -10.839  -3.103  1.00 28.21     0.045 A 
HETATM    4  C4    D T9001       6.182 -10.833  -1.813  1.00 27.21     0.088 A 
HETATM    5  C5    D T9001       7.571 -11.189  -1.655  1.00 26.27     0.055 A 
HETATM    6  C6    D T9001       8.342 -11.523  -2.810  1.00 29.22     0.026 A 
HETATM    7  N7    D T9001       5.391 -10.493  -0.765  1.00 25.99    -0.224 NA
HETATM    8  C8    D T9001       5.961 -10.499   0.457  1.00 24.59     0.200 A 
HETATM    9  N9    D T9001       7.243 -10.821   0.734  1.00 25.70    -0.205 NA
HETATM   10  C10   D T9001       8.063 -11.171  -0.319  1.00 27.48     0.166 A 
ENDROOT
BRANCH  10  11
HETATM   11  N14   D T9001       9.425 -11.522  -0.060  1.00 23.22    -0.227 NA
BRANCH  11  12
HETATM   12  C15   D T9001      10.410 -10.708   0.555  1.00 24.25     0.084 A 
HETATM   13  C16   D T9001      11.050 -11.091   1.778  1.00 25.06     0.033 A 
HETATM   14  C17   D T9001      12.017 -10.274   2.380  1.00 28.28     0.087 A 
HETATM   15  C18   D T9001      12.376  -9.044   1.779  1.00 25.55     0.151 A 
HETATM   16 CL     D T9001      12.736 -10.802   3.854  1.00 31.70    -0.080 Cl
HETATM   17  C19   D T9001      11.763  -8.634   0.567  1.00 24.70     0.032 A 
HETATM   18  F21   D T9001      13.296  -8.246   2.340  1.00 27.22    -0.203 F 
HETATM   19  C20   D T9001      10.782  -9.467  -0.042  1.00 24.32     0.021 A 
ENDBRANCH  11  12
ENDBRANCH  10  11
BRANCH   1  20
HETATM   20  N13   D T9001       8.513 -11.812  -5.284  1.00 34.61    -0.210 NA
HETATM   21  C26   D T9001       9.626 -11.044  -5.667  1.00 36.24     0.256 C 
HETATM   22  O27   D T9001      10.074 -10.069  -5.061  1.00 39.97    -0.270 OA
BRANCH  21  23
HETATM   23  C24   D T9001      10.231 -11.526  -6.975  1.00 35.38     0.092 C 
BRANCH  23  24
HETATM   24  C23   D T9001      11.096 -12.785  -6.787  1.00 34.93     0.051 C 
BRANCH  24  25
HETATM   25  C25   D T9001      12.514 -12.501  -7.296  1.00 37.23     0.339 C 
HETATM   26  N33   D T9001      13.290 -11.677  -6.299  1.00 41.10     0.618 N 
ENDBRANCH  24  25
ENDBRANCH  23  24
ENDBRANCH  21  23
ENDBRANCH   1  20
BRANCH   2  27
HETATM   27  O11   D T9001       5.905 -11.209  -5.574  1.00 31.09    -0.327 OA
HETATM   28  C12   D T9001       5.133 -10.117  -6.084  1.00 29.66     0.181 C 
ENDBRANCH   2  27
TORSDOF 7
ENDMDL
MODEL 9
REMARK VINA RESULT:    -6.616      4.181      6.652
REMARK INTER + INTRA:         -10.299
REMARK INTER:                  -9.306
REMARK INTRA:                  -0.993
REMARK UNBOUND:                -0.975
REMARK  7 active torsions:
REMARK  status: ('A' for Active; 'I' for Inactive)
REMARK    1  A    between atoms: C1_1  and  N13_22 
REMARK    2  A    between atoms: C2_2  and  O11_20 
REMARK    3  A    between atoms: C10_10  and  N14_11 
REMARK    4  A    between atoms: N14_11  and  C15_12 
REMARK       I    between atoms: N13_22  and  C26_23 
REMARK    5  A    between atoms: C26_23  and  C24_24 
REMARK    6  A    between atoms: C24_24  and  C23_25 
REMARK    7  A    between atoms: C23_25  and  C25_26 
ROOT
HETATM    1  C1    D T9001       9.122 -11.095  -1.213  1.00 30.38     0.107 A 
HETATM    2  C2    D T9001       7.707 -11.216  -0.998  1.00 29.65     0.113 A 
HETATM    3  C3    D T9001       6.840 -11.289  -2.135  1.00 28.21     0.045 A 
HETATM    4  C4    D T9001       7.332 -11.243  -3.454  1.00 27.21     0.088 A 
HETATM    5  C5    D T9001       8.752 -11.107  -3.669  1.00 26.27     0.055 A 
HETATM    6  C6    D T9001       9.626 -11.037  -2.542  1.00 29.22     0.026 A 
HETATM    7  N7    D T9001       6.443 -11.329  -4.475  1.00 25.99    -0.224 NA
HETATM    8  C8    D T9001       6.944 -11.279  -5.726  1.00 24.59     0.200 A 
HETATM    9  N9    D T9001       8.247 -11.145  -6.056  1.00 25.70    -0.205 NA
HETATM   10  C10   D T9001       9.166 -11.056  -5.031  1.00 27.48     0.166 A 
ENDROOT
BRANCH  10  11
HETATM   11  N14   D T9001      10.554 -10.909  -5.345  1.00 23.22    -0.227 NA
BRANCH  11  12
HETATM   12  C15   D T9001      11.409 -11.895  -5.900  1.00 24.25     0.084 A 
HETATM   13  C16   D T9001      11.979 -11.751  -7.206  1.00 25.06     0.033 A 
HETATM   14  C17   D T9001      12.818 -12.737  -7.746  1.00 28.28     0.087 A 
HETATM   15  C18   D T9001      13.113 -13.901  -6.996  1.00 25.55     0.151 A 
HETATM   16 CL     D T9001      13.459 -12.494  -9.326  1.00 31.70    -0.080 Cl
HETATM   17  C19   D T9001      12.566 -14.075  -5.699  1.00 24.70     0.032 A 
HETATM   18  F21   D T9001      13.910 -14.857  -7.495  1.00 27.22    -0.203 F 
HETATM   19  C20   D T9001      11.716 -13.072  -5.154  1.00 24.32     0.021 A 
ENDBRANCH  11  12
ENDBRANCH  10  11
BRANCH   1  20
HETATM   20  N13   D T9001       9.967 -11.060  -0.068  1.00 34.61    -0.210 NA
HETATM   21  C26   D T9001      10.485  -9.854   0.433  1.00 36.24     0.256 C 
HETATM   22  O27   D T9001      10.280  -8.731  -0.030  1.00 39.97    -0.270 OA
BRANCH  21  23
HETATM   23  C24   D T9001      11.394 -10.076   1.631  1.00 35.38     0.092 C 
BRANCH  23  24
HETATM   24  C23   D T9001      11.964  -8.758   2.181  1.00 34.93     0.051 C 
BRANCH  24  25
HETATM   25  C25   D T9001      13.449  -8.659   1.812  1.00 37.23     0.339 C 
HETATM   26  N33   D T9001      13.757  -7.329   1.169  1.00 41.10     0.618 N 
ENDBRANCH  24  25
ENDBRANCH  23  24
ENDBRANCH  21  23
ENDBRANCH   1  20
BRANCH   2  27
HETATM   27  O11   D T9001       7.312 -11.252   0.336  1.00 31.09    -0.327 OA
HETATM   28  C12   D T9001       6.431 -12.282   0.794  1.00 29.66     0.181 C 
ENDBRANCH   2  27
TORSDOF 7
ENDMDL
