MODEL 1
REMARK VINA RESULT:    -7.937      0.000      0.000
REMARK INTER + INTRA:         -12.091
REMARK INTER:                 -11.186
REMARK INTRA:                  -0.905
REMARK UNBOUND:                -0.905
REMARK  7 active torsions:
REMARK  status: ('A' for Active; 'I' for Inactive)
REMARK    1  A    between atoms: C1_1  and  N13_22 
REMARK    2  A    between atoms: C2_2  and  O11_20 
REMARK    3  A    between atoms: C10_10  and  N14_11 
REMARK    4  A    between atoms: N14_11  and  C15_12 
REMARK       I    between atoms: N13_22  and  C26_23 
REMARK    5  A    between atoms: C26_23  and  C24_24 
REMARK    6  A    between atoms: C24_24  and  C23_25 
REMARK    7  A    between atoms: C23_25  and  C25_26 
ROOT
HETATM    1  C1    D T9001       2.019   2.855  -3.696  1.00 30.38     0.107 A 
HETATM    2  C2    D T9001       1.196   1.718  -4.004  1.00 29.65     0.113 A 
HETATM    3  C3    D T9001       1.662   0.412  -3.649  1.00 28.21     0.045 A 
HETATM    4  C4    D T9001       2.903   0.209  -3.012  1.00 27.21     0.088 A 
HETATM    5  C5    D T9001       3.735   1.350  -2.717  1.00 26.27     0.055 A 
HETATM    6  C6    D T9001       3.277   2.657  -3.064  1.00 29.22     0.026 A 
HETATM    7  N7    D T9001       3.265  -1.061  -2.701  1.00 25.99    -0.224 NA
HETATM    8  C8    D T9001       4.460  -1.223  -2.095  1.00 24.59     0.200 A 
HETATM    9  N9    D T9001       5.329  -0.240  -1.777  1.00 25.70    -0.205 NA
HETATM   10  C10   D T9001       4.977   1.057  -2.085  1.00 27.48     0.166 A 
ENDROOT
BRANCH  10  11
HETATM   11  N14   D T9001       5.877   2.122  -1.765  1.00 23.22    -0.227 NA
BRANCH  11  12
HETATM   12  C15   D T9001       5.749   3.055  -0.705  1.00 24.25     0.084 A 
HETATM   13  C16   D T9001       5.120   4.329  -0.893  1.00 25.06     0.033 A 
HETATM   14  C17   D T9001       5.008   5.246   0.162  1.00 28.28     0.087 A 
HETATM   15  C18   D T9001       5.518   4.918   1.441  1.00 25.55     0.151 A 
HETATM   16 CL     D T9001       4.245   6.760  -0.145  1.00 31.70    -0.080 Cl
HETATM   17  C19   D T9001       6.145   3.665   1.662  1.00 24.70     0.032 A 
HETATM   18  F21   D T9001       5.422   5.782   2.462  1.00 27.22    -0.203 F 
HETATM   19  C20   D T9001       6.258   2.737   0.590  1.00 24.32     0.021 A 
ENDBRANCH  11  12
ENDBRANCH  10  11
BRANCH   1  20
HETATM   20  N13   D T9001       1.517   4.145  -4.026  1.00 34.61    -0.210 NA
HETATM   21  C26   D T9001       0.934   4.981  -3.059  1.00 36.24     0.256 C 
HETATM   22  O27   D T9001       0.794   4.717  -1.864  1.00 39.97    -0.270 OA
BRANCH  21  23
HETATM   23  C24   D T9001       0.437   6.287  -3.658  1.00 35.38     0.092 C 
BRANCH  23  24
HETATM   24  C23   D T9001       0.879   7.510  -2.836  1.00 34.93     0.051 C 
BRANCH  24  25
HETATM   25  C25   D T9001      -0.360   8.193  -2.246  1.00 37.23     0.339 C 
HETATM   26  N33   D T9001      -0.368   8.088  -0.741  1.00 41.10     0.618 N 
ENDBRANCH  24  25
ENDBRANCH  23  24
ENDBRANCH  21  23
ENDBRANCH   1  20
BRANCH   2  27
HETATM   27  O11   D T9001      -0.010   2.012  -4.634  1.00 31.09    -0.327 OA
HETATM   28  C12   D T9001      -0.308   1.440  -5.909  1.00 29.66     0.181 C 
ENDBRANCH   2  27
TORSDOF 7
ENDMDL
MODEL 2
REMARK VINA RESULT:    -7.368      2.244      2.661
REMARK INTER + INTRA:         -11.289
REMARK INTER:                 -10.416
REMARK INTRA:                  -0.873
REMARK UNBOUND:                -0.905
REMARK  7 active torsions:
REMARK  status: ('A' for Active; 'I' for Inactive)
REMARK    1  A    between atoms: C1_1  and  N13_22 
REMARK    2  A    between atoms: C2_2  and  O11_20 
REMARK    3  A    between atoms: C10_10  and  N14_11 
REMARK    4  A    between atoms: N14_11  and  C15_12 
REMARK       I    between atoms: N13_22  and  C26_23 
REMARK    5  A    between atoms: C26_23  and  C24_24 
REMARK    6  A    between atoms: C24_24  and  C23_25 
REMARK    7  A    between atoms: C23_25  and  C25_26 
ROOT
HETATM    1  C1    D T9001       2.925   2.927  -2.915  1.00 30.38     0.107 A 
HETATM    2  C2    D T9001       2.794   2.769  -4.337  1.00 29.65     0.113 A 
HETATM    3  C3    D T9001       3.337   1.596  -4.954  1.00 28.21     0.045 A 
HETATM    4  C4    D T9001       3.997   0.598  -4.210  1.00 27.21     0.088 A 
HETATM    5  C5    D T9001       4.140   0.765  -2.784  1.00 26.27     0.055 A 
HETATM    6  C6    D T9001       3.599   1.929  -2.159  1.00 29.22     0.026 A 
HETATM    7  N7    D T9001       4.473  -0.487  -4.871  1.00 25.99    -0.224 NA
HETATM    8  C8    D T9001       5.103  -1.423  -4.132  1.00 24.59     0.200 A 
HETATM    9  N9    D T9001       5.308  -1.377  -2.798  1.00 25.70    -0.205 NA
HETATM   10  C10   D T9001       4.830  -0.282  -2.109  1.00 27.48     0.166 A 
ENDROOT
BRANCH  10  11
HETATM   11  N14   D T9001       5.034  -0.200  -0.696  1.00 23.22    -0.227 NA
BRANCH  11  12
HETATM   12  C15   D T9001       6.043   0.536  -0.024  1.00 24.25     0.084 A 
HETATM   13  C16   D T9001       5.777   1.814   0.568  1.00 25.06     0.033 A 
HETATM   14  C17   D T9001       6.786   2.536   1.222  1.00 28.28     0.087 A 
HETATM   15  C18   D T9001       8.094   2.003   1.306  1.00 25.55     0.151 A 
HETATM   16 CL     D T9001       6.389   4.067   1.902  1.00 31.70    -0.080 Cl
HETATM   17  C19   D T9001       8.392   0.740   0.733  1.00 24.70     0.032 A 
HETATM   18  F21   D T9001       9.073   2.678   1.925  1.00 27.22    -0.203 F 
HETATM   19  C20   D T9001       7.366   0.010   0.070  1.00 24.32     0.021 A 
ENDBRANCH  11  12
ENDBRANCH  10  11
BRANCH   1  20
HETATM   20  N13   D T9001       2.345   4.082  -2.321  1.00 34.61    -0.210 NA
HETATM   21  C26   D T9001       3.121   5.023  -1.621  1.00 36.24     0.256 C 
HETATM   22  O27   D T9001       4.340   4.968  -1.447  1.00 39.97    -0.270 OA
BRANCH  21  23
HETATM   23  C24   D T9001       2.275   6.145  -1.043  1.00 35.38     0.092 C 
BRANCH  23  24
HETATM   24  C23   D T9001       0.819   6.090  -1.537  1.00 34.93     0.051 C 
BRANCH  24  25
HETATM   25  C25   D T9001       0.587   7.225  -2.541  1.00 37.23     0.339 C 
HETATM   26  N33   D T9001      -0.342   8.268  -1.969  1.00 41.10     0.618 N 
ENDBRANCH  24  25
ENDBRANCH  23  24
ENDBRANCH  21  23
ENDBRANCH   1  20
BRANCH   2  27
HETATM   27  O11   D T9001       2.131   3.803  -4.990  1.00 31.09    -0.327 OA
HETATM   28  C12   D T9001       0.850   3.571  -5.580  1.00 29.66     0.181 C 
ENDBRANCH   2  27
TORSDOF 7
ENDMDL
MODEL 3
REMARK VINA RESULT:    -7.320      3.479      6.258
REMARK INTER + INTRA:         -11.222
REMARK INTER:                 -10.329
REMARK INTRA:                  -0.893
REMARK UNBOUND:                -0.905
REMARK  7 active torsions:
REMARK  status: ('A' for Active; 'I' for Inactive)
REMARK    1  A    between atoms: C1_1  and  N13_22 
REMARK    2  A    between atoms: C2_2  and  O11_20 
REMARK    3  A    between atoms: C10_10  and  N14_11 
REMARK    4  A    between atoms: N14_11  and  C15_12 
REMARK       I    between atoms: N13_22  and  C26_23 
REMARK    5  A    between atoms: C26_23  and  C24_24 
REMARK    6  A    between atoms: C24_24  and  C23_25 
REMARK    7  A    between atoms: C23_25  and  C25_26 
ROOT
HETATM    1  C1    D T9001       4.430   2.510  -2.197  1.00 30.38     0.107 A 
HETATM    2  C2    D T9001       3.838   3.796  -2.443  1.00 29.65     0.113 A 
HETATM    3  C3    D T9001       4.031   4.840  -1.483  1.00 28.21     0.045 A 
HETATM    4  C4    D T9001       4.779   4.644  -0.305  1.00 27.21     0.088 A 
HETATM    5  C5    D T9001       5.361   3.348  -0.052  1.00 26.27     0.055 A 
HETATM    6  C6    D T9001       5.177   2.301  -1.005  1.00 29.22     0.026 A 
HETATM    7  N7    D T9001       4.922   5.688   0.548  1.00 25.99    -0.224 NA
HETATM    8  C8    D T9001       5.640   5.468   1.668  1.00 24.59     0.200 A 
HETATM    9  N9    D T9001       6.224   4.303   2.021  1.00 25.70    -0.205 NA
HETATM   10  C10   D T9001       6.090   3.229   1.165  1.00 27.48     0.166 A 
ENDROOT
BRANCH  10  11
HETATM   11  N14   D T9001       6.692   1.979   1.512  1.00 23.22    -0.227 NA
BRANCH  11  12
HETATM   12  C15   D T9001       8.068   1.645   1.424  1.00 24.25     0.084 A 
HETATM   13  C16   D T9001       9.075   2.412   2.095  1.00 25.06     0.033 A 
HETATM   14  C17   D T9001      10.433   2.076   1.993  1.00 28.28     0.087 A 
HETATM   15  C18   D T9001      10.828   0.960   1.218  1.00 25.55     0.151 A 
HETATM   16 CL     D T9001      11.584   3.051   2.824  1.00 31.70    -0.080 Cl
HETATM   17  C19   D T9001       9.856   0.177   0.542  1.00 24.70     0.032 A 
HETATM   18  F21   D T9001      12.121   0.623   1.106  1.00 27.22    -0.203 F 
HETATM   19  C20   D T9001       8.480   0.521   0.647  1.00 24.32     0.021 A 
ENDBRANCH  11  12
ENDBRANCH  10  11
BRANCH   1  20
HETATM   20  N13   D T9001       4.255   1.500  -3.183  1.00 34.61    -0.210 NA
HETATM   21  C26   D T9001       3.070   0.750  -3.272  1.00 36.24     0.256 C 
HETATM   22  O27   D T9001       2.083   0.870  -2.544  1.00 39.97    -0.270 OA
BRANCH  21  23
HETATM   23  C24   D T9001       3.136  -0.295  -4.374  1.00 35.38     0.092 C 
BRANCH  23  24
HETATM   24  C23   D T9001       2.292  -1.539  -4.048  1.00 34.93     0.051 C 
BRANCH  24  25
HETATM   25  C25   D T9001       3.112  -2.484  -3.162  1.00 37.23     0.339 C 
HETATM   26  N33   D T9001       4.567  -2.469  -3.562  1.00 41.10     0.618 N 
ENDBRANCH  24  25
ENDBRANCH  23  24
ENDBRANCH  21  23
ENDBRANCH   1  20
BRANCH   2  27
HETATM   27  O11   D T9001       3.116   3.899  -3.628  1.00 31.09    -0.327 OA
HETATM   28  C12   D T9001       1.865   4.591  -3.646  1.00 29.66     0.181 C 
ENDBRANCH   2  27
TORSDOF 7
ENDMDL
MODEL 4
REMARK VINA RESULT:    -7.268      3.924      8.035
REMARK INTER + INTRA:         -11.147
REMARK INTER:                 -10.163
REMARK INTRA:                  -0.984
REMARK UNBOUND:                -0.905
REMARK  7 active torsions:
REMARK  status: ('A' for Active; 'I' for Inactive)
REMARK    1  A    between atoms: C1_1  and  N13_22 
REMARK    2  A    between atoms: C2_2  and  O11_20 
REMARK    3  A    between atoms: C10_10  and  N14_11 
REMARK    4  A    between atoms: N14_11  and  C15_12 
REMARK       I    between atoms: N13_22  and  C26_23 
REMARK    5  A    between atoms: C26_23  and  C24_24 
REMARK    6  A    between atoms: C24_24  and  C23_25 
REMARK    7  A    between atoms: C23_25  and  C25_26 
ROOT
HETATM    1  C1    D T9001       5.388   3.627  -1.077  1.00 30.38     0.107 A 
HETATM    2  C2    D T9001       4.961   4.700  -0.223  1.00 29.65     0.113 A 
HETATM    3  C3    D T9001       3.811   5.467  -0.598  1.00 28.21     0.045 A 
HETATM    4  C4    D T9001       3.091   5.202  -1.780  1.00 27.21     0.088 A 
HETATM    5  C5    D T9001       3.529   4.134  -2.645  1.00 26.27     0.055 A 
HETATM    6  C6    D T9001       4.673   3.362  -2.278  1.00 29.22     0.026 A 
HETATM    7  N7    D T9001       2.007   5.969  -2.057  1.00 25.99    -0.224 NA
HETATM    8  C8    D T9001       1.341   5.694  -3.198  1.00 24.59     0.200 A 
HETATM    9  N9    D T9001       1.656   4.732  -4.090  1.00 25.70    -0.205 NA
HETATM   10  C10   D T9001       2.755   3.941  -3.825  1.00 27.48     0.166 A 
ENDROOT
BRANCH  10  11
HETATM   11  N14   D T9001       3.120   2.915  -4.752  1.00 23.22    -0.227 NA
BRANCH  11  12
HETATM   12  C15   D T9001       2.476   1.665  -4.933  1.00 24.25     0.084 A 
HETATM   13  C16   D T9001       2.850   0.507  -4.174  1.00 25.06     0.033 A 
HETATM   14  C17   D T9001       2.211  -0.726  -4.369  1.00 28.28     0.087 A 
HETATM   15  C18   D T9001       1.177  -0.843  -5.328  1.00 25.55     0.151 A 
HETATM   16 CL     D T9001       2.722  -2.073  -3.424  1.00 31.70    -0.080 Cl
HETATM   17  C19   D T9001       0.781   0.284  -6.094  1.00 24.70     0.032 A 
HETATM   18  F21   D T9001       0.555  -2.013  -5.531  1.00 27.22    -0.203 F 
HETATM   19  C20   D T9001       1.431   1.533  -5.895  1.00 24.32     0.021 A 
ENDBRANCH  11  12
ENDBRANCH  10  11
BRANCH   1  20
HETATM   20  N13   D T9001       6.511   2.858  -0.664  1.00 34.61    -0.210 NA
HETATM   21  C26   D T9001       6.363   1.671   0.074  1.00 36.24     0.256 C 
HETATM   22  O27   D T9001       5.296   1.172   0.435  1.00 39.97    -0.270 OA
BRANCH  21  23
HETATM   23  C24   D T9001       7.704   1.051   0.433  1.00 35.38     0.092 C 
BRANCH  23  24
HETATM   24  C23   D T9001       8.420   1.822   1.556  1.00 34.93     0.051 C 
BRANCH  24  25
HETATM   25  C25   D T9001       9.878   1.358   1.633  1.00 37.23     0.339 C 
HETATM   26  N33   D T9001      10.323   1.219   3.069  1.00 41.10     0.618 N 
ENDBRANCH  24  25
ENDBRANCH  23  24
ENDBRANCH  21  23
ENDBRANCH   1  20
BRANCH   2  27
HETATM   27  O11   D T9001       5.732   4.890   0.920  1.00 31.09    -0.327 OA
HETATM   28  C12   D T9001       5.267   5.753   1.961  1.00 29.66     0.181 C 
ENDBRANCH   2  27
TORSDOF 7
ENDMDL
MODEL 5
REMARK VINA RESULT:    -7.238      2.855      5.885
REMARK INTER + INTRA:         -11.105
REMARK INTER:                 -10.053
REMARK INTRA:                  -1.052
REMARK UNBOUND:                -0.905
REMARK  7 active torsions:
REMARK  status: ('A' for Active; 'I' for Inactive)
REMARK    1  A    between atoms: C1_1  and  N13_22 
REMARK    2  A    between atoms: C2_2  and  O11_20 
REMARK    3  A    between atoms: C10_10  and  N14_11 
REMARK    4  A    between atoms: N14_11  and  C15_12 
REMARK       I    between atoms: N13_22  and  C26_23 
REMARK    5  A    between atoms: C26_23  and  C24_24 
REMARK    6  A    between atoms: C24_24  and  C23_25 
REMARK    7  A    between atoms: C23_25  and  C25_26 
ROOT
HETATM    1  C1    D T9001       3.391  -0.314  -2.613  1.00 30.38     0.107 A 
HETATM    2  C2    D T9001       3.621  -1.336  -3.595  1.00 29.65     0.113 A 
HETATM    3  C3    D T9001       2.830  -1.340  -4.788  1.00 28.21     0.045 A 
HETATM    4  C4    D T9001       1.831  -0.375  -5.024  1.00 27.21     0.088 A 
HETATM    5  C5    D T9001       1.590   0.643  -4.031  1.00 26.27     0.055 A 
HETATM    6  C6    D T9001       2.377   0.657  -2.839  1.00 29.22     0.026 A 
HETATM    7  N7    D T9001       1.132  -0.443  -6.185  1.00 25.99    -0.224 NA
HETATM    8  C8    D T9001       0.181   0.493  -6.380  1.00 24.59     0.200 A 
HETATM    9  N9    D T9001      -0.145   1.486  -5.526  1.00 25.70    -0.205 NA
HETATM   10  C10   D T9001       0.556   1.572  -4.341  1.00 27.48     0.166 A 
ENDROOT
BRANCH  10  11
HETATM   11  N14   D T9001       0.233   2.610  -3.411  1.00 23.22    -0.227 NA
BRANCH  11  12
HETATM   12  C15   D T9001       0.902   3.851  -3.256  1.00 24.25     0.084 A 
HETATM   13  C16   D T9001       1.676   4.150  -2.088  1.00 25.06     0.033 A 
HETATM   14  C17   D T9001       2.325   5.385  -1.943  1.00 28.28     0.087 A 
HETATM   15  C18   D T9001       2.222   6.361  -2.963  1.00 25.55     0.151 A 
HETATM   16 CL     D T9001       3.232   5.672  -0.507  1.00 31.70    -0.080 Cl
HETATM   17  C19   D T9001       1.465   6.096  -4.133  1.00 24.70     0.032 A 
HETATM   18  F21   D T9001       2.834   7.548  -2.843  1.00 27.22    -0.203 F 
HETATM   19  C20   D T9001       0.808   4.843  -4.277  1.00 24.32     0.021 A 
ENDBRANCH  11  12
ENDBRANCH  10  11
BRANCH   1  20
HETATM   20  N13   D T9001       4.215  -0.310  -1.453  1.00 34.61    -0.210 NA
HETATM   21  C26   D T9001       5.157   0.706  -1.218  1.00 36.24     0.256 C 
HETATM   22  O27   D T9001       5.374   1.674  -1.949  1.00 39.97    -0.270 OA
BRANCH  21  23
HETATM   23  C24   D T9001       5.945   0.471   0.061  1.00 35.38     0.092 C 
BRANCH  23  24
HETATM   24  C23   D T9001       6.773   1.701   0.469  1.00 34.93     0.051 C 
BRANCH  24  25
HETATM   25  C25   D T9001       6.059   2.430   1.612  1.00 37.23     0.339 C 
HETATM   26  N33   D T9001       6.024   3.918   1.363  1.00 41.10     0.618 N 
ENDBRANCH  24  25
ENDBRANCH  23  24
ENDBRANCH  21  23
ENDBRANCH   1  20
BRANCH   2  27
HETATM   27  O11   D T9001       4.624  -2.247  -3.277  1.00 31.09    -0.327 OA
HETATM   28  C12   D T9001       5.221  -3.042  -4.305  1.00 29.66     0.181 C 
ENDBRANCH   2  27
TORSDOF 7
ENDMDL
MODEL 6
REMARK VINA RESULT:    -7.155      2.781      6.054
REMARK INTER + INTRA:         -10.988
REMARK INTER:                  -9.873
REMARK INTRA:                  -1.115
REMARK UNBOUND:                -0.905
REMARK  7 active torsions:
REMARK  status: ('A' for Active; 'I' for Inactive)
REMARK    1  A    between atoms: C1_1  and  N13_22 
REMARK    2  A    between atoms: C2_2  and  O11_20 
REMARK    3  A    between atoms: C10_10  and  N14_11 
REMARK    4  A    between atoms: N14_11  and  C15_12 
REMARK       I    between atoms: N13_22  and  C26_23 
REMARK    5  A    between atoms: C26_23  and  C24_24 
REMARK    6  A    between atoms: C24_24  and  C23_25 
REMARK    7  A    between atoms: C23_25  and  C25_26 
ROOT
HETATM    1  C1    D T9001       3.483   0.199  -4.017  1.00 30.38     0.107 A 
HETATM    2  C2    D T9001       2.159  -0.346  -4.136  1.00 29.65     0.113 A 
HETATM    3  C3    D T9001       1.047   0.438  -3.690  1.00 28.21     0.045 A 
HETATM    4  C4    D T9001       1.213   1.723  -3.136  1.00 27.21     0.088 A 
HETATM    5  C5    D T9001       2.545   2.263  -3.003  1.00 26.27     0.055 A 
HETATM    6  C6    D T9001       3.660   1.490  -3.449  1.00 29.22     0.026 A 
HETATM    7  N7    D T9001       0.107   2.403  -2.747  1.00 25.99    -0.224 NA
HETATM    8  C8    D T9001       0.299   3.629  -2.218  1.00 24.59     0.200 A 
HETATM    9  N9    D T9001       1.489   4.237  -2.033  1.00 25.70    -0.205 NA
HETATM   10  C10   D T9001       2.626   3.561  -2.423  1.00 27.48     0.166 A 
ENDROOT
BRANCH  10  11
HETATM   11  N14   D T9001       3.905   4.175  -2.237  1.00 23.22    -0.227 NA
BRANCH  11  12
HETATM   12  C15   D T9001       4.574   4.389  -1.005  1.00 24.25     0.084 A 
HETATM   13  C16   D T9001       5.453   3.406  -0.444  1.00 25.06     0.033 A 
HETATM   14  C17   D T9001       6.103   3.627   0.780  1.00 28.28     0.087 A 
HETATM   15  C18   D T9001       5.895   4.838   1.481  1.00 25.55     0.151 A 
HETATM   16 CL     D T9001       7.139   2.395   1.392  1.00 31.70    -0.080 Cl
HETATM   17  C19   D T9001       5.032   5.833   0.953  1.00 24.70     0.032 A 
HETATM   18  F21   D T9001       6.504   5.068   2.653  1.00 27.22    -0.203 F 
HETATM   19  C20   D T9001       4.375   5.606  -0.288  1.00 24.32     0.021 A 
ENDBRANCH  11  12
ENDBRANCH  10  11
BRANCH   1  20
HETATM   20  N13   D T9001       4.568  -0.584  -4.501  1.00 34.61    -0.210 NA
HETATM   21  C26   D T9001       5.467  -1.222  -3.628  1.00 36.24     0.256 C 
HETATM   22  O27   D T9001       5.427  -1.187  -2.397  1.00 39.97    -0.270 OA
BRANCH  21  23
HETATM   23  C24   D T9001       6.563  -1.963  -4.378  1.00 35.38     0.092 C 
BRANCH  23  24
HETATM   24  C23   D T9001       6.225  -3.449  -4.582  1.00 34.93     0.051 C 
BRANCH  24  25
HETATM   25  C25   D T9001       5.939  -3.700  -6.067  1.00 37.23     0.339 C 
HETATM   26  N33   D T9001       4.457  -3.649  -6.345  1.00 41.10     0.618 N 
ENDBRANCH  24  25
ENDBRANCH  23  24
ENDBRANCH  21  23
ENDBRANCH   1  20
BRANCH   2  27
HETATM   27  O11   D T9001       2.090  -1.620  -4.692  1.00 31.09    -0.327 OA
HETATM   28  C12   D T9001       1.276  -1.855  -5.843  1.00 29.66     0.181 C 
ENDBRANCH   2  27
TORSDOF 7
ENDMDL
MODEL 7
REMARK VINA RESULT:    -7.128      3.565      5.774
REMARK INTER + INTRA:         -10.951
REMARK INTER:                  -9.905
REMARK INTRA:                  -1.046
REMARK UNBOUND:                -0.905
REMARK  7 active torsions:
REMARK  status: ('A' for Active; 'I' for Inactive)
REMARK    1  A    between atoms: C1_1  and  N13_22 
REMARK    2  A    between atoms: C2_2  and  O11_20 
REMARK    3  A    between atoms: C10_10  and  N14_11 
REMARK    4  A    between atoms: N14_11  and  C15_12 
REMARK       I    between atoms: N13_22  and  C26_23 
REMARK    5  A    between atoms: C26_23  and  C24_24 
REMARK    6  A    between atoms: C24_24  and  C23_25 
REMARK    7  A    between atoms: C23_25  and  C25_26 
ROOT
HETATM    1  C1    D T9001       3.649   3.184  -1.714  1.00 30.38     0.107 A 
HETATM    2  C2    D T9001       4.477   4.217  -1.157  1.00 29.65     0.113 A 
HETATM    3  C3    D T9001       5.680   3.846  -0.476  1.00 28.21     0.045 A 
HETATM    4  C4    D T9001       6.073   2.500  -0.335  1.00 27.21     0.088 A 
HETATM    5  C5    D T9001       5.233   1.462  -0.882  1.00 26.27     0.055 A 
HETATM    6  C6    D T9001       4.033   1.823  -1.565  1.00 29.22     0.026 A 
HETATM    7  N7    D T9001       7.233   2.234   0.316  1.00 25.99    -0.224 NA
HETATM    8  C8    D T9001       7.581   0.936   0.438  1.00 24.59     0.200 A 
HETATM    9  N9    D T9001       6.878  -0.121  -0.020  1.00 25.70    -0.205 NA
HETATM   10  C10   D T9001       5.696   0.130  -0.685  1.00 27.48     0.166 A 
ENDROOT
BRANCH  10  11
HETATM   11  N14   D T9001       4.924  -0.968  -1.179  1.00 23.22    -0.227 NA
BRANCH  11  12
HETATM   12  C15   D T9001       4.596  -1.236  -2.533  1.00 24.25     0.084 A 
HETATM   13  C16   D T9001       5.582  -1.182  -3.572  1.00 25.06     0.033 A 
HETATM   14  C17   D T9001       5.242  -1.441  -4.909  1.00 28.28     0.087 A 
HETATM   15  C18   D T9001       3.907  -1.762  -5.249  1.00 25.55     0.151 A 
HETATM   16 CL     D T9001       6.482  -1.351  -6.101  1.00 31.70    -0.080 Cl
HETATM   17  C19   D T9001       2.907  -1.825  -4.244  1.00 24.70     0.032 A 
HETATM   18  F21   D T9001       3.562  -2.010  -6.521  1.00 27.22    -0.203 F 
HETATM   19  C20   D T9001       3.254  -1.563  -2.890  1.00 24.32     0.021 A 
ENDBRANCH  11  12
ENDBRANCH  10  11
BRANCH   1  20
HETATM   20  N13   D T9001       2.477   3.581  -2.417  1.00 34.61    -0.210 NA
HETATM   21  C26   D T9001       2.419   3.576  -3.822  1.00 36.24     0.256 C 
HETATM   22  O27   D T9001       3.329   3.241  -4.581  1.00 39.97    -0.270 OA
BRANCH  21  23
HETATM   23  C24   D T9001       1.082   4.078  -4.340  1.00 35.38     0.092 C 
BRANCH  23  24
HETATM   24  C23   D T9001       1.104   5.587  -4.640  1.00 34.93     0.051 C 
BRANCH  24  25
HETATM   25  C25   D T9001       0.335   6.329  -3.540  1.00 37.23     0.339 C 
HETATM   26  N33   D T9001       1.282   7.073  -2.630  1.00 41.10     0.618 N 
ENDBRANCH  24  25
ENDBRANCH  23  24
ENDBRANCH  21  23
ENDBRANCH   1  20
BRANCH   2  27
HETATM   27  O11   D T9001       4.010   5.515  -1.343  1.00 31.09    -0.327 OA
HETATM   28  C12   D T9001       4.142   6.479  -0.295  1.00 29.66     0.181 C 
ENDBRANCH   2  27
TORSDOF 7
ENDMDL
MODEL 8
REMARK VINA RESULT:    -7.088      4.159      7.722
REMARK INTER + INTRA:         -10.894
REMARK INTER:                  -9.819
REMARK INTRA:                  -1.075
REMARK UNBOUND:                -0.905
REMARK  7 active torsions:
REMARK  status: ('A' for Active; 'I' for Inactive)
REMARK    1  A    between atoms: C1_1  and  N13_22 
REMARK    2  A    between atoms: C2_2  and  O11_20 
REMARK    3  A    between atoms: C10_10  and  N14_11 
REMARK    4  A    between atoms: N14_11  and  C15_12 
REMARK       I    between atoms: N13_22  and  C26_23 
REMARK    5  A    between atoms: C26_23  and  C24_24 
REMARK    6  A    between atoms: C24_24  and  C23_25 
REMARK    7  A    between atoms: C23_25  and  C25_26 
ROOT
HETATM    1  C1    D T9001       5.398   3.358  -1.266  1.00 30.38     0.107 A 
HETATM    2  C2    D T9001       4.666   4.505  -0.806  1.00 29.65     0.113 A 
HETATM    3  C3    D T9001       3.478   4.892  -1.505  1.00 28.21     0.045 A 
HETATM    4  C4    D T9001       3.009   4.185  -2.630  1.00 27.21     0.088 A 
HETATM    5  C5    D T9001       3.753   3.041  -3.100  1.00 26.27     0.055 A 
HETATM    6  C6    D T9001       4.938   2.646  -2.407  1.00 29.22     0.026 A 
HETATM    7  N7    D T9001       1.870   4.612  -3.229  1.00 25.99    -0.224 NA
HETATM    8  C8    D T9001       1.449   3.916  -4.306  1.00 24.59     0.200 A 
HETATM    9  N9    D T9001       2.060   2.840  -4.845  1.00 25.70    -0.205 NA
HETATM   10  C10   D T9001       3.220   2.391  -4.249  1.00 27.48     0.166 A 
ENDROOT
BRANCH  10  11
HETATM   11  N14   D T9001       3.895   1.255  -4.798  1.00 23.22    -0.227 NA
BRANCH  11  12
HETATM   12  C15   D T9001       3.827  -0.082  -4.331  1.00 24.25     0.084 A 
HETATM   13  C16   D T9001       4.862  -1.032  -4.611  1.00 25.06     0.033 A 
HETATM   14  C17   D T9001       4.778  -2.355  -4.151  1.00 28.28     0.087 A 
HETATM   15  C18   D T9001       3.656  -2.770  -3.395  1.00 25.55     0.151 A 
HETATM   16 CL     D T9001       6.060  -3.440  -4.535  1.00 31.70    -0.080 Cl
HETATM   17  C19   D T9001       2.614  -1.854  -3.098  1.00 24.70     0.032 A 
HETATM   18  F21   D T9001       3.556  -4.030  -2.948  1.00 27.22    -0.203 F 
HETATM   19  C20   D T9001       2.702  -0.514  -3.566  1.00 24.32     0.021 A 
ENDBRANCH  11  12
ENDBRANCH  10  11
BRANCH   1  20
HETATM   20  N13   D T9001       6.554   2.972  -0.532  1.00 34.61    -0.210 NA
HETATM   21  C26   D T9001       6.507   1.967   0.450  1.00 36.24     0.256 C 
HETATM   22  O27   D T9001       5.508   1.325   0.779  1.00 39.97    -0.270 OA
BRANCH  21  23
HETATM   23  C24   D T9001       7.854   1.762   1.123  1.00 35.38     0.092 C 
BRANCH  23  24
HETATM   24  C23   D T9001       8.624   0.568   0.533  1.00 34.93     0.051 C 
BRANCH  24  25
HETATM   25  C25   D T9001       9.938   0.389   1.301  1.00 37.23     0.339 C 
HETATM   26  N33   D T9001       9.826   0.950   2.697  1.00 41.10     0.618 N 
ENDBRANCH  24  25
ENDBRANCH  23  24
ENDBRANCH  21  23
ENDBRANCH   1  20
BRANCH   2  27
HETATM   27  O11   D T9001       5.202   5.143   0.309  1.00 31.09    -0.327 OA
HETATM   28  C12   D T9001       4.586   6.327   0.821  1.00 29.66     0.181 C 
ENDBRANCH   2  27
TORSDOF 7
ENDMDL
MODEL 9
REMARK VINA RESULT:    -7.083      3.924      6.280
REMARK INTER + INTRA:         -10.887
REMARK INTER:                  -9.960
REMARK INTRA:                  -0.927
REMARK UNBOUND:                -0.905
REMARK  7 active torsions:
REMARK  status: ('A' for Active; 'I' for Inactive)
REMARK    1  A    between atoms: C1_1  and  N13_22 
REMARK    2  A    between atoms: C2_2  and  O11_20 
REMARK    3  A    between atoms: C10_10  and  N14_11 
REMARK    4  A    between atoms: N14_11  and  C15_12 
REMARK       I    between atoms: N13_22  and  C26_23 
REMARK    5  A    between atoms: C26_23  and  C24_24 
REMARK    6  A    between atoms: C24_24  and  C23_25 
REMARK    7  A    between atoms: C23_25  and  C25_26 
ROOT
HETATM    1  C1    D T9001       4.116   3.933  -1.284  1.00 30.38     0.107 A 
HETATM    2  C2    D T9001       5.198   4.102  -0.355  1.00 29.65     0.113 A 
HETATM    3  C3    D T9001       5.925   2.947   0.077  1.00 28.21     0.045 A 
HETATM    4  C4    D T9001       5.609   1.652  -0.379  1.00 27.21     0.088 A 
HETATM    5  C5    D T9001       4.512   1.481  -1.301  1.00 26.27     0.055 A 
HETATM    6  C6    D T9001       3.783   2.628  -1.739  1.00 29.22     0.026 A 
HETATM    7  N7    D T9001       6.354   0.612   0.071  1.00 25.99    -0.224 NA
HETATM    8  C8    D T9001       6.024  -0.616  -0.380  1.00 24.59     0.200 A 
HETATM    9  N9    D T9001       5.018  -0.905  -1.233  1.00 25.70    -0.205 NA
HETATM   10  C10   D T9001       4.250   0.140  -1.702  1.00 27.48     0.166 A 
ENDROOT
BRANCH  10  11
HETATM   11  N14   D T9001       3.173  -0.132  -2.603  1.00 23.22    -0.227 NA
BRANCH  11  12
HETATM   12  C15   D T9001       3.276  -0.641  -3.922  1.00 24.25     0.084 A 
HETATM   13  C16   D T9001       2.202  -1.362  -4.539  1.00 25.06     0.033 A 
HETATM   14  C17   D T9001       2.320  -1.868  -5.842  1.00 28.28     0.087 A 
HETATM   15  C18   D T9001       3.517  -1.669  -6.571  1.00 25.55     0.151 A 
HETATM   16 CL     D T9001       0.987  -2.729  -6.512  1.00 31.70    -0.080 Cl
HETATM   17  C19   D T9001       4.599  -0.959  -5.991  1.00 24.70     0.032 A 
HETATM   18  F21   D T9001       3.651  -2.147  -7.817  1.00 27.22    -0.203 F 
HETATM   19  C20   D T9001       4.476  -0.447  -4.670  1.00 24.32     0.021 A 
ENDBRANCH  11  12
ENDBRANCH  10  11
BRANCH   1  20
HETATM   20  N13   D T9001       3.432   5.100  -1.725  1.00 34.61    -0.210 NA
HETATM   21  C26   D T9001       2.041   5.241  -1.582  1.00 36.24     0.256 C 
HETATM   22  O27   D T9001       1.278   4.415  -1.079  1.00 39.97    -0.270 OA
BRANCH  21  23
HETATM   23  C24   D T9001       1.537   6.551  -2.165  1.00 35.38     0.092 C 
BRANCH  23  24
HETATM   24  C23   D T9001       0.525   6.331  -3.303  1.00 34.93     0.051 C 
BRANCH  24  25
HETATM   25  C25   D T9001       1.266   5.814  -4.541  1.00 37.23     0.339 C 
HETATM   26  N33   D T9001       0.893   4.380  -4.831  1.00 41.10     0.618 N 
ENDBRANCH  24  25
ENDBRANCH  23  24
ENDBRANCH  21  23
ENDBRANCH   1  20
BRANCH   2  27
HETATM   27  O11   D T9001       5.438   5.414   0.042  1.00 31.09    -0.327 OA
HETATM   28  C12   D T9001       5.227   5.800   1.403  1.00 29.66     0.181 C 
ENDBRANCH   2  27
TORSDOF 7
ENDMDL
