MODEL 1
REMARK VINA RESULT:    -7.744      0.000      0.000
REMARK INTER + INTRA:         -12.032
REMARK INTER:                 -10.913
REMARK INTRA:                  -1.119
REMARK UNBOUND:                -1.119
REMARK  7 active torsions:
REMARK  status: ('A' for Active; 'I' for Inactive)
REMARK    1  A    between atoms: C1_1  and  N13_22 
REMARK    2  A    between atoms: C2_2  and  O11_20 
REMARK    3  A    between atoms: C10_10  and  N14_11 
REMARK    4  A    between atoms: N14_11  and  C15_12 
REMARK       I    between atoms: N13_22  and  C26_23 
REMARK    5  A    between atoms: C26_23  and  C24_24 
REMARK    6  A    between atoms: C24_24  and  C23_25 
REMARK    7  A    between atoms: C23_25  and  C25_26 
ROOT
HETATM    1  C1    D T9001      -3.974   1.139  10.227  1.00 30.38     0.107 A 
HETATM    2  C2    D T9001      -2.708   0.694   9.712  1.00 29.65     0.113 A 
HETATM    3  C3    D T9001      -2.482  -0.711   9.553  1.00 28.21     0.045 A 
HETATM    4  C4    D T9001      -3.461  -1.667   9.888  1.00 27.21     0.088 A 
HETATM    5  C5    D T9001      -4.726  -1.221  10.420  1.00 26.27     0.055 A 
HETATM    6  C6    D T9001      -4.962   0.178  10.578  1.00 29.22     0.026 A 
HETATM    7  N7    D T9001      -3.170  -2.978   9.698  1.00 25.99    -0.224 NA
HETATM    8  C8    D T9001      -4.126  -3.871  10.032  1.00 24.59     0.200 A 
HETATM    9  N9    D T9001      -5.341  -3.578  10.543  1.00 25.70    -0.205 NA
HETATM   10  C10   D T9001      -5.654  -2.250  10.745  1.00 27.48     0.166 A 
ENDROOT
BRANCH  10  11
HETATM   11  N14   D T9001      -6.932  -1.907  11.290  1.00 23.22    -0.227 NA
BRANCH  11  12
HETATM   12  C15   D T9001      -8.173  -1.900  10.605  1.00 24.25     0.084 A 
HETATM   13  C16   D T9001      -8.882  -3.111  10.314  1.00 25.06     0.033 A 
HETATM   14  C17   D T9001     -10.106  -3.090   9.628  1.00 28.28     0.087 A 
HETATM   15  C18   D T9001     -10.661  -1.857   9.212  1.00 25.55     0.151 A 
HETATM   16 CL     D T9001     -10.894  -4.588   9.311  1.00 31.70    -0.080 Cl
HETATM   17  C19   D T9001      -9.986  -0.640   9.485  1.00 24.70     0.032 A 
HETATM   18  F21   D T9001     -11.828  -1.815   8.552  1.00 27.22    -0.203 F 
HETATM   19  C20   D T9001      -8.745  -0.663  10.180  1.00 24.32     0.021 A 
ENDBRANCH  11  12
ENDBRANCH  10  11
BRANCH   1  20
HETATM   20  N13   D T9001      -4.188   2.540  10.342  1.00 34.61    -0.210 NA
HETATM   21  C26   D T9001      -3.890   3.240  11.523  1.00 36.24     0.256 C 
HETATM   22  O27   D T9001      -3.426   2.753  12.555  1.00 39.97    -0.270 OA
BRANCH  21  23
HETATM   23  C24   D T9001      -4.244   4.715  11.418  1.00 35.38     0.092 C 
BRANCH  23  24
HETATM   24  C23   D T9001      -5.717   4.988  11.769  1.00 34.93     0.051 C 
BRANCH  24  25
HETATM   25  C25   D T9001      -5.883   4.970  13.293  1.00 37.23     0.339 C 
HETATM   26  N33   D T9001      -6.782   3.837  13.722  1.00 41.10     0.618 N 
ENDBRANCH  24  25
ENDBRANCH  23  24
ENDBRANCH  21  23
ENDBRANCH   1  20
BRANCH   2  27
HETATM   27  O11   D T9001      -1.803   1.707   9.409  1.00 31.09    -0.327 OA
HETATM   28  C12   D T9001      -0.508   1.714  10.015  1.00 29.66     0.181 C 
ENDBRANCH   2  27
TORSDOF 7
ENDMDL
MODEL 2
REMARK VINA RESULT:    -7.707      4.656      8.590
REMARK INTER + INTRA:         -11.980
REMARK INTER:                 -11.279
REMARK INTRA:                  -0.701
REMARK UNBOUND:                -1.119
REMARK  7 active torsions:
REMARK  status: ('A' for Active; 'I' for Inactive)
REMARK    1  A    between atoms: C1_1  and  N13_22 
REMARK    2  A    between atoms: C2_2  and  O11_20 
REMARK    3  A    between atoms: C10_10  and  N14_11 
REMARK    4  A    between atoms: N14_11  and  C15_12 
REMARK       I    between atoms: N13_22  and  C26_23 
REMARK    5  A    between atoms: C26_23  and  C24_24 
REMARK    6  A    between atoms: C24_24  and  C23_25 
REMARK    7  A    between atoms: C23_25  and  C25_26 
ROOT
HETATM    1  C1    D T9001      -8.292  -2.559  10.323  1.00 30.38     0.107 A 
HETATM    2  C2    D T9001      -9.548  -2.581   9.626  1.00 29.65     0.113 A 
HETATM    3  C3    D T9001     -10.114  -1.342   9.182  1.00 28.21     0.045 A 
HETATM    4  C4    D T9001      -9.477  -0.106   9.411  1.00 27.21     0.088 A 
HETATM    5  C5    D T9001      -8.223  -0.083  10.124  1.00 26.27     0.055 A 
HETATM    6  C6    D T9001      -7.650  -1.314  10.568  1.00 29.22     0.026 A 
HETATM    7  N7    D T9001     -10.076   1.020   8.948  1.00 25.99    -0.224 NA
HETATM    8  C8    D T9001      -9.444   2.189   9.186  1.00 24.59     0.200 A 
HETATM    9  N9    D T9001      -8.276   2.340   9.846  1.00 25.70    -0.205 NA
HETATM   10  C10   D T9001      -7.653   1.205  10.325  1.00 27.48     0.166 A 
ENDROOT
BRANCH  10  11
HETATM   11  N14   D T9001      -6.416   1.331  11.033  1.00 23.22    -0.227 NA
BRANCH  11  12
HETATM   12  C15   D T9001      -5.836   2.529  11.521  1.00 24.25     0.084 A 
HETATM   13  C16   D T9001      -4.668   3.103  10.921  1.00 25.06     0.033 A 
HETATM   14  C17   D T9001      -4.100   4.284  11.420  1.00 28.28     0.087 A 
HETATM   15  C18   D T9001      -4.682   4.932  12.535  1.00 25.55     0.151 A 
HETATM   16 CL     D T9001      -2.692   4.908  10.647  1.00 31.70    -0.080 Cl
HETATM   17  C19   D T9001      -5.838   4.391  13.153  1.00 24.70     0.032 A 
HETATM   18  F21   D T9001      -4.152   6.060  13.030  1.00 27.22    -0.203 F 
HETATM   19  C20   D T9001      -6.413   3.193  12.645  1.00 24.32     0.021 A 
ENDBRANCH  11  12
ENDBRANCH  10  11
BRANCH   1  20
HETATM   20  N13   D T9001      -7.733  -3.804  10.722  1.00 34.61    -0.210 NA
HETATM   21  C26   D T9001      -6.560  -4.310  10.138  1.00 36.24     0.256 C 
HETATM   22  O27   D T9001      -5.899  -3.765   9.252  1.00 39.97    -0.270 OA
BRANCH  21  23
HETATM   23  C24   D T9001      -6.184  -5.673  10.698  1.00 35.38     0.092 C 
BRANCH  23  24
HETATM   24  C23   D T9001      -6.982  -6.813  10.043  1.00 34.93     0.051 C 
BRANCH  24  25
HETATM   25  C25   D T9001      -7.833  -7.510  11.111  1.00 37.23     0.339 C 
HETATM   26  N33   D T9001      -6.975  -8.372  12.003  1.00 41.10     0.618 N 
ENDBRANCH  24  25
ENDBRANCH  23  24
ENDBRANCH  21  23
ENDBRANCH   1  20
BRANCH   2  27
HETATM   27  O11   D T9001     -10.104  -3.844   9.446  1.00 31.09    -0.327 OA
HETATM   28  C12   D T9001     -11.367  -3.983   8.791  1.00 29.66     0.181 C 
ENDBRANCH   2  27
TORSDOF 7
ENDMDL
MODEL 3
REMARK VINA RESULT:    -7.404      1.586      2.103
REMARK INTER + INTRA:         -11.553
REMARK INTER:                 -10.405
REMARK INTRA:                  -1.148
REMARK UNBOUND:                -1.119
REMARK  7 active torsions:
REMARK  status: ('A' for Active; 'I' for Inactive)
REMARK    1  A    between atoms: C1_1  and  N13_22 
REMARK    2  A    between atoms: C2_2  and  O11_20 
REMARK    3  A    between atoms: C10_10  and  N14_11 
REMARK    4  A    between atoms: N14_11  and  C15_12 
REMARK       I    between atoms: N13_22  and  C26_23 
REMARK    5  A    between atoms: C26_23  and  C24_24 
REMARK    6  A    between atoms: C24_24  and  C23_25 
REMARK    7  A    between atoms: C23_25  and  C25_26 
ROOT
HETATM    1  C1    D T9001      -4.983   0.841  10.698  1.00 30.38     0.107 A 
HETATM    2  C2    D T9001      -3.725   1.042  10.034  1.00 29.65     0.113 A 
HETATM    3  C3    D T9001      -3.010  -0.100   9.548  1.00 28.21     0.045 A 
HETATM    4  C4    D T9001      -3.502  -1.411   9.705  1.00 27.21     0.088 A 
HETATM    5  C5    D T9001      -4.758  -1.614  10.385  1.00 26.27     0.055 A 
HETATM    6  C6    D T9001      -5.480  -0.480  10.870  1.00 29.22     0.026 A 
HETATM    7  N7    D T9001      -2.767  -2.436   9.207  1.00 25.99    -0.224 NA
HETATM    8  C8    D T9001      -3.262  -3.680   9.375  1.00 24.59     0.200 A 
HETATM    9  N9    D T9001      -4.417  -3.998   9.999  1.00 25.70    -0.205 NA
HETATM   10  C10   D T9001      -5.177  -2.967  10.513  1.00 27.48     0.166 A 
ENDROOT
BRANCH  10  11
HETATM   11  N14   D T9001      -6.404  -3.270  11.184  1.00 23.22    -0.227 NA
BRANCH  11  12
HETATM   12  C15   D T9001      -7.651  -3.569  10.580  1.00 24.25     0.084 A 
HETATM   13  C16   D T9001      -8.591  -2.543  10.237  1.00 25.06     0.033 A 
HETATM   14  C17   D T9001      -9.824  -2.855   9.646  1.00 28.28     0.087 A 
HETATM   15  C18   D T9001     -10.159  -4.204   9.379  1.00 25.55     0.151 A 
HETATM   16 CL     D T9001     -10.902  -1.566   9.269  1.00 31.70    -0.080 Cl
HETATM   17  C19   D T9001      -9.251  -5.243   9.705  1.00 24.70     0.032 A 
HETATM   18  F21   D T9001     -11.334  -4.523   8.818  1.00 27.22    -0.203 F 
HETATM   19  C20   D T9001      -8.001  -4.925  10.303  1.00 24.32     0.021 A 
ENDBRANCH  11  12
ENDBRANCH  10  11
BRANCH   1  20
HETATM   20  N13   D T9001      -5.692   1.992  11.139  1.00 34.61    -0.210 NA
HETATM   21  C26   D T9001      -5.550   2.495  12.444  1.00 36.24     0.256 C 
HETATM   22  O27   D T9001      -4.827   2.026  13.324  1.00 39.97    -0.270 OA
BRANCH  21  23
HETATM   23  C24   D T9001      -6.438   3.703  12.692  1.00 35.38     0.092 C 
BRANCH  23  24
HETATM   24  C23   D T9001      -5.623   4.979  12.964  1.00 34.93     0.051 C 
BRANCH  24  25
HETATM   25  C25   D T9001      -4.692   5.244  11.775  1.00 37.23     0.339 C 
HETATM   26  N33   D T9001      -3.278   5.483  12.243  1.00 41.10     0.618 N 
ENDBRANCH  24  25
ENDBRANCH  23  24
ENDBRANCH  21  23
ENDBRANCH   1  20
BRANCH   2  27
HETATM   27  O11   D T9001      -3.318   2.369   9.926  1.00 31.09    -0.327 OA
HETATM   28  C12   D T9001      -1.987   2.740  10.292  1.00 29.66     0.181 C 
ENDBRANCH   2  27
TORSDOF 7
ENDMDL
MODEL 4
REMARK VINA RESULT:    -7.387      0.956      1.432
REMARK INTER + INTRA:         -11.529
REMARK INTER:                 -10.466
REMARK INTRA:                  -1.063
REMARK UNBOUND:                -1.119
REMARK  7 active torsions:
REMARK  status: ('A' for Active; 'I' for Inactive)
REMARK    1  A    between atoms: C1_1  and  N13_22 
REMARK    2  A    between atoms: C2_2  and  O11_20 
REMARK    3  A    between atoms: C10_10  and  N14_11 
REMARK    4  A    between atoms: N14_11  and  C15_12 
REMARK       I    between atoms: N13_22  and  C26_23 
REMARK    5  A    between atoms: C26_23  and  C24_24 
REMARK    6  A    between atoms: C24_24  and  C23_25 
REMARK    7  A    between atoms: C23_25  and  C25_26 
ROOT
HETATM    1  C1    D T9001      -4.211   1.026  10.331  1.00 30.38     0.107 A 
HETATM    2  C2    D T9001      -2.921   0.670   9.809  1.00 29.65     0.113 A 
HETATM    3  C3    D T9001      -2.611  -0.714   9.617  1.00 28.21     0.045 A 
HETATM    4  C4    D T9001      -3.531  -1.736   9.927  1.00 27.21     0.088 A 
HETATM    5  C5    D T9001      -4.821  -1.379  10.466  1.00 26.27     0.055 A 
HETATM    6  C6    D T9001      -5.140   0.000  10.657  1.00 29.22     0.026 A 
HETATM    7  N7    D T9001      -3.162  -3.022   9.706  1.00 25.99    -0.224 NA
HETATM    8  C8    D T9001      -4.063  -3.977  10.017  1.00 24.59     0.200 A 
HETATM    9  N9    D T9001      -5.294  -3.771  10.532  1.00 25.70    -0.205 NA
HETATM   10  C10   D T9001      -5.686  -2.469  10.764  1.00 27.48     0.166 A 
ENDROOT
BRANCH  10  11
HETATM   11  N14   D T9001      -6.982  -2.216  11.315  1.00 23.22    -0.227 NA
BRANCH  11  12
HETATM   12  C15   D T9001      -8.203  -2.116  10.600  1.00 24.25     0.084 A 
HETATM   13  C16   D T9001      -8.964  -3.275  10.237  1.00 25.06     0.033 A 
HETATM   14  C17   D T9001     -10.166  -3.162   9.523  1.00 28.28     0.087 A 
HETATM   15  C18   D T9001     -10.648  -1.885   9.150  1.00 25.55     0.151 A 
HETATM   16 CL     D T9001     -11.019  -4.602   9.119  1.00 31.70    -0.080 Cl
HETATM   17  C19   D T9001      -9.920  -0.717   9.494  1.00 24.70     0.032 A 
HETATM   18  F21   D T9001     -11.793  -1.755   8.464  1.00 27.22    -0.203 F 
HETATM   19  C20   D T9001      -8.702  -0.834  10.218  1.00 24.32     0.021 A 
ENDBRANCH  11  12
ENDBRANCH  10  11
BRANCH   1  20
HETATM   20  N13   D T9001      -4.509   2.409  10.479  1.00 34.61    -0.210 NA
HETATM   21  C26   D T9001      -4.484   3.042  11.733  1.00 36.24     0.256 C 
HETATM   22  O27   D T9001      -4.210   2.506  12.808  1.00 39.97    -0.270 OA
BRANCH  21  23
HETATM   23  C24   D T9001      -4.878   4.508  11.642  1.00 35.38     0.092 C 
BRANCH  23  24
HETATM   24  C23   D T9001      -3.791   5.439  12.207  1.00 34.93     0.051 C 
BRANCH  24  25
HETATM   25  C25   D T9001      -2.511   5.281  11.378  1.00 37.23     0.339 C 
HETATM   26  N33   D T9001      -2.647   5.972  10.043  1.00 41.10     0.618 N 
ENDBRANCH  24  25
ENDBRANCH  23  24
ENDBRANCH  21  23
ENDBRANCH   1  20
BRANCH   2  27
HETATM   27  O11   D T9001      -2.078   1.743   9.532  1.00 31.09    -0.327 OA
HETATM   28  C12   D T9001      -0.666   1.537   9.442  1.00 29.66     0.181 C 
ENDBRANCH   2  27
TORSDOF 7
ENDMDL
MODEL 5
REMARK VINA RESULT:    -7.209      3.982      6.688
REMARK INTER + INTRA:         -11.278
REMARK INTER:                 -10.110
REMARK INTRA:                  -1.168
REMARK UNBOUND:                -1.119
REMARK  7 active torsions:
REMARK  status: ('A' for Active; 'I' for Inactive)
REMARK    1  A    between atoms: C1_1  and  N13_22 
REMARK    2  A    between atoms: C2_2  and  O11_20 
REMARK    3  A    between atoms: C10_10  and  N14_11 
REMARK    4  A    between atoms: N14_11  and  C15_12 
REMARK       I    between atoms: N13_22  and  C26_23 
REMARK    5  A    between atoms: C26_23  and  C24_24 
REMARK    6  A    between atoms: C24_24  and  C23_25 
REMARK    7  A    between atoms: C23_25  and  C25_26 
ROOT
HETATM    1  C1    D T9001      -6.392  -3.359   9.489  1.00 30.38     0.107 A 
HETATM    2  C2    D T9001      -5.727  -4.543   9.956  1.00 29.65     0.113 A 
HETATM    3  C3    D T9001      -4.325  -4.482  10.237  1.00 28.21     0.045 A 
HETATM    4  C4    D T9001      -3.579  -3.299  10.067  1.00 27.21     0.088 A 
HETATM    5  C5    D T9001      -4.245  -2.113   9.583  1.00 26.27     0.055 A 
HETATM    6  C6    D T9001      -5.644  -2.164   9.303  1.00 29.22     0.026 A 
HETATM    7  N7    D T9001      -2.256  -3.324  10.366  1.00 25.99    -0.224 NA
HETATM    8  C8    D T9001      -1.569  -2.177  10.189  1.00 24.59     0.200 A 
HETATM    9  N9    D T9001      -2.075  -1.009   9.737  1.00 25.70    -0.205 NA
HETATM   10  C10   D T9001      -3.419  -0.965   9.427  1.00 27.48     0.166 A 
ENDROOT
BRANCH  10  11
HETATM   11  N14   D T9001      -3.985   0.255   8.941  1.00 23.22    -0.227 NA
BRANCH  11  12
HETATM   12  C15   D T9001      -4.606   1.270   9.712  1.00 24.25     0.084 A 
HETATM   13  C16   D T9001      -3.844   2.269  10.402  1.00 25.06     0.033 A 
HETATM   14  C17   D T9001      -4.473   3.262  11.168  1.00 28.28     0.087 A 
HETATM   15  C18   D T9001      -5.884   3.289  11.270  1.00 25.55     0.151 A 
HETATM   16 CL     D T9001      -3.487   4.424  11.972  1.00 31.70    -0.080 Cl
HETATM   17  C19   D T9001      -6.668   2.316  10.599  1.00 24.70     0.032 A 
HETATM   18  F21   D T9001      -6.504   4.227  12.000  1.00 27.22    -0.203 F 
HETATM   19  C20   D T9001      -6.029   1.310   9.823  1.00 24.32     0.021 A 
ENDBRANCH  11  12
ENDBRANCH  10  11
BRANCH   1  20
HETATM   20  N13   D T9001      -7.793  -3.434   9.251  1.00 34.61    -0.210 NA
HETATM   21  C26   D T9001      -8.723  -2.824  10.108  1.00 36.24     0.256 C 
HETATM   22  O27   D T9001      -8.457  -2.176  11.122  1.00 39.97    -0.270 OA
BRANCH  21  23
HETATM   23  C24   D T9001     -10.157  -3.078   9.671  1.00 35.38     0.092 C 
BRANCH  23  24
HETATM   24  C23   D T9001     -10.986  -1.783   9.609  1.00 34.93     0.051 C 
BRANCH  24  25
HETATM   25  C25   D T9001     -10.405  -0.865   8.526  1.00 37.23     0.339 C 
HETATM   26  N33   D T9001      -9.899   0.422   9.128  1.00 41.10     0.618 N 
ENDBRANCH  24  25
ENDBRANCH  23  24
ENDBRANCH  21  23
ENDBRANCH   1  20
BRANCH   2  27
HETATM   27  O11   D T9001      -6.541  -5.664  10.093  1.00 31.09    -0.327 OA
HETATM   28  C12   D T9001      -6.417  -6.754   9.176  1.00 29.66     0.181 C 
ENDBRANCH   2  27
TORSDOF 7
ENDMDL
MODEL 6
REMARK VINA RESULT:    -7.202      3.829      7.049
REMARK INTER + INTRA:         -11.268
REMARK INTER:                 -10.138
REMARK INTRA:                  -1.130
REMARK UNBOUND:                -1.119
REMARK  7 active torsions:
REMARK  status: ('A' for Active; 'I' for Inactive)
REMARK    1  A    between atoms: C1_1  and  N13_22 
REMARK    2  A    between atoms: C2_2  and  O11_20 
REMARK    3  A    between atoms: C10_10  and  N14_11 
REMARK    4  A    between atoms: N14_11  and  C15_12 
REMARK       I    between atoms: N13_22  and  C26_23 
REMARK    5  A    between atoms: C26_23  and  C24_24 
REMARK    6  A    between atoms: C24_24  and  C23_25 
REMARK    7  A    between atoms: C23_25  and  C25_26 
ROOT
HETATM    1  C1    D T9001      -5.457  -1.509   9.111  1.00 30.38     0.107 A 
HETATM    2  C2    D T9001      -4.866  -2.798   9.338  1.00 29.65     0.113 A 
HETATM    3  C3    D T9001      -3.472  -2.873   9.654  1.00 28.21     0.045 A 
HETATM    4  C4    D T9001      -2.664  -1.722   9.745  1.00 27.21     0.088 A 
HETATM    5  C5    D T9001      -3.255  -0.428   9.502  1.00 26.27     0.055 A 
HETATM    6  C6    D T9001      -4.645  -0.344   9.189  1.00 29.22     0.026 A 
HETATM    7  N7    D T9001      -1.354  -1.880  10.059  1.00 25.99    -0.224 NA
HETATM    8  C8    D T9001      -0.605  -0.760  10.136  1.00 24.59     0.200 A 
HETATM    9  N9    D T9001      -1.039   0.501   9.922  1.00 25.70    -0.205 NA
HETATM   10  C10   D T9001      -2.369   0.681   9.601  1.00 27.48     0.166 A 
ENDROOT
BRANCH  10  11
HETATM   11  N14   D T9001      -2.859   2.004   9.364  1.00 23.22    -0.227 NA
BRANCH  11  12
HETATM   12  C15   D T9001      -3.283   2.940  10.341  1.00 24.25     0.084 A 
HETATM   13  C16   D T9001      -4.167   2.571  11.408  1.00 25.06     0.033 A 
HETATM   14  C17   D T9001      -4.585   3.510  12.362  1.00 28.28     0.087 A 
HETATM   15  C18   D T9001      -4.132   4.849  12.282  1.00 25.55     0.151 A 
HETATM   16 CL     D T9001      -5.652   2.992  13.611  1.00 31.70    -0.080 Cl
HETATM   17  C19   D T9001      -3.256   5.246  11.240  1.00 24.70     0.032 A 
HETATM   18  F21   D T9001      -4.522   5.762  13.183  1.00 27.22    -0.203 F 
HETATM   19  C20   D T9001      -2.834   4.293  10.273  1.00 24.32     0.021 A 
ENDBRANCH  11  12
ENDBRANCH  10  11
BRANCH   1  20
HETATM   20  N13   D T9001      -6.852  -1.458   8.834  1.00 34.61    -0.210 NA
HETATM   21  C26   D T9001      -7.806  -1.332   9.858  1.00 36.24     0.256 C 
HETATM   22  O27   D T9001      -7.566  -1.252  11.064  1.00 39.97    -0.270 OA
BRANCH  21  23
HETATM   23  C24   D T9001      -9.227  -1.342   9.320  1.00 35.38     0.092 C 
BRANCH  23  24
HETATM   24  C23   D T9001     -10.090  -2.436   9.972  1.00 34.93     0.051 C 
BRANCH  24  25
HETATM   25  C25   D T9001      -9.567  -3.812   9.543  1.00 37.23     0.339 C 
HETATM   26  N33   D T9001     -10.658  -4.850   9.622  1.00 41.10     0.618 N 
ENDBRANCH  24  25
ENDBRANCH  23  24
ENDBRANCH  21  23
ENDBRANCH   1  20
BRANCH   2  27
HETATM   27  O11   D T9001      -5.738  -3.878   9.226  1.00 31.09    -0.327 OA
HETATM   28  C12   D T9001      -5.904  -4.781  10.322  1.00 29.66     0.181 C 
ENDBRANCH   2  27
TORSDOF 7
ENDMDL
MODEL 7
REMARK VINA RESULT:    -7.129      2.367      4.757
REMARK INTER + INTRA:         -11.165
REMARK INTER:                 -10.400
REMARK INTRA:                  -0.765
REMARK UNBOUND:                -1.119
REMARK  7 active torsions:
REMARK  status: ('A' for Active; 'I' for Inactive)
REMARK    1  A    between atoms: C1_1  and  N13_22 
REMARK    2  A    between atoms: C2_2  and  O11_20 
REMARK    3  A    between atoms: C10_10  and  N14_11 
REMARK    4  A    between atoms: N14_11  and  C15_12 
REMARK       I    between atoms: N13_22  and  C26_23 
REMARK    5  A    between atoms: C26_23  and  C24_24 
REMARK    6  A    between atoms: C24_24  and  C23_25 
REMARK    7  A    between atoms: C23_25  and  C25_26 
ROOT
HETATM    1  C1    D T9001      -4.827   1.997  11.171  1.00 30.38     0.107 A 
HETATM    2  C2    D T9001      -5.581   3.187  11.455  1.00 29.65     0.113 A 
HETATM    3  C3    D T9001      -6.965   3.231  11.091  1.00 28.21     0.045 A 
HETATM    4  C4    D T9001      -7.607   2.145  10.463  1.00 27.21     0.088 A 
HETATM    5  C5    D T9001      -6.846   0.956  10.165  1.00 26.27     0.055 A 
HETATM    6  C6    D T9001      -5.466   0.902  10.527  1.00 29.22     0.026 A 
HETATM    7  N7    D T9001      -8.924   2.265  10.161  1.00 25.99    -0.224 NA
HETATM    8  C8    D T9001      -9.510   1.210   9.556  1.00 24.59     0.200 A 
HETATM    9  N9    D T9001      -8.905   0.051   9.220  1.00 25.70    -0.205 NA
HETATM   10  C10   D T9001      -7.565  -0.088   9.519  1.00 27.48     0.166 A 
ENDROOT
BRANCH  10  11
HETATM   11  N14   D T9001      -6.893  -1.302   9.171  1.00 23.22    -0.227 NA
BRANCH  11  12
HETATM   12  C15   D T9001      -7.274  -2.618   9.536  1.00 24.25     0.084 A 
HETATM   13  C16   D T9001      -8.624  -3.079   9.401  1.00 25.06     0.033 A 
HETATM   14  C17   D T9001      -8.988  -4.382   9.774  1.00 28.28     0.087 A 
HETATM   15  C18   D T9001      -8.013  -5.267  10.293  1.00 25.55     0.151 A 
HETATM   16 CL     D T9001     -10.632  -4.859   9.588  1.00 31.70    -0.080 Cl
HETATM   17  C19   D T9001      -6.668  -4.843  10.438  1.00 24.70     0.032 A 
HETATM   18  F21   D T9001      -8.341  -6.515  10.658  1.00 27.22    -0.203 F 
HETATM   19  C20   D T9001      -6.300  -3.522  10.060  1.00 24.32     0.021 A 
ENDBRANCH  11  12
ENDBRANCH  10  11
BRANCH   1  20
HETATM   20  N13   D T9001      -3.463   1.964  11.574  1.00 34.61    -0.210 NA
HETATM   21  C26   D T9001      -2.435   2.445  10.747  1.00 36.24     0.256 C 
HETATM   22  O27   D T9001      -2.578   2.935   9.625  1.00 39.97    -0.270 OA
BRANCH  21  23
HETATM   23  C24   D T9001      -1.063   2.264  11.376  1.00 35.38     0.092 C 
BRANCH  23  24
HETATM   24  C23   D T9001      -0.832   0.824  11.866  1.00 34.93     0.051 C 
BRANCH  24  25
HETATM   25  C25   D T9001      -0.357  -0.038  10.691  1.00 37.23     0.339 C 
HETATM   26  N33   D T9001      -1.364  -1.116  10.374  1.00 41.10     0.618 N 
ENDBRANCH  24  25
ENDBRANCH  23  24
ENDBRANCH  21  23
ENDBRANCH   1  20
BRANCH   2  27
HETATM   27  O11   D T9001      -4.866   4.208  12.075  1.00 31.09    -0.327 OA
HETATM   28  C12   D T9001      -5.404   4.861  13.226  1.00 29.66     0.181 C 
ENDBRANCH   2  27
TORSDOF 7
ENDMDL
MODEL 8
REMARK VINA RESULT:    -7.076      3.919      7.034
REMARK INTER + INTRA:         -11.091
REMARK INTER:                 -10.252
REMARK INTRA:                  -0.838
REMARK UNBOUND:                -1.119
REMARK  7 active torsions:
REMARK  status: ('A' for Active; 'I' for Inactive)
REMARK    1  A    between atoms: C1_1  and  N13_22 
REMARK    2  A    between atoms: C2_2  and  O11_20 
REMARK    3  A    between atoms: C10_10  and  N14_11 
REMARK    4  A    between atoms: N14_11  and  C15_12 
REMARK       I    between atoms: N13_22  and  C26_23 
REMARK    5  A    between atoms: C26_23  and  C24_24 
REMARK    6  A    between atoms: C24_24  and  C23_25 
REMARK    7  A    between atoms: C23_25  and  C25_26 
ROOT
HETATM    1  C1    D T9001      -5.831  -3.076   9.352  1.00 30.38     0.107 A 
HETATM    2  C2    D T9001      -6.650  -4.178   9.772  1.00 29.65     0.113 A 
HETATM    3  C3    D T9001      -8.047  -3.955   9.998  1.00 28.21     0.045 A 
HETATM    4  C4    D T9001      -8.639  -2.689   9.823  1.00 27.21     0.088 A 
HETATM    5  C5    D T9001      -7.813  -1.578   9.415  1.00 26.27     0.055 A 
HETATM    6  C6    D T9001      -6.420  -1.792   9.185  1.00 29.22     0.026 A 
HETATM    7  N7    D T9001      -9.971  -2.566  10.048  1.00 25.99    -0.224 NA
HETATM    8  C8    D T9001     -10.508  -1.340   9.875  1.00 24.59     0.200 A 
HETATM    9  N9    D T9001      -9.841  -0.225   9.506  1.00 25.70    -0.205 NA
HETATM   10  C10   D T9001      -8.485  -0.332   9.273  1.00 27.48     0.166 A 
ENDROOT
BRANCH  10  11
HETATM   11  N14   D T9001      -7.748   0.832   8.885  1.00 23.22    -0.227 NA
BRANCH  11  12
HETATM   12  C15   D T9001      -6.940   1.643   9.721  1.00 24.25     0.084 A 
HETATM   13  C16   D T9001      -5.509   1.556   9.705  1.00 25.06     0.033 A 
HETATM   14  C17   D T9001      -4.723   2.359  10.544  1.00 28.28     0.087 A 
HETATM   15  C18   D T9001      -5.341   3.277  11.427  1.00 25.55     0.151 A 
HETATM   16 CL     D T9001      -3.010   2.192  10.470  1.00 31.70    -0.080 Cl
HETATM   17  C19   D T9001      -6.754   3.388  11.467  1.00 24.70     0.032 A 
HETATM   18  F21   D T9001      -4.608   4.051  12.239  1.00 27.22    -0.203 F 
HETATM   19  C20   D T9001      -7.550   2.573  10.616  1.00 24.32     0.021 A 
ENDBRANCH  11  12
ENDBRANCH  10  11
BRANCH   1  20
HETATM   20  N13   D T9001      -4.455  -3.329   9.100  1.00 34.61    -0.210 NA
HETATM   21  C26   D T9001      -3.438  -2.593   9.731  1.00 36.24     0.256 C 
HETATM   22  O27   D T9001      -3.603  -1.683  10.545  1.00 39.97    -0.270 OA
BRANCH  21  23
HETATM   23  C24   D T9001      -2.053  -3.018   9.270  1.00 35.38     0.092 C 
BRANCH  23  24
HETATM   24  C23   D T9001      -0.936  -2.230   9.977  1.00 34.93     0.051 C 
BRANCH  24  25
HETATM   25  C25   D T9001       0.308  -3.118  10.096  1.00 37.23     0.339 C 
HETATM   26  N33   D T9001      -0.046  -4.569   9.881  1.00 41.10     0.618 N 
ENDBRANCH  24  25
ENDBRANCH  23  24
ENDBRANCH  21  23
ENDBRANCH   1  20
BRANCH   2  27
HETATM   27  O11   D T9001      -5.981  -5.390   9.921  1.00 31.09    -0.327 OA
HETATM   28  C12   D T9001      -6.470  -6.562   9.265  1.00 29.66     0.181 C 
ENDBRANCH   2  27
TORSDOF 7
ENDMDL
MODEL 9
REMARK VINA RESULT:    -6.968      4.268      8.139
REMARK INTER + INTRA:         -10.939
REMARK INTER:                  -9.990
REMARK INTRA:                  -0.948
REMARK UNBOUND:                -1.119
REMARK  7 active torsions:
REMARK  status: ('A' for Active; 'I' for Inactive)
REMARK    1  A    between atoms: C1_1  and  N13_22 
REMARK    2  A    between atoms: C2_2  and  O11_20 
REMARK    3  A    between atoms: C10_10  and  N14_11 
REMARK    4  A    between atoms: N14_11  and  C15_12 
REMARK       I    between atoms: N13_22  and  C26_23 
REMARK    5  A    between atoms: C26_23  and  C24_24 
REMARK    6  A    between atoms: C24_24  and  C23_25 
REMARK    7  A    between atoms: C23_25  and  C25_26 
ROOT
HETATM    1  C1    D T9001      -7.439  -1.802  10.859  1.00 30.38     0.107 A 
HETATM    2  C2    D T9001      -8.389  -0.888  10.290  1.00 29.65     0.113 A 
HETATM    3  C3    D T9001      -8.038   0.496  10.183  1.00 28.21     0.045 A 
HETATM    4  C4    D T9001      -6.792   0.987  10.621  1.00 27.21     0.088 A 
HETATM    5  C5    D T9001      -5.843   0.071  11.206  1.00 26.27     0.055 A 
HETATM    6  C6    D T9001      -6.183  -1.312  11.314  1.00 29.22     0.026 A 
HETATM    7  N7    D T9001      -6.535   2.311  10.474  1.00 25.99    -0.224 NA
HETATM    8  C8    D T9001      -5.334   2.751  10.905  1.00 24.59     0.200 A 
HETATM    9  N9    D T9001      -4.370   1.996  11.475  1.00 25.70    -0.205 NA
HETATM   10  C10   D T9001      -4.614   0.648  11.633  1.00 27.48     0.166 A 
ENDROOT
BRANCH  10  11
HETATM   11  N14   D T9001      -3.615  -0.179  12.238  1.00 23.22    -0.227 NA
BRANCH  11  12
HETATM   12  C15   D T9001      -2.504  -0.778  11.592  1.00 24.25     0.084 A 
HETATM   13  C16   D T9001      -2.668  -1.756  10.557  1.00 25.06     0.033 A 
HETATM   14  C17   D T9001      -1.560  -2.346   9.933  1.00 28.28     0.087 A 
HETATM   15  C18   D T9001      -0.250  -1.978  10.322  1.00 25.55     0.151 A 
HETATM   16 CL     D T9001      -1.840  -3.518   8.702  1.00 31.70    -0.080 Cl
HETATM   17  C19   D T9001      -0.052  -1.012  11.342  1.00 24.70     0.032 A 
HETATM   18  F21   D T9001       0.823  -2.532   9.740  1.00 27.22    -0.203 F 
HETATM   19  C20   D T9001      -1.178  -0.415  11.974  1.00 24.32     0.021 A 
ENDBRANCH  11  12
ENDBRANCH  10  11
BRANCH   1  20
HETATM   20  N13   D T9001      -7.796  -3.177  10.922  1.00 34.61    -0.210 NA
HETATM   21  C26   D T9001      -7.223  -4.131  10.064  1.00 36.24     0.256 C 
HETATM   22  O27   D T9001      -6.380  -3.907   9.194  1.00 39.97    -0.270 OA
BRANCH  21  23
HETATM   23  C24   D T9001      -7.793  -5.522  10.292  1.00 35.38     0.092 C 
BRANCH  23  24
HETATM   24  C23   D T9001      -6.917  -6.363  11.237  1.00 34.93     0.051 C 
BRANCH  24  25
HETATM   25  C25   D T9001      -7.533  -7.758  11.386  1.00 37.23     0.339 C 
HETATM   26  N33   D T9001      -6.654  -8.646  12.232  1.00 41.10     0.618 N 
ENDBRANCH  24  25
ENDBRANCH  23  24
ENDBRANCH  21  23
ENDBRANCH   1  20
BRANCH   2  27
HETATM   27  O11   D T9001      -9.593  -1.459   9.888  1.00 31.09    -0.327 OA
HETATM   28  C12   D T9001     -10.322  -0.897   8.794  1.00 29.66     0.181 C 
ENDBRANCH   2  27
TORSDOF 7
ENDMDL
