MODEL 1
REMARK VINA RESULT:    -7.754      0.000      0.000
REMARK INTER + INTRA:         -11.963
REMARK INTER:                 -10.926
REMARK INTRA:                  -1.036
REMARK UNBOUND:                -1.036
REMARK  7 active torsions:
REMARK  status: ('A' for Active; 'I' for Inactive)
REMARK    1  A    between atoms: C1_1  and  N13_22 
REMARK    2  A    between atoms: C2_2  and  O11_20 
REMARK    3  A    between atoms: C10_10  and  N14_11 
REMARK    4  A    between atoms: N14_11  and  C15_12 
REMARK       I    between atoms: N13_22  and  C26_23 
REMARK    5  A    between atoms: C26_23  and  C24_24 
REMARK    6  A    between atoms: C24_24  and  C23_25 
REMARK    7  A    between atoms: C23_25  and  C25_26 
ROOT
HETATM    1  C1    D T9001      -2.558  -0.425   9.348  1.00 30.38     0.107 A 
HETATM    2  C2    D T9001      -3.567  -1.167   8.643  1.00 29.65     0.113 A 
HETATM    3  C3    D T9001      -4.298  -0.517   7.598  1.00 28.21     0.045 A 
HETATM    4  C4    D T9001      -4.059   0.827   7.243  1.00 27.21     0.088 A 
HETATM    5  C5    D T9001      -3.056   1.575   7.961  1.00 26.27     0.055 A 
HETATM    6  C6    D T9001      -2.320   0.934   9.003  1.00 29.22     0.026 A 
HETATM    7  N7    D T9001      -4.789   1.364   6.234  1.00 25.99    -0.224 NA
HETATM    8  C8    D T9001      -4.541   2.651   5.920  1.00 24.59     0.200 A 
HETATM    9  N9    D T9001      -3.637   3.456   6.521  1.00 25.70    -0.205 NA
HETATM   10  C10   D T9001      -2.885   2.926   7.550  1.00 27.48     0.166 A 
ENDROOT
BRANCH  10  11
HETATM   11  N14   D T9001      -1.923   3.753   8.211  1.00 23.22    -0.227 NA
BRANCH  11  12
HETATM   12  C15   D T9001      -0.654   4.145   7.714  1.00 24.25     0.084 A 
HETATM   13  C16   D T9001       0.497   3.300   7.833  1.00 25.06     0.033 A 
HETATM   14  C17   D T9001       1.748   3.703   7.343  1.00 28.28     0.087 A 
HETATM   15  C18   D T9001       1.887   4.964   6.716  1.00 25.55     0.151 A 
HETATM   16 CL     D T9001       3.085   2.634   7.530  1.00 31.70    -0.080 Cl
HETATM   17  C19   D T9001       0.769   5.823   6.580  1.00 24.70     0.032 A 
HETATM   18  F21   D T9001       3.075   5.369   6.243  1.00 27.22    -0.203 F 
HETATM   19  C20   D T9001      -0.499   5.412   7.078  1.00 24.32     0.021 A 
ENDBRANCH  11  12
ENDBRANCH  10  11
BRANCH   1  20
HETATM   20  N13   D T9001      -1.819  -1.103  10.358  1.00 34.61    -0.210 NA
HETATM   21  C26   D T9001      -0.594  -1.733  10.083  1.00 36.24     0.256 C 
HETATM   22  O27   D T9001      -0.031  -1.773   8.988  1.00 39.97    -0.270 OA
BRANCH  21  23
HETATM   23  C24   D T9001      -0.019  -2.424  11.309  1.00 35.38     0.092 C 
BRANCH  23  24
HETATM   24  C23   D T9001      -0.369  -3.921  11.351  1.00 34.93     0.051 C 
BRANCH  24  25
HETATM   25  C25   D T9001       0.477  -4.605  12.431  1.00 37.23     0.339 C 
HETATM   26  N33   D T9001       1.135  -5.852  11.890  1.00 41.10     0.618 N 
ENDBRANCH  24  25
ENDBRANCH  23  24
ENDBRANCH  21  23
ENDBRANCH   1  20
BRANCH   2  27
HETATM   27  O11   D T9001      -3.735  -2.483   9.061  1.00 31.09    -0.327 OA
HETATM   28  C12   D T9001      -3.303  -3.561   8.225  1.00 29.66     0.181 C 
ENDBRANCH   2  27
TORSDOF 7
ENDMDL
MODEL 2
REMARK VINA RESULT:    -7.577      1.930      2.114
REMARK INTER + INTRA:         -11.714
REMARK INTER:                 -10.818
REMARK INTRA:                  -0.896
REMARK UNBOUND:                -1.036
REMARK  7 active torsions:
REMARK  status: ('A' for Active; 'I' for Inactive)
REMARK    1  A    between atoms: C1_1  and  N13_22 
REMARK    2  A    between atoms: C2_2  and  O11_20 
REMARK    3  A    between atoms: C10_10  and  N14_11 
REMARK    4  A    between atoms: N14_11  and  C15_12 
REMARK       I    between atoms: N13_22  and  C26_23 
REMARK    5  A    between atoms: C26_23  and  C24_24 
REMARK    6  A    between atoms: C24_24  and  C23_25 
REMARK    7  A    between atoms: C23_25  and  C25_26 
ROOT
HETATM    1  C1    D T9001      -1.600  -0.597   8.465  1.00 30.38     0.107 A 
HETATM    2  C2    D T9001      -2.929  -1.133   8.558  1.00 29.65     0.113 A 
HETATM    3  C3    D T9001      -3.989  -0.477   7.853  1.00 28.21     0.045 A 
HETATM    4  C4    D T9001      -3.766   0.678   7.075  1.00 27.21     0.088 A 
HETATM    5  C5    D T9001      -2.432   1.223   6.994  1.00 26.27     0.055 A 
HETATM    6  C6    D T9001      -1.369   0.573   7.692  1.00 29.22     0.026 A 
HETATM    7  N7    D T9001      -4.823   1.231   6.431  1.00 25.99    -0.224 NA
HETATM    8  C8    D T9001      -4.579   2.336   5.697  1.00 24.59     0.200 A 
HETATM    9  N9    D T9001      -3.382   2.945   5.550  1.00 25.70    -0.205 NA
HETATM   10  C10   D T9001      -2.295   2.395   6.198  1.00 27.48     0.166 A 
ENDROOT
BRANCH  10  11
HETATM   11  N14   D T9001      -1.013   3.017   6.069  1.00 23.22    -0.227 NA
BRANCH  11  12
HETATM   12  C15   D T9001      -0.538   4.141   6.792  1.00 24.25     0.084 A 
HETATM   13  C16   D T9001      -1.321   4.768   7.815  1.00 25.06     0.033 A 
HETATM   14  C17   D T9001      -0.841   5.882   8.517  1.00 28.28     0.087 A 
HETATM   15  C18   D T9001       0.440   6.406   8.220  1.00 25.55     0.151 A 
HETATM   16 CL     D T9001      -1.845   6.584   9.728  1.00 31.70    -0.080 Cl
HETATM   17  C19   D T9001       1.242   5.809   7.215  1.00 24.70     0.032 A 
HETATM   18  F21   D T9001       0.916   7.473   8.879  1.00 27.22    -0.203 F 
HETATM   19  C20   D T9001       0.753   4.678   6.504  1.00 24.32     0.021 A 
ENDBRANCH  11  12
ENDBRANCH  10  11
BRANCH   1  20
HETATM   20  N13   D T9001      -0.557  -1.287   9.145  1.00 34.61    -0.210 NA
HETATM   21  C26   D T9001      -0.352  -1.144  10.527  1.00 36.24     0.256 C 
HETATM   22  O27   D T9001      -1.019  -0.441  11.289  1.00 39.97    -0.270 OA
BRANCH  21  23
HETATM   23  C24   D T9001       0.845  -1.944  11.014  1.00 35.38     0.092 C 
BRANCH  23  24
HETATM   24  C23   D T9001       0.432  -3.116  11.920  1.00 34.93     0.051 C 
BRANCH  24  25
HETATM   25  C25   D T9001      -0.309  -4.164  11.081  1.00 37.23     0.339 C 
HETATM   26  N33   D T9001       0.371  -5.508  11.176  1.00 41.10     0.618 N 
ENDBRANCH  24  25
ENDBRANCH  23  24
ENDBRANCH  21  23
ENDBRANCH   1  20
BRANCH   2  27
HETATM   27  O11   D T9001      -3.055  -2.271   9.348  1.00 31.09    -0.327 OA
HETATM   28  C12   D T9001      -3.349  -3.534   8.742  1.00 29.66     0.181 C 
ENDBRANCH   2  27
TORSDOF 7
ENDMDL
MODEL 3
REMARK VINA RESULT:    -7.384      2.271      5.794
REMARK INTER + INTRA:         -11.443
REMARK INTER:                 -10.405
REMARK INTRA:                  -1.038
REMARK UNBOUND:                -1.036
REMARK  7 active torsions:
REMARK  status: ('A' for Active; 'I' for Inactive)
REMARK    1  A    between atoms: C1_1  and  N13_22 
REMARK    2  A    between atoms: C2_2  and  O11_20 
REMARK    3  A    between atoms: C10_10  and  N14_11 
REMARK    4  A    between atoms: N14_11  and  C15_12 
REMARK       I    between atoms: N13_22  and  C26_23 
REMARK    5  A    between atoms: C26_23  and  C24_24 
REMARK    6  A    between atoms: C24_24  and  C23_25 
REMARK    7  A    between atoms: C23_25  and  C25_26 
ROOT
HETATM    1  C1    D T9001      -3.066   0.273   8.659  1.00 30.38     0.107 A 
HETATM    2  C2    D T9001      -3.812  -0.896   8.284  1.00 29.65     0.113 A 
HETATM    3  C3    D T9001      -3.326  -2.182   8.682  1.00 28.21     0.045 A 
HETATM    4  C4    D T9001      -2.139  -2.334   9.428  1.00 27.21     0.088 A 
HETATM    5  C5    D T9001      -1.383  -1.160   9.791  1.00 26.27     0.055 A 
HETATM    6  C6    D T9001      -1.861   0.127   9.400  1.00 29.22     0.026 A 
HETATM    7  N7    D T9001      -1.754  -3.587   9.773  1.00 25.99    -0.224 NA
HETATM    8  C8    D T9001      -0.613  -3.701  10.483  1.00 24.59     0.200 A 
HETATM    9  N9    D T9001       0.185  -2.683  10.875  1.00 25.70    -0.205 NA
HETATM   10  C10   D T9001      -0.192  -1.401  10.532  1.00 27.48     0.166 A 
ENDROOT
BRANCH  10  11
HETATM   11  N14   D T9001       0.633  -0.300  10.926  1.00 23.22    -0.227 NA
BRANCH  11  12
HETATM   12  C15   D T9001       1.170   0.704  10.081  1.00 24.25     0.084 A 
HETATM   13  C16   D T9001       1.076   2.096  10.408  1.00 25.06     0.033 A 
HETATM   14  C17   D T9001       1.606   3.079   9.559  1.00 28.28     0.087 A 
HETATM   15  C18   D T9001       2.249   2.701   8.357  1.00 25.55     0.151 A 
HETATM   16 CL     D T9001       1.446   4.731  10.018  1.00 31.70    -0.080 Cl
HETATM   17  C19   D T9001       2.362   1.333   8.004  1.00 24.70     0.032 A 
HETATM   18  F21   D T9001       2.760   3.626   7.531  1.00 27.22    -0.203 F 
HETATM   19  C20   D T9001       1.824   0.338   8.867  1.00 24.32     0.021 A 
ENDBRANCH  11  12
ENDBRANCH  10  11
BRANCH   1  20
HETATM   20  N13   D T9001      -3.588   1.543   8.282  1.00 34.61    -0.210 NA
HETATM   21  C26   D T9001      -3.060   2.270   7.202  1.00 36.24     0.256 C 
HETATM   22  O27   D T9001      -2.129   1.916   6.477  1.00 39.97    -0.270 OA
BRANCH  21  23
HETATM   23  C24   D T9001      -3.752   3.611   7.023  1.00 35.38     0.092 C 
BRANCH  23  24
HETATM   24  C23   D T9001      -2.754   4.780   6.977  1.00 34.93     0.051 C 
BRANCH  24  25
HETATM   25  C25   D T9001      -2.109   4.946   8.357  1.00 37.23     0.339 C 
HETATM   26  N33   D T9001      -3.129   5.385   9.379  1.00 41.10     0.618 N 
ENDBRANCH  24  25
ENDBRANCH  23  24
ENDBRANCH  21  23
ENDBRANCH   1  20
BRANCH   2  27
HETATM   27  O11   D T9001      -4.968  -0.650   7.549  1.00 31.09    -0.327 OA
HETATM   28  C12   D T9001      -5.511  -1.672   6.707  1.00 29.66     0.181 C 
ENDBRANCH   2  27
TORSDOF 7
ENDMDL
MODEL 4
REMARK VINA RESULT:    -7.302      3.558      7.511
REMARK INTER + INTRA:         -11.326
REMARK INTER:                 -10.608
REMARK INTRA:                  -0.718
REMARK UNBOUND:                -1.036
REMARK  7 active torsions:
REMARK  status: ('A' for Active; 'I' for Inactive)
REMARK    1  A    between atoms: C1_1  and  N13_22 
REMARK    2  A    between atoms: C2_2  and  O11_20 
REMARK    3  A    between atoms: C10_10  and  N14_11 
REMARK    4  A    between atoms: N14_11  and  C15_12 
REMARK       I    between atoms: N13_22  and  C26_23 
REMARK    5  A    between atoms: C26_23  and  C24_24 
REMARK    6  A    between atoms: C24_24  and  C23_25 
REMARK    7  A    between atoms: C23_25  and  C25_26 
ROOT
HETATM    1  C1    D T9001      -2.124   1.306   8.638  1.00 30.38     0.107 A 
HETATM    2  C2    D T9001      -3.513   1.268   8.273  1.00 29.65     0.113 A 
HETATM    3  C3    D T9001      -4.167  -0.001   8.174  1.00 28.21     0.045 A 
HETATM    4  C4    D T9001      -3.489  -1.213   8.421  1.00 27.21     0.088 A 
HETATM    5  C5    D T9001      -2.090  -1.175   8.773  1.00 26.27     0.055 A 
HETATM    6  C6    D T9001      -1.430   0.088   8.877  1.00 29.22     0.026 A 
HETATM    7  N7    D T9001      -4.185  -2.371   8.315  1.00 25.99    -0.224 NA
HETATM    8  C8    D T9001      -3.508  -3.513   8.553  1.00 24.59     0.200 A 
HETATM    9  N9    D T9001      -2.201  -3.609   8.882  1.00 25.70    -0.205 NA
HETATM   10  C10   D T9001      -1.477  -2.440   8.994  1.00 27.48     0.166 A 
ENDROOT
BRANCH  10  11
HETATM   11  N14   D T9001      -0.089  -2.506   9.335  1.00 23.22    -0.227 NA
BRANCH  11  12
HETATM   12  C15   D T9001       0.468  -3.023  10.532  1.00 24.25     0.084 A 
HETATM   13  C16   D T9001       1.732  -2.572  11.033  1.00 25.06     0.033 A 
HETATM   14  C17   D T9001       2.275  -3.097  12.215  1.00 28.28     0.087 A 
HETATM   15  C18   D T9001       1.569  -4.090  12.935  1.00 25.55     0.151 A 
HETATM   16 CL     D T9001       3.803  -2.508  12.748  1.00 31.70    -0.080 Cl
HETATM   17  C19   D T9001       0.315  -4.557  12.469  1.00 24.70     0.032 A 
HETATM   18  F21   D T9001       2.072  -4.606  14.066  1.00 27.22    -0.203 F 
HETATM   19  C20   D T9001      -0.234  -4.023  11.270  1.00 24.32     0.021 A 
ENDBRANCH  11  12
ENDBRANCH  10  11
BRANCH   1  20
HETATM   20  N13   D T9001      -1.505   2.581   8.766  1.00 34.61    -0.210 NA
HETATM   21  C26   D T9001      -0.731   3.135   7.733  1.00 36.24     0.256 C 
HETATM   22  O27   D T9001      -0.505   2.615   6.639  1.00 39.97    -0.270 OA
BRANCH  21  23
HETATM   23  C24   D T9001      -0.141   4.481   8.120  1.00 35.38     0.092 C 
BRANCH  23  24
HETATM   24  C23   D T9001      -1.167   5.621   8.005  1.00 34.93     0.051 C 
BRANCH  24  25
HETATM   25  C25   D T9001      -1.463   6.175   9.403  1.00 37.23     0.339 C 
HETATM   26  N33   D T9001      -2.898   5.918   9.792  1.00 41.10     0.618 N 
ENDBRANCH  24  25
ENDBRANCH  23  24
ENDBRANCH  21  23
ENDBRANCH   1  20
BRANCH   2  27
HETATM   27  O11   D T9001      -4.100   2.510   8.047  1.00 31.09    -0.327 OA
HETATM   28  C12   D T9001      -4.501   2.882   6.725  1.00 29.66     0.181 C 
ENDBRANCH   2  27
TORSDOF 7
ENDMDL
MODEL 5
REMARK VINA RESULT:    -7.292      4.333      7.195
REMARK INTER + INTRA:         -11.312
REMARK INTER:                 -10.416
REMARK INTRA:                  -0.896
REMARK UNBOUND:                -1.036
REMARK  7 active torsions:
REMARK  status: ('A' for Active; 'I' for Inactive)
REMARK    1  A    between atoms: C1_1  and  N13_22 
REMARK    2  A    between atoms: C2_2  and  O11_20 
REMARK    3  A    between atoms: C10_10  and  N14_11 
REMARK    4  A    between atoms: N14_11  and  C15_12 
REMARK       I    between atoms: N13_22  and  C26_23 
REMARK    5  A    between atoms: C26_23  and  C24_24 
REMARK    6  A    between atoms: C24_24  and  C23_25 
REMARK    7  A    between atoms: C23_25  and  C25_26 
ROOT
HETATM    1  C1    D T9001       1.296   3.703   7.978  1.00 30.38     0.107 A 
HETATM    2  C2    D T9001       0.938   4.369   6.757  1.00 29.65     0.113 A 
HETATM    3  C3    D T9001      -0.392   4.214   6.250  1.00 28.21     0.045 A 
HETATM    4  C4    D T9001      -1.356   3.426   6.912  1.00 27.21     0.088 A 
HETATM    5  C5    D T9001      -0.991   2.746   8.130  1.00 26.27     0.055 A 
HETATM    6  C6    D T9001       0.333   2.897   8.644  1.00 29.22     0.026 A 
HETATM    7  N7    D T9001      -2.596   3.340   6.370  1.00 25.99    -0.224 NA
HETATM    8  C8    D T9001      -3.495   2.576   7.023  1.00 24.59     0.200 A 
HETATM    9  N9    D T9001      -3.273   1.885   8.163  1.00 25.70    -0.205 NA
HETATM   10  C10   D T9001      -2.017   1.962   8.728  1.00 27.48     0.166 A 
ENDROOT
BRANCH  10  11
HETATM   11  N14   D T9001      -1.746   1.238   9.932  1.00 23.22    -0.227 NA
BRANCH  11  12
HETATM   12  C15   D T9001      -1.523  -0.157  10.053  1.00 24.25     0.084 A 
HETATM   13  C16   D T9001      -2.323  -1.113   9.345  1.00 25.06     0.033 A 
HETATM   14  C17   D T9001      -2.096  -2.491   9.479  1.00 28.28     0.087 A 
HETATM   15  C18   D T9001      -1.061  -2.957  10.324  1.00 25.55     0.151 A 
HETATM   16 CL     D T9001      -3.103  -3.577   8.601  1.00 31.70    -0.080 Cl
HETATM   17  C19   D T9001      -0.250  -2.039  11.037  1.00 24.70     0.032 A 
HETATM   18  F21   D T9001      -0.829  -4.270  10.467  1.00 27.22    -0.203 F 
HETATM   19  C20   D T9001      -0.482  -0.641  10.899  1.00 24.32     0.021 A 
ENDBRANCH  11  12
ENDBRANCH  10  11
BRANCH   1  20
HETATM   20  N13   D T9001       2.613   3.902   8.481  1.00 34.61    -0.210 NA
HETATM   21  C26   D T9001       3.660   3.013   8.186  1.00 36.24     0.256 C 
HETATM   22  O27   D T9001       3.577   2.003   7.486  1.00 39.97    -0.270 OA
BRANCH  21  23
HETATM   23  C24   D T9001       4.958   3.412   8.871  1.00 35.38     0.092 C 
BRANCH  23  24
HETATM   24  C23   D T9001       5.811   2.191   9.256  1.00 34.93     0.051 C 
BRANCH  24  25
HETATM   25  C25   D T9001       6.975   2.059   8.267  1.00 37.23     0.339 C 
HETATM   26  N33   D T9001       8.299   2.261   8.963  1.00 41.10     0.618 N 
ENDBRANCH  24  25
ENDBRANCH  23  24
ENDBRANCH  21  23
ENDBRANCH   1  20
BRANCH   2  27
HETATM   27  O11   D T9001       1.952   5.123   6.174  1.00 31.09    -0.327 OA
HETATM   28  C12   D T9001       1.802   6.539   6.035  1.00 29.66     0.181 C 
ENDBRANCH   2  27
TORSDOF 7
ENDMDL
MODEL 6
REMARK VINA RESULT:    -7.254      3.832      7.970
REMARK INTER + INTRA:         -11.259
REMARK INTER:                 -10.482
REMARK INTRA:                  -0.777
REMARK UNBOUND:                -1.036
REMARK  7 active torsions:
REMARK  status: ('A' for Active; 'I' for Inactive)
REMARK    1  A    between atoms: C1_1  and  N13_22 
REMARK    2  A    between atoms: C2_2  and  O11_20 
REMARK    3  A    between atoms: C10_10  and  N14_11 
REMARK    4  A    between atoms: N14_11  and  C15_12 
REMARK       I    between atoms: N13_22  and  C26_23 
REMARK    5  A    between atoms: C26_23  and  C24_24 
REMARK    6  A    between atoms: C24_24  and  C23_25 
REMARK    7  A    between atoms: C23_25  and  C25_26 
ROOT
HETATM    1  C1    D T9001      -0.104   2.502   7.785  1.00 30.38     0.107 A 
HETATM    2  C2    D T9001       1.166   3.064   7.419  1.00 29.65     0.113 A 
HETATM    3  C3    D T9001       2.330   2.682   8.160  1.00 28.21     0.045 A 
HETATM    4  C4    D T9001       2.265   1.774   9.237  1.00 27.21     0.088 A 
HETATM    5  C5    D T9001       0.987   1.221   9.613  1.00 26.27     0.055 A 
HETATM    6  C6    D T9001      -0.179   1.595   8.877  1.00 29.22     0.026 A 
HETATM    7  N7    D T9001       3.416   1.457   9.879  1.00 25.99    -0.224 NA
HETATM    8  C8    D T9001       3.322   0.589  10.907  1.00 24.59     0.200 A 
HETATM    9  N9    D T9001       2.187   0.012  11.359  1.00 25.70    -0.205 NA
HETATM   10  C10   D T9001       1.006   0.323  10.716  1.00 27.48     0.166 A 
ENDROOT
BRANCH  10  11
HETATM   11  N14   D T9001      -0.216  -0.266  11.172  1.00 23.22    -0.227 NA
BRANCH  11  12
HETATM   12  C15   D T9001      -1.033  -1.184  10.464  1.00 24.25     0.084 A 
HETATM   13  C16   D T9001      -2.199  -0.760   9.749  1.00 25.06     0.033 A 
HETATM   14  C17   D T9001      -3.002  -1.679   9.058  1.00 28.28     0.087 A 
HETATM   15  C18   D T9001      -2.663  -3.053   9.059  1.00 25.55     0.151 A 
HETATM   16 CL     D T9001      -4.393  -1.092   8.227  1.00 31.70    -0.080 Cl
HETATM   17  C19   D T9001      -1.515  -3.506   9.756  1.00 24.70     0.032 A 
HETATM   18  F21   D T9001      -3.419  -3.949   8.408  1.00 27.22    -0.203 F 
HETATM   19  C20   D T9001      -0.702  -2.572  10.455  1.00 24.32     0.021 A 
ENDBRANCH  11  12
ENDBRANCH  10  11
BRANCH   1  20
HETATM   20  N13   D T9001      -1.240   2.869   7.010  1.00 34.61    -0.210 NA
HETATM   21  C26   D T9001      -2.212   3.759   7.498  1.00 36.24     0.256 C 
HETATM   22  O27   D T9001      -2.201   4.310   8.599  1.00 39.97    -0.270 OA
BRANCH  21  23
HETATM   23  C24   D T9001      -3.349   3.961   6.509  1.00 35.38     0.092 C 
BRANCH  23  24
HETATM   24  C23   D T9001      -4.460   2.912   6.678  1.00 34.93     0.051 C 
BRANCH  24  25
HETATM   25  C25   D T9001      -4.921   2.439   5.294  1.00 37.23     0.339 C 
HETATM   26  N33   D T9001      -5.138   0.946   5.280  1.00 41.10     0.618 N 
ENDBRANCH  24  25
ENDBRANCH  23  24
ENDBRANCH  21  23
ENDBRANCH   1  20
BRANCH   2  27
HETATM   27  O11   D T9001       1.135   3.950   6.346  1.00 31.09    -0.327 OA
HETATM   28  C12   D T9001       1.615   5.288   6.509  1.00 29.66     0.181 C 
ENDBRANCH   2  27
TORSDOF 7
ENDMDL
MODEL 7
REMARK VINA RESULT:    -7.070      1.764      2.277
REMARK INTER + INTRA:         -10.999
REMARK INTER:                 -10.107
REMARK INTRA:                  -0.892
REMARK UNBOUND:                -1.036
REMARK  7 active torsions:
REMARK  status: ('A' for Active; 'I' for Inactive)
REMARK    1  A    between atoms: C1_1  and  N13_22 
REMARK    2  A    between atoms: C2_2  and  O11_20 
REMARK    3  A    between atoms: C10_10  and  N14_11 
REMARK    4  A    between atoms: N14_11  and  C15_12 
REMARK       I    between atoms: N13_22  and  C26_23 
REMARK    5  A    between atoms: C26_23  and  C24_24 
REMARK    6  A    between atoms: C24_24  and  C23_25 
REMARK    7  A    between atoms: C23_25  and  C25_26 
ROOT
HETATM    1  C1    D T9001      -2.734  -0.263   8.850  1.00 30.38     0.107 A 
HETATM    2  C2    D T9001      -3.849  -0.227   7.945  1.00 29.65     0.113 A 
HETATM    3  C3    D T9001      -4.139   0.993   7.254  1.00 28.21     0.045 A 
HETATM    4  C4    D T9001      -3.365   2.157   7.437  1.00 27.21     0.088 A 
HETATM    5  C5    D T9001      -2.254   2.124   8.357  1.00 26.27     0.055 A 
HETATM    6  C6    D T9001      -1.957   0.911   9.049  1.00 29.22     0.026 A 
HETATM    7  N7    D T9001      -3.701   3.268   6.736  1.00 25.99    -0.224 NA
HETATM    8  C8    D T9001      -2.944   4.367   6.935  1.00 24.59     0.200 A 
HETATM    9  N9    D T9001      -1.888   4.464   7.772  1.00 25.70    -0.205 NA
HETATM   10  C10   D T9001      -1.532   3.343   8.494  1.00 27.48     0.166 A 
ENDROOT
BRANCH  10  11
HETATM   11  N14   D T9001      -0.422   3.413   9.394  1.00 23.22    -0.227 NA
BRANCH  11  12
HETATM   12  C15   D T9001       0.923   3.062   9.113  1.00 24.25     0.084 A 
HETATM   13  C16   D T9001       1.722   2.326  10.046  1.00 25.06     0.033 A 
HETATM   14  C17   D T9001       3.054   1.992   9.758  1.00 28.28     0.087 A 
HETATM   15  C18   D T9001       3.629   2.383   8.525  1.00 25.55     0.151 A 
HETATM   16 CL     D T9001       3.952   1.111  10.934  1.00 31.70    -0.080 Cl
HETATM   17  C19   D T9001       2.865   3.111   7.578  1.00 24.70     0.032 A 
HETATM   18  F21   D T9001       4.900   2.076   8.231  1.00 27.22    -0.203 F 
HETATM   19  C20   D T9001       1.515   3.448   7.873  1.00 24.32     0.021 A 
ENDBRANCH  11  12
ENDBRANCH  10  11
BRANCH   1  20
HETATM   20  N13   D T9001      -2.444  -1.496   9.498  1.00 34.61    -0.210 NA
HETATM   21  C26   D T9001      -1.209  -2.145   9.337  1.00 36.24     0.256 C 
HETATM   22  O27   D T9001      -0.266  -1.747   8.651  1.00 39.97    -0.270 OA
BRANCH  21  23
HETATM   23  C24   D T9001      -1.153  -3.464  10.091  1.00 35.38     0.092 C 
BRANCH  23  24
HETATM   24  C23   D T9001      -0.230  -3.392  11.320  1.00 34.93     0.051 C 
BRANCH  24  25
HETATM   25  C25   D T9001       0.745  -4.574  11.287  1.00 37.23     0.339 C 
HETATM   26  N33   D T9001       0.734  -5.317  12.600  1.00 41.10     0.618 N 
ENDBRANCH  24  25
ENDBRANCH  23  24
ENDBRANCH  21  23
ENDBRANCH   1  20
BRANCH   2  27
HETATM   27  O11   D T9001      -4.556  -1.420   7.828  1.00 31.09    -0.327 OA
HETATM   28  C12   D T9001      -5.491  -1.596   6.759  1.00 29.66     0.181 C 
ENDBRANCH   2  27
TORSDOF 7
ENDMDL
MODEL 8
REMARK VINA RESULT:    -6.923      2.929      4.602
REMARK INTER + INTRA:         -10.792
REMARK INTER:                  -9.986
REMARK INTRA:                  -0.806
REMARK UNBOUND:                -1.036
REMARK  7 active torsions:
REMARK  status: ('A' for Active; 'I' for Inactive)
REMARK    1  A    between atoms: C1_1  and  N13_22 
REMARK    2  A    between atoms: C2_2  and  O11_20 
REMARK    3  A    between atoms: C10_10  and  N14_11 
REMARK    4  A    between atoms: N14_11  and  C15_12 
REMARK       I    between atoms: N13_22  and  C26_23 
REMARK    5  A    between atoms: C26_23  and  C24_24 
REMARK    6  A    between atoms: C24_24  and  C23_25 
REMARK    7  A    between atoms: C23_25  and  C25_26 
ROOT
HETATM    1  C1    D T9001      -0.434   0.295   9.599  1.00 30.38     0.107 A 
HETATM    2  C2    D T9001      -0.972  -0.907  10.173  1.00 29.65     0.113 A 
HETATM    3  C3    D T9001      -2.211  -1.418   9.669  1.00 28.21     0.045 A 
HETATM    4  C4    D T9001      -2.917  -0.776   8.631  1.00 27.21     0.088 A 
HETATM    5  C5    D T9001      -2.383   0.439   8.065  1.00 26.27     0.055 A 
HETATM    6  C6    D T9001      -1.146   0.955   8.560  1.00 29.22     0.026 A 
HETATM    7  N7    D T9001      -4.078  -1.333   8.205  1.00 25.99    -0.224 NA
HETATM    8  C8    D T9001      -4.732  -0.694   7.214  1.00 24.59     0.200 A 
HETATM    9  N9    D T9001      -4.341   0.450   6.611  1.00 25.70    -0.205 NA
HETATM   10  C10   D T9001      -3.162   1.030   7.032  1.00 27.48     0.166 A 
ENDROOT
BRANCH  10  11
HETATM   11  N14   D T9001      -2.721   2.245   6.418  1.00 23.22    -0.227 NA
BRANCH  11  12
HETATM   12  C15   D T9001      -2.331   3.437   7.079  1.00 24.25     0.084 A 
HETATM   13  C16   D T9001      -3.110   4.001   8.143  1.00 25.06     0.033 A 
HETATM   14  C17   D T9001      -2.715   5.184   8.783  1.00 28.28     0.087 A 
HETATM   15  C18   D T9001      -1.529   5.843   8.382  1.00 25.55     0.151 A 
HETATM   16 CL     D T9001      -3.708   5.802  10.049  1.00 31.70    -0.080 Cl
HETATM   17  C19   D T9001      -0.735   5.312   7.335  1.00 24.70     0.032 A 
HETATM   18  F21   D T9001      -1.136   6.977   8.980  1.00 27.22    -0.203 F 
HETATM   19  C20   D T9001      -1.137   4.111   6.686  1.00 24.32     0.021 A 
ENDBRANCH  11  12
ENDBRANCH  10  11
BRANCH   1  20
HETATM   20  N13   D T9001       0.816   0.765  10.091  1.00 34.61    -0.210 NA
HETATM   21  C26   D T9001       1.962   0.812   9.279  1.00 36.24     0.256 C 
HETATM   22  O27   D T9001       2.024   0.474   8.096  1.00 39.97    -0.270 OA
BRANCH  21  23
HETATM   23  C24   D T9001       3.181   1.307  10.039  1.00 35.38     0.092 C 
BRANCH  23  24
HETATM   24  C23   D T9001       3.043   2.779  10.465  1.00 34.93     0.051 C 
BRANCH  24  25
HETATM   25  C25   D T9001       3.185   3.675   9.230  1.00 37.23     0.339 C 
HETATM   26  N33   D T9001       4.565   4.282   9.159  1.00 41.10     0.618 N 
ENDBRANCH  24  25
ENDBRANCH  23  24
ENDBRANCH  21  23
ENDBRANCH   1  20
BRANCH   2  27
HETATM   27  O11   D T9001      -0.209  -1.470  11.191  1.00 31.09    -0.327 OA
HETATM   28  C12   D T9001      -0.124  -2.892  11.319  1.00 29.66     0.181 C 
ENDBRANCH   2  27
TORSDOF 7
ENDMDL
MODEL 9
REMARK VINA RESULT:    -6.839      2.828      3.505
REMARK INTER + INTRA:         -10.674
REMARK INTER:                  -9.629
REMARK INTRA:                  -1.045
REMARK UNBOUND:                -1.036
REMARK  7 active torsions:
REMARK  status: ('A' for Active; 'I' for Inactive)
REMARK    1  A    between atoms: C1_1  and  N13_22 
REMARK    2  A    between atoms: C2_2  and  O11_20 
REMARK    3  A    between atoms: C10_10  and  N14_11 
REMARK    4  A    between atoms: N14_11  and  C15_12 
REMARK       I    between atoms: N13_22  and  C26_23 
REMARK    5  A    between atoms: C26_23  and  C24_24 
REMARK    6  A    between atoms: C24_24  and  C23_25 
REMARK    7  A    between atoms: C23_25  and  C25_26 
ROOT
HETATM    1  C1    D T9001       0.026  -0.748   9.670  1.00 30.38     0.107 A 
HETATM    2  C2    D T9001      -0.860  -1.764  10.167  1.00 29.65     0.113 A 
HETATM    3  C3    D T9001      -2.199  -1.819   9.663  1.00 28.21     0.045 A 
HETATM    4  C4    D T9001      -2.672  -0.907   8.697  1.00 27.21     0.088 A 
HETATM    5  C5    D T9001      -1.786   0.122   8.210  1.00 26.27     0.055 A 
HETATM    6  C6    D T9001      -0.448   0.183   8.705  1.00 29.22     0.026 A 
HETATM    7  N7    D T9001      -3.951  -1.036   8.266  1.00 25.99    -0.224 NA
HETATM    8  C8    D T9001      -4.376  -0.146   7.346  1.00 24.59     0.200 A 
HETATM    9  N9    D T9001      -3.648   0.863   6.820  1.00 25.70    -0.205 NA
HETATM   10  C10   D T9001      -2.345   1.009   7.248  1.00 27.48     0.166 A 
ENDROOT
BRANCH  10  11
HETATM   11  N14   D T9001      -1.548   2.071   6.715  1.00 23.22    -0.227 NA
BRANCH  11  12
HETATM   12  C15   D T9001      -1.328   3.344   7.301  1.00 24.25     0.084 A 
HETATM   13  C16   D T9001      -2.262   3.924   8.220  1.00 25.06     0.033 A 
HETATM   14  C17   D T9001      -2.035   5.186   8.787  1.00 28.28     0.087 A 
HETATM   15  C18   D T9001      -0.865   5.910   8.453  1.00 25.55     0.151 A 
HETATM   16 CL     D T9001      -3.208   5.818   9.879  1.00 31.70    -0.080 Cl
HETATM   17  C19   D T9001       0.080   5.365   7.549  1.00 24.70     0.032 A 
HETATM   18  F21   D T9001      -0.631   7.120   8.982  1.00 27.22    -0.203 F 
HETATM   19  C20   D T9001      -0.152   4.084   6.975  1.00 24.32     0.021 A 
ENDBRANCH  11  12
ENDBRANCH  10  11
BRANCH   1  20
HETATM   20  N13   D T9001       1.363  -0.735  10.159  1.00 34.61    -0.210 NA
HETATM   21  C26   D T9001       1.864   0.338  10.916  1.00 36.24     0.256 C 
HETATM   22  O27   D T9001       1.240   1.349  11.239  1.00 39.97    -0.270 OA
BRANCH  21  23
HETATM   23  C24   D T9001       3.325   0.142  11.285  1.00 35.38     0.092 C 
BRANCH  23  24
HETATM   24  C23   D T9001       3.709  -1.345  11.372  1.00 34.93     0.051 C 
BRANCH  24  25
HETATM   25  C25   D T9001       3.708  -1.780  12.842  1.00 37.23     0.339 C 
HETATM   26  N33   D T9001       3.376  -3.247  12.970  1.00 41.10     0.618 N 
ENDBRANCH  24  25
ENDBRANCH  23  24
ENDBRANCH  21  23
ENDBRANCH   1  20
BRANCH   2  27
HETATM   27  O11   D T9001      -0.308  -2.618  11.116  1.00 31.09    -0.327 OA
HETATM   28  C12   D T9001      -0.320  -4.032  10.900  1.00 29.66     0.181 C 
ENDBRANCH   2  27
TORSDOF 7
ENDMDL
