MODEL 1
REMARK VINA RESULT:    -7.562      0.000      0.000
REMARK INTER + INTRA:         -11.635
REMARK INTER:                 -10.656
REMARK INTRA:                  -0.979
REMARK UNBOUND:                -0.979
REMARK  7 active torsions:
REMARK  status: ('A' for Active; 'I' for Inactive)
REMARK    1  A    between atoms: C1_1  and  N13_22 
REMARK    2  A    between atoms: C2_2  and  O11_20 
REMARK    3  A    between atoms: C10_10  and  N14_11 
REMARK    4  A    between atoms: N14_11  and  C15_12 
REMARK       I    between atoms: N13_22  and  C26_23 
REMARK    5  A    between atoms: C26_23  and  C24_24 
REMARK    6  A    between atoms: C24_24  and  C23_25 
REMARK    7  A    between atoms: C23_25  and  C25_26 
ROOT
HETATM    1  C1    D T9001       6.018   5.205   8.544  1.00 30.38     0.107 A 
HETATM    2  C2    D T9001       7.038   5.164   7.535  1.00 29.65     0.113 A 
HETATM    3  C3    D T9001       6.838   5.897   6.320  1.00 28.21     0.045 A 
HETATM    4  C4    D T9001       5.671   6.651   6.087  1.00 27.21     0.088 A 
HETATM    5  C5    D T9001       4.639   6.679   7.096  1.00 26.27     0.055 A 
HETATM    6  C6    D T9001       4.832   5.954   8.311  1.00 29.22     0.026 A 
HETATM    7  N7    D T9001       5.563   7.322   4.913  1.00 25.99    -0.224 NA
HETATM    8  C8    D T9001       4.434   8.032   4.718  1.00 24.59     0.200 A 
HETATM    9  N9    D T9001       3.397   8.130   5.578  1.00 25.70    -0.205 NA
HETATM   10  C10   D T9001       3.489   7.452   6.776  1.00 27.48     0.166 A 
ENDROOT
BRANCH  10  11
HETATM   11  N14   D T9001       2.406   7.530   7.709  1.00 23.22    -0.227 NA
BRANCH  11  12
HETATM   12  C15   D T9001       1.383   6.567   7.905  1.00 24.25     0.084 A 
HETATM   13  C16   D T9001       1.528   5.491   8.840  1.00 25.06     0.033 A 
HETATM   14  C17   D T9001       0.512   4.542   9.019  1.00 28.28     0.087 A 
HETATM   15  C18   D T9001      -0.685   4.638   8.270  1.00 25.55     0.151 A 
HETATM   16 CL     D T9001       0.764   3.274  10.158  1.00 31.70    -0.080 Cl
HETATM   17  C19   D T9001      -0.862   5.692   7.337  1.00 24.70     0.032 A 
HETATM   18  F21   D T9001      -1.668   3.739   8.424  1.00 27.22    -0.203 F 
HETATM   19  C20   D T9001       0.171   6.654   7.157  1.00 24.32     0.021 A 
ENDBRANCH  11  12
ENDBRANCH  10  11
BRANCH   1  20
HETATM   20  N13   D T9001       6.256   4.499   9.757  1.00 34.61    -0.210 NA
HETATM   21  C26   D T9001       5.686   3.237  10.003  1.00 36.24     0.256 C 
HETATM   22  O27   D T9001       4.949   2.615   9.237  1.00 39.97    -0.270 OA
BRANCH  21  23
HETATM   23  C24   D T9001       6.050   2.706  11.379  1.00 35.38     0.092 C 
BRANCH  23  24
HETATM   24  C23   D T9001       5.345   3.480  12.507  1.00 34.93     0.051 C 
BRANCH  24  25
HETATM   25  C25   D T9001       6.337   3.715  13.653  1.00 37.23     0.339 C 
HETATM   26  N33   D T9001       7.143   4.968  13.417  1.00 41.10     0.618 N 
ENDBRANCH  24  25
ENDBRANCH  23  24
ENDBRANCH  21  23
ENDBRANCH   1  20
BRANCH   2  27
HETATM   27  O11   D T9001       8.155   4.395   7.850  1.00 31.09    -0.327 OA
HETATM   28  C12   D T9001       9.454   4.990   7.858  1.00 29.66     0.181 C 
ENDBRANCH   2  27
TORSDOF 7
ENDMDL
MODEL 2
REMARK VINA RESULT:    -7.444      2.483      5.429
REMARK INTER + INTRA:         -11.469
REMARK INTER:                 -10.324
REMARK INTRA:                  -1.145
REMARK UNBOUND:                -0.979
REMARK  7 active torsions:
REMARK  status: ('A' for Active; 'I' for Inactive)
REMARK    1  A    between atoms: C1_1  and  N13_22 
REMARK    2  A    between atoms: C2_2  and  O11_20 
REMARK    3  A    between atoms: C10_10  and  N14_11 
REMARK    4  A    between atoms: N14_11  and  C15_12 
REMARK       I    between atoms: N13_22  and  C26_23 
REMARK    5  A    between atoms: C26_23  and  C24_24 
REMARK    6  A    between atoms: C24_24  and  C23_25 
REMARK    7  A    between atoms: C23_25  and  C25_26 
ROOT
HETATM    1  C1    D T9001       5.897   5.920   7.228  1.00 30.38     0.107 A 
HETATM    2  C2    D T9001       6.763   4.935   7.812  1.00 29.65     0.113 A 
HETATM    3  C3    D T9001       6.272   4.142   8.899  1.00 28.21     0.045 A 
HETATM    4  C4    D T9001       4.969   4.303   9.412  1.00 27.21     0.088 A 
HETATM    5  C5    D T9001       4.106   5.305   8.834  1.00 26.27     0.055 A 
HETATM    6  C6    D T9001       4.586   6.097   7.748  1.00 29.22     0.026 A 
HETATM    7  N7    D T9001       4.580   3.506  10.438  1.00 25.99    -0.224 NA
HETATM    8  C8    D T9001       3.329   3.686  10.909  1.00 24.59     0.200 A 
HETATM    9  N9    D T9001       2.432   4.591  10.461  1.00 25.70    -0.205 NA
HETATM   10  C10   D T9001       2.813   5.412   9.419  1.00 27.48     0.166 A 
ENDROOT
BRANCH  10  11
HETATM   11  N14   D T9001       1.889   6.385   8.922  1.00 23.22    -0.227 NA
BRANCH  11  12
HETATM   12  C15   D T9001       0.840   6.165   7.993  1.00 24.25     0.084 A 
HETATM   13  C16   D T9001       0.636   7.026   6.867  1.00 25.06     0.033 A 
HETATM   14  C17   D T9001      -0.410   6.801   5.960  1.00 28.28     0.087 A 
HETATM   15  C18   D T9001      -1.286   5.705   6.149  1.00 25.55     0.151 A 
HETATM   16 CL     D T9001      -0.595   7.884   4.633  1.00 31.70    -0.080 Cl
HETATM   17  C19   D T9001      -1.111   4.832   7.254  1.00 24.70     0.032 A 
HETATM   18  F21   D T9001      -2.294   5.474   5.296  1.00 27.22    -0.203 F 
HETATM   19  C20   D T9001      -0.049   5.063   8.172  1.00 24.32     0.021 A 
ENDBRANCH  11  12
ENDBRANCH  10  11
BRANCH   1  20
HETATM   20  N13   D T9001       6.395   6.671   6.125  1.00 34.61    -0.210 NA
HETATM   21  C26   D T9001       7.019   7.919   6.300  1.00 36.24     0.256 C 
HETATM   22  O27   D T9001       7.207   8.488   7.376  1.00 39.97    -0.270 OA
BRANCH  21  23
HETATM   23  C24   D T9001       7.425   8.544   4.976  1.00 35.38     0.092 C 
BRANCH  23  24
HETATM   24  C23   D T9001       6.670   7.926   3.786  1.00 34.93     0.051 C 
BRANCH  24  25
HETATM   25  C25   D T9001       5.607   8.917   3.297  1.00 37.23     0.339 C 
HETATM   26  N33   D T9001       4.276   8.231   3.114  1.00 41.10     0.618 N 
ENDBRANCH  24  25
ENDBRANCH  23  24
ENDBRANCH  21  23
ENDBRANCH   1  20
BRANCH   2  27
HETATM   27  O11   D T9001       8.030   4.846   7.243  1.00 31.09    -0.327 OA
HETATM   28  C12   D T9001       9.186   5.172   8.017  1.00 29.66     0.181 C 
ENDBRANCH   2  27
TORSDOF 7
ENDMDL
MODEL 3
REMARK VINA RESULT:    -7.429      4.100      8.406
REMARK INTER + INTRA:         -11.448
REMARK INTER:                 -10.684
REMARK INTRA:                  -0.764
REMARK UNBOUND:                -0.979
REMARK  7 active torsions:
REMARK  status: ('A' for Active; 'I' for Inactive)
REMARK    1  A    between atoms: C1_1  and  N13_22 
REMARK    2  A    between atoms: C2_2  and  O11_20 
REMARK    3  A    between atoms: C10_10  and  N14_11 
REMARK    4  A    between atoms: N14_11  and  C15_12 
REMARK       I    between atoms: N13_22  and  C26_23 
REMARK    5  A    between atoms: C26_23  and  C24_24 
REMARK    6  A    between atoms: C24_24  and  C23_25 
REMARK    7  A    between atoms: C23_25  and  C25_26 
ROOT
HETATM    1  C1    D T9001       0.645   7.831   5.860  1.00 30.38     0.107 A 
HETATM    2  C2    D T9001      -0.600   7.206   5.511  1.00 29.65     0.113 A 
HETATM    3  C3    D T9001      -1.038   6.070   6.266  1.00 28.21     0.045 A 
HETATM    4  C4    D T9001      -0.283   5.549   7.336  1.00 27.21     0.088 A 
HETATM    5  C5    D T9001       0.975   6.169   7.676  1.00 26.27     0.055 A 
HETATM    6  C6    D T9001       1.418   7.304   6.930  1.00 29.22     0.026 A 
HETATM    7  N7    D T9001      -0.774   4.476   8.005  1.00 25.99    -0.224 NA
HETATM    8  C8    D T9001      -0.027   3.999   9.023  1.00 24.59     0.200 A 
HETATM    9  N9    D T9001       1.165   4.484   9.430  1.00 25.70    -0.205 NA
HETATM   10  C10   D T9001       1.680   5.574   8.759  1.00 27.48     0.166 A 
ENDROOT
BRANCH  10  11
HETATM   11  N14   D T9001       2.944   6.111   9.162  1.00 23.22    -0.227 NA
BRANCH  11  12
HETATM   12  C15   D T9001       4.221   5.733   8.674  1.00 24.25     0.084 A 
HETATM   13  C16   D T9001       4.898   6.492   7.665  1.00 25.06     0.033 A 
HETATM   14  C17   D T9001       6.158   6.104   7.186  1.00 28.28     0.087 A 
HETATM   15  C18   D T9001       6.783   4.944   7.702  1.00 25.55     0.151 A 
HETATM   16 CL     D T9001       6.905   7.065   5.968  1.00 31.70    -0.080 Cl
HETATM   17  C19   D T9001       6.141   4.170   8.704  1.00 24.70     0.032 A 
HETATM   18  F21   D T9001       7.986   4.554   7.256  1.00 27.22    -0.203 F 
HETATM   19  C20   D T9001       4.863   4.567   9.187  1.00 24.32     0.021 A 
ENDBRANCH  11  12
ENDBRANCH  10  11
BRANCH   1  20
HETATM   20  N13   D T9001       1.041   8.980   5.118  1.00 34.61    -0.210 NA
HETATM   21  C26   D T9001       2.335   9.104   4.581  1.00 36.24     0.256 C 
HETATM   22  O27   D T9001       3.240   8.274   4.676  1.00 39.97    -0.270 OA
BRANCH  21  23
HETATM   23  C24   D T9001       2.532  10.432   3.870  1.00 35.38     0.092 C 
BRANCH  23  24
HETATM   24  C23   D T9001       3.076  10.253   2.442  1.00 34.93     0.051 C 
BRANCH  24  25
HETATM   25  C25   D T9001       2.564  11.398   1.561  1.00 37.23     0.339 C 
HETATM   26  N33   D T9001       2.411  10.948   0.129  1.00 41.10     0.618 N 
ENDBRANCH  24  25
ENDBRANCH  23  24
ENDBRANCH  21  23
ENDBRANCH   1  20
BRANCH   2  27
HETATM   27  O11   D T9001      -1.276   7.786   4.442  1.00 31.09    -0.327 OA
HETATM   28  C12   D T9001      -2.653   7.477   4.214  1.00 29.66     0.181 C 
ENDBRANCH   2  27
TORSDOF 7
ENDMDL
MODEL 4
REMARK VINA RESULT:    -7.369      4.675      8.481
REMARK INTER + INTRA:         -11.363
REMARK INTER:                 -10.342
REMARK INTRA:                  -1.021
REMARK UNBOUND:                -0.979
REMARK  7 active torsions:
REMARK  status: ('A' for Active; 'I' for Inactive)
REMARK    1  A    between atoms: C1_1  and  N13_22 
REMARK    2  A    between atoms: C2_2  and  O11_20 
REMARK    3  A    between atoms: C10_10  and  N14_11 
REMARK    4  A    between atoms: N14_11  and  C15_12 
REMARK       I    between atoms: N13_22  and  C26_23 
REMARK    5  A    between atoms: C26_23  and  C24_24 
REMARK    6  A    between atoms: C24_24  and  C23_25 
REMARK    7  A    between atoms: C23_25  and  C25_26 
ROOT
HETATM    1  C1    D T9001       3.640   9.673   2.389  1.00 30.38     0.107 A 
HETATM    2  C2    D T9001       5.022   9.341   2.181  1.00 29.65     0.113 A 
HETATM    3  C3    D T9001       5.728   8.650   3.218  1.00 28.21     0.045 A 
HETATM    4  C4    D T9001       5.109   8.291   4.432  1.00 27.21     0.088 A 
HETATM    5  C5    D T9001       3.726   8.640   4.645  1.00 26.27     0.055 A 
HETATM    6  C6    D T9001       3.013   9.326   3.615  1.00 29.22     0.026 A 
HETATM    7  N7    D T9001       5.848   7.631   5.359  1.00 25.99    -0.224 NA
HETATM    8  C8    D T9001       5.229   7.304   6.512  1.00 24.59     0.200 A 
HETATM    9  N9    D T9001       3.947   7.580   6.832  1.00 25.70    -0.205 NA
HETATM   10  C10   D T9001       3.182   8.253   5.902  1.00 27.48     0.166 A 
ENDROOT
BRANCH  10  11
HETATM   11  N14   D T9001       1.820   8.566   6.211  1.00 23.22    -0.227 NA
BRANCH  11  12
HETATM   12  C15   D T9001       0.685   7.748   5.973  1.00 24.25     0.084 A 
HETATM   13  C16   D T9001       0.352   6.652   6.833  1.00 25.06     0.033 A 
HETATM   14  C17   D T9001      -0.769   5.846   6.583  1.00 28.28     0.087 A 
HETATM   15  C18   D T9001      -1.595   6.113   5.465  1.00 25.55     0.151 A 
HETATM   16 CL     D T9001      -1.100   4.543   7.659  1.00 31.70    -0.080 Cl
HETATM   17  C19   D T9001      -1.294   7.192   4.594  1.00 24.70     0.032 A 
HETATM   18  F21   D T9001      -2.669   5.353   5.206  1.00 27.22    -0.203 F 
HETATM   19  C20   D T9001      -0.156   8.007   4.850  1.00 24.32     0.021 A 
ENDBRANCH  11  12
ENDBRANCH  10  11
BRANCH   1  20
HETATM   20  N13   D T9001       2.949  10.328   1.330  1.00 34.61    -0.210 NA
HETATM   21  C26   D T9001       2.597  11.687   1.404  1.00 36.24     0.256 C 
HETATM   22  O27   D T9001       2.833  12.444   2.346  1.00 39.97    -0.270 OA
BRANCH  21  23
HETATM   23  C24   D T9001       1.831  12.146   0.175  1.00 35.38     0.092 C 
BRANCH  23  24
HETATM   24  C23   D T9001       1.661  11.018  -0.859  1.00 34.93     0.051 C 
BRANCH  24  25
HETATM   25  C25   D T9001       0.557  11.406  -1.850  1.00 37.23     0.339 C 
HETATM   26  N33   D T9001      -0.038  10.180  -2.497  1.00 41.10     0.618 N 
ENDBRANCH  24  25
ENDBRANCH  23  24
ENDBRANCH  21  23
ENDBRANCH   1  20
BRANCH   2  27
HETATM   27  O11   D T9001       5.549   9.734   0.955  1.00 31.09    -0.327 OA
HETATM   28  C12   D T9001       6.384  10.892   0.873  1.00 29.66     0.181 C 
ENDBRANCH   2  27
TORSDOF 7
ENDMDL
MODEL 5
REMARK VINA RESULT:    -7.265      3.896      5.986
REMARK INTER + INTRA:         -11.217
REMARK INTER:                 -10.269
REMARK INTRA:                  -0.948
REMARK UNBOUND:                -0.979
REMARK  7 active torsions:
REMARK  status: ('A' for Active; 'I' for Inactive)
REMARK    1  A    between atoms: C1_1  and  N13_22 
REMARK    2  A    between atoms: C2_2  and  O11_20 
REMARK    3  A    between atoms: C10_10  and  N14_11 
REMARK    4  A    between atoms: N14_11  and  C15_12 
REMARK       I    between atoms: N13_22  and  C26_23 
REMARK    5  A    between atoms: C26_23  and  C24_24 
REMARK    6  A    between atoms: C24_24  and  C23_25 
REMARK    7  A    between atoms: C23_25  and  C25_26 
ROOT
HETATM    1  C1    D T9001       2.441   5.720   9.339  1.00 30.38     0.107 A 
HETATM    2  C2    D T9001       1.200   5.010   9.469  1.00 29.65     0.113 A 
HETATM    3  C3    D T9001       0.138   5.303   8.553  1.00 28.21     0.045 A 
HETATM    4  C4    D T9001       0.275   6.268   7.535  1.00 27.21     0.088 A 
HETATM    5  C5    D T9001       1.518   6.992   7.416  1.00 26.27     0.055 A 
HETATM    6  C6    D T9001       2.583   6.703   8.323  1.00 29.22     0.026 A 
HETATM    7  N7    D T9001      -0.777   6.480   6.706  1.00 25.99    -0.224 NA
HETATM    8  C8    D T9001      -0.616   7.412   5.743  1.00 24.59     0.200 A 
HETATM    9  N9    D T9001       0.490   8.158   5.535  1.00 25.70    -0.205 NA
HETATM   10  C10   D T9001       1.569   7.957   6.372  1.00 27.48     0.166 A 
ENDROOT
BRANCH  10  11
HETATM   11  N14   D T9001       2.755   8.734   6.183  1.00 23.22    -0.227 NA
BRANCH  11  12
HETATM   12  C15   D T9001       3.382   9.041   4.947  1.00 24.25     0.084 A 
HETATM   13  C16   D T9001       3.146  10.280   4.268  1.00 25.06     0.033 A 
HETATM   14  C17   D T9001       3.767  10.568   3.044  1.00 28.28     0.087 A 
HETATM   15  C18   D T9001       4.646   9.625   2.459  1.00 25.55     0.151 A 
HETATM   16 CL     D T9001       3.428  12.077   2.286  1.00 31.70    -0.080 Cl
HETATM   17  C19   D T9001       4.903   8.388   3.106  1.00 24.70     0.032 A 
HETATM   18  F21   D T9001       5.247   9.878   1.287  1.00 27.22    -0.203 F 
HETATM   19  C20   D T9001       4.271   8.100   4.348  1.00 24.32     0.021 A 
ENDBRANCH  11  12
ENDBRANCH  10  11
BRANCH   1  20
HETATM   20  N13   D T9001       3.494   5.385  10.237  1.00 34.61    -0.210 NA
HETATM   21  C26   D T9001       4.500   4.466   9.889  1.00 36.24     0.256 C 
HETATM   22  O27   D T9001       4.594   3.869   8.815  1.00 39.97    -0.270 OA
BRANCH  21  23
HETATM   23  C24   D T9001       5.484   4.240  11.024  1.00 35.38     0.092 C 
BRANCH  23  24
HETATM   24  C23   D T9001       4.861   3.445  12.185  1.00 34.93     0.051 C 
BRANCH  24  25
HETATM   25  C25   D T9001       5.954   2.615  12.870  1.00 37.23     0.339 C 
HETATM   26  N33   D T9001       7.124   2.398  11.943  1.00 41.10     0.618 N 
ENDBRANCH  24  25
ENDBRANCH  23  24
ENDBRANCH  21  23
ENDBRANCH   1  20
BRANCH   2  27
HETATM   27  O11   D T9001       1.155   4.077  10.501  1.00 31.09    -0.327 OA
HETATM   28  C12   D T9001       1.102   2.681  10.201  1.00 29.66     0.181 C 
ENDBRANCH   2  27
TORSDOF 7
ENDMDL
MODEL 6
REMARK VINA RESULT:    -7.203      3.371      5.512
REMARK INTER + INTRA:         -11.130
REMARK INTER:                 -10.057
REMARK INTRA:                  -1.073
REMARK UNBOUND:                -0.979
REMARK  7 active torsions:
REMARK  status: ('A' for Active; 'I' for Inactive)
REMARK    1  A    between atoms: C1_1  and  N13_22 
REMARK    2  A    between atoms: C2_2  and  O11_20 
REMARK    3  A    between atoms: C10_10  and  N14_11 
REMARK    4  A    between atoms: N14_11  and  C15_12 
REMARK       I    between atoms: N13_22  and  C26_23 
REMARK    5  A    between atoms: C26_23  and  C24_24 
REMARK    6  A    between atoms: C24_24  and  C23_25 
REMARK    7  A    between atoms: C23_25  and  C25_26 
ROOT
HETATM    1  C1    D T9001       2.443   5.755   9.371  1.00 30.38     0.107 A 
HETATM    2  C2    D T9001       1.228   4.995   9.449  1.00 29.65     0.113 A 
HETATM    3  C3    D T9001       0.174   5.282   8.522  1.00 28.21     0.045 A 
HETATM    4  C4    D T9001       0.294   6.288   7.542  1.00 27.21     0.088 A 
HETATM    5  C5    D T9001       1.511   7.061   7.475  1.00 26.27     0.055 A 
HETATM    6  C6    D T9001       2.568   6.779   8.393  1.00 29.22     0.026 A 
HETATM    7  N7    D T9001      -0.748   6.490   6.698  1.00 25.99    -0.224 NA
HETATM    8  C8    D T9001      -0.604   7.461   5.773  1.00 24.59     0.200 A 
HETATM    9  N9    D T9001       0.477   8.255   5.615  1.00 25.70    -0.205 NA
HETATM   10  C10   D T9001       1.546   8.064   6.467  1.00 27.48     0.166 A 
ENDROOT
BRANCH  10  11
HETATM   11  N14   D T9001       2.705   8.892   6.331  1.00 23.22    -0.227 NA
BRANCH  11  12
HETATM   12  C15   D T9001       3.888   8.585   5.610  1.00 24.25     0.084 A 
HETATM   13  C16   D T9001       5.112   8.252   6.275  1.00 25.06     0.033 A 
HETATM   14  C17   D T9001       6.277   7.958   5.550  1.00 28.28     0.087 A 
HETATM   15  C18   D T9001       6.253   7.986   4.135  1.00 25.55     0.151 A 
HETATM   16 CL     D T9001       7.711   7.572   6.422  1.00 31.70    -0.080 Cl
HETATM   17  C19   D T9001       5.057   8.310   3.445  1.00 24.70     0.032 A 
HETATM   18  F21   D T9001       7.356   7.710   3.423  1.00 27.22    -0.203 F 
HETATM   19  C20   D T9001       3.878   8.608   4.183  1.00 24.32     0.021 A 
ENDBRANCH  11  12
ENDBRANCH  10  11
BRANCH   1  20
HETATM   20  N13   D T9001       3.490   5.427  10.278  1.00 34.61    -0.210 NA
HETATM   21  C26   D T9001       4.492   4.497   9.948  1.00 36.24     0.256 C 
HETATM   22  O27   D T9001       4.588   3.885   8.884  1.00 39.97    -0.270 OA
BRANCH  21  23
HETATM   23  C24   D T9001       5.470   4.283  11.091  1.00 35.38     0.092 C 
BRANCH  23  24
HETATM   24  C23   D T9001       4.834   3.513  12.263  1.00 34.93     0.051 C 
BRANCH  24  25
HETATM   25  C25   D T9001       5.847   3.419  13.410  1.00 37.23     0.339 C 
HETATM   26  N33   D T9001       6.826   4.565  13.358  1.00 41.10     0.618 N 
ENDBRANCH  24  25
ENDBRANCH  23  24
ENDBRANCH  21  23
ENDBRANCH   1  20
BRANCH   2  27
HETATM   27  O11   D T9001       1.197   4.024  10.446  1.00 31.09    -0.327 OA
HETATM   28  C12   D T9001       1.101   2.642  10.095  1.00 29.66     0.181 C 
ENDBRANCH   2  27
TORSDOF 7
ENDMDL
MODEL 7
REMARK VINA RESULT:    -6.982      3.819      7.744
REMARK INTER + INTRA:         -10.818
REMARK INTER:                 -10.165
REMARK INTRA:                  -0.653
REMARK UNBOUND:                -0.979
REMARK  7 active torsions:
REMARK  status: ('A' for Active; 'I' for Inactive)
REMARK    1  A    between atoms: C1_1  and  N13_22 
REMARK    2  A    between atoms: C2_2  and  O11_20 
REMARK    3  A    between atoms: C10_10  and  N14_11 
REMARK    4  A    between atoms: N14_11  and  C15_12 
REMARK       I    between atoms: N13_22  and  C26_23 
REMARK    5  A    between atoms: C26_23  and  C24_24 
REMARK    6  A    between atoms: C24_24  and  C23_25 
REMARK    7  A    between atoms: C23_25  and  C25_26 
ROOT
HETATM    1  C1    D T9001       2.066   5.959   7.832  1.00 30.38     0.107 A 
HETATM    2  C2    D T9001       1.227   5.513   8.908  1.00 29.65     0.113 A 
HETATM    3  C3    D T9001       1.825   4.811  10.005  1.00 28.21     0.045 A 
HETATM    4  C4    D T9001       3.208   4.544  10.055  1.00 27.21     0.088 A 
HETATM    5  C5    D T9001       4.047   4.979   8.965  1.00 26.27     0.055 A 
HETATM    6  C6    D T9001       3.460   5.682   7.870  1.00 29.22     0.026 A 
HETATM    7  N7    D T9001       3.695   3.881  11.133  1.00 25.99    -0.224 NA
HETATM    8  C8    D T9001       5.021   3.637  11.151  1.00 24.59     0.200 A 
HETATM    9  N9    D T9001       5.907   3.985  10.192  1.00 25.70    -0.205 NA
HETATM   10  C10   D T9001       5.428   4.658   9.087  1.00 27.48     0.166 A 
ENDROOT
BRANCH  10  11
HETATM   11  N14   D T9001       6.338   5.037   8.050  1.00 23.22    -0.227 NA
BRANCH  11  12
HETATM   12  C15   D T9001       6.491   6.329   7.485  1.00 24.25     0.084 A 
HETATM   13  C16   D T9001       6.386   6.553   6.074  1.00 25.06     0.033 A 
HETATM   14  C17   D T9001       6.547   7.835   5.527  1.00 28.28     0.087 A 
HETATM   15  C18   D T9001       6.818   8.935   6.374  1.00 25.55     0.151 A 
HETATM   16 CL     D T9001       6.412   8.022   3.820  1.00 31.70    -0.080 Cl
HETATM   17  C19   D T9001       6.927   8.749   7.777  1.00 24.70     0.032 A 
HETATM   18  F21   D T9001       6.978  10.168   5.872  1.00 27.22    -0.203 F 
HETATM   19  C20   D T9001       6.763   7.448   8.328  1.00 24.32     0.021 A 
ENDBRANCH  11  12
ENDBRANCH  10  11
BRANCH   1  20
HETATM   20  N13   D T9001       1.454   6.686   6.772  1.00 34.61    -0.210 NA
HETATM   21  C26   D T9001       1.903   7.964   6.395  1.00 36.24     0.256 C 
HETATM   22  O27   D T9001       2.838   8.582   6.906  1.00 39.97    -0.270 OA
BRANCH  21  23
HETATM   23  C24   D T9001       1.068   8.553   5.271  1.00 35.38     0.092 C 
BRANCH  23  24
HETATM   24  C23   D T9001      -0.442   8.389   5.521  1.00 34.93     0.051 C 
BRANCH  24  25
HETATM   25  C25   D T9001      -1.038   7.490   4.432  1.00 37.23     0.339 C 
HETATM   26  N33   D T9001      -1.881   6.397   5.039  1.00 41.10     0.618 N 
ENDBRANCH  24  25
ENDBRANCH  23  24
ENDBRANCH  21  23
ENDBRANCH   1  20
BRANCH   2  27
HETATM   27  O11   D T9001      -0.124   5.819   8.775  1.00 31.09    -0.327 OA
HETATM   28  C12   D T9001      -1.045   4.818   8.336  1.00 29.66     0.181 C 
ENDBRANCH   2  27
TORSDOF 7
ENDMDL
MODEL 8
REMARK VINA RESULT:    -6.677      4.046      8.215
REMARK INTER + INTRA:         -10.389
REMARK INTER:                  -9.471
REMARK INTRA:                  -0.917
REMARK UNBOUND:                -0.979
REMARK  7 active torsions:
REMARK  status: ('A' for Active; 'I' for Inactive)
REMARK    1  A    between atoms: C1_1  and  N13_22 
REMARK    2  A    between atoms: C2_2  and  O11_20 
REMARK    3  A    between atoms: C10_10  and  N14_11 
REMARK    4  A    between atoms: N14_11  and  C15_12 
REMARK       I    between atoms: N13_22  and  C26_23 
REMARK    5  A    between atoms: C26_23  and  C24_24 
REMARK    6  A    between atoms: C24_24  and  C23_25 
REMARK    7  A    between atoms: C23_25  and  C25_26 
ROOT
HETATM    1  C1    D T9001       2.371   5.912   7.829  1.00 30.38     0.107 A 
HETATM    2  C2    D T9001       1.474   5.599   8.906  1.00 29.65     0.113 A 
HETATM    3  C3    D T9001       1.982   4.889  10.042  1.00 28.21     0.045 A 
HETATM    4  C4    D T9001       3.330   4.488  10.131  1.00 27.21     0.088 A 
HETATM    5  C5    D T9001       4.226   4.790   9.041  1.00 26.27     0.055 A 
HETATM    6  C6    D T9001       3.729   5.500   7.906  1.00 29.22     0.026 A 
HETATM    7  N7    D T9001       3.731   3.827  11.245  1.00 25.99    -0.224 NA
HETATM    8  C8    D T9001       5.026   3.453  11.300  1.00 24.59     0.200 A 
HETATM    9  N9    D T9001       5.957   3.669  10.345  1.00 25.70    -0.205 NA
HETATM   10  C10   D T9001       5.565   4.339   9.204  1.00 27.48     0.166 A 
ENDROOT
BRANCH  10  11
HETATM   11  N14   D T9001       6.525   4.580   8.170  1.00 23.22    -0.227 NA
BRANCH  11  12
HETATM   12  C15   D T9001       7.624   5.475   8.224  1.00 24.25     0.084 A 
HETATM   13  C16   D T9001       7.460   6.852   8.582  1.00 25.06     0.033 A 
HETATM   14  C17   D T9001       8.555   7.728   8.624  1.00 28.28     0.087 A 
HETATM   15  C18   D T9001       9.851   7.254   8.310  1.00 25.55     0.151 A 
HETATM   16 CL     D T9001       8.275   9.372   9.057  1.00 31.70    -0.080 Cl
HETATM   17  C19   D T9001      10.049   5.895   7.954  1.00 24.70     0.032 A 
HETATM   18  F21   D T9001      10.911   8.075   8.342  1.00 27.22    -0.203 F 
HETATM   19  C20   D T9001       8.936   5.009   7.911  1.00 24.32     0.021 A 
ENDBRANCH  11  12
ENDBRANCH  10  11
BRANCH   1  20
HETATM   20  N13   D T9001       1.852   6.650   6.728  1.00 34.61    -0.210 NA
HETATM   21  C26   D T9001       2.167   8.006   6.531  1.00 36.24     0.256 C 
HETATM   22  O27   D T9001       2.897   8.690   7.248  1.00 39.97    -0.270 OA
BRANCH  21  23
HETATM   23  C24   D T9001       1.461   8.585   5.316  1.00 35.38     0.092 C 
BRANCH  23  24
HETATM   24  C23   D T9001      -0.070   8.564   5.468  1.00 34.93     0.051 C 
BRANCH  24  25
HETATM   25  C25   D T9001      -0.653   7.488   4.544  1.00 37.23     0.339 C 
HETATM   26  N33   D T9001      -2.154   7.419   4.679  1.00 41.10     0.618 N 
ENDBRANCH  24  25
ENDBRANCH  23  24
ENDBRANCH  21  23
ENDBRANCH   1  20
BRANCH   2  27
HETATM   27  O11   D T9001       0.163   6.033   8.733  1.00 31.09    -0.327 OA
HETATM   28  C12   D T9001      -0.856   5.101   8.364  1.00 29.66     0.181 C 
ENDBRANCH   2  27
TORSDOF 7
ENDMDL
MODEL 9
REMARK VINA RESULT:    -6.581      3.593      7.410
REMARK INTER + INTRA:         -10.254
REMARK INTER:                  -9.196
REMARK INTRA:                  -1.058
REMARK UNBOUND:                -0.979
REMARK  7 active torsions:
REMARK  status: ('A' for Active; 'I' for Inactive)
REMARK    1  A    between atoms: C1_1  and  N13_22 
REMARK    2  A    between atoms: C2_2  and  O11_20 
REMARK    3  A    between atoms: C10_10  and  N14_11 
REMARK    4  A    between atoms: N14_11  and  C15_12 
REMARK       I    between atoms: N13_22  and  C26_23 
REMARK    5  A    between atoms: C26_23  and  C24_24 
REMARK    6  A    between atoms: C24_24  and  C23_25 
REMARK    7  A    between atoms: C23_25  and  C25_26 
ROOT
HETATM    1  C1    D T9001       3.993   6.753   7.486  1.00 30.38     0.107 A 
HETATM    2  C2    D T9001       2.628   7.159   7.304  1.00 29.65     0.113 A 
HETATM    3  C3    D T9001       1.598   6.444   7.998  1.00 28.21     0.045 A 
HETATM    4  C4    D T9001       1.885   5.357   8.847  1.00 27.21     0.088 A 
HETATM    5  C5    D T9001       3.257   4.941   9.016  1.00 26.27     0.055 A 
HETATM    6  C6    D T9001       4.290   5.650   8.331  1.00 29.22     0.026 A 
HETATM    7  N7    D T9001       0.852   4.740   9.473  1.00 25.99    -0.224 NA
HETATM    8  C8    D T9001       1.158   3.701  10.276  1.00 24.59     0.200 A 
HETATM    9  N9    D T9001       2.396   3.213  10.509  1.00 25.70    -0.205 NA
HETATM   10  C10   D T9001       3.459   3.828   9.879  1.00 27.48     0.166 A 
ENDROOT
BRANCH  10  11
HETATM   11  N14   D T9001       4.783   3.334  10.099  1.00 23.22    -0.227 NA
BRANCH  11  12
HETATM   12  C15   D T9001       5.646   3.666  11.175  1.00 24.25     0.084 A 
HETATM   13  C16   D T9001       6.939   4.242  10.955  1.00 25.06     0.033 A 
HETATM   14  C17   D T9001       7.786   4.559  12.027  1.00 28.28     0.087 A 
HETATM   15  C18   D T9001       7.365   4.312  13.356  1.00 25.55     0.151 A 
HETATM   16 CL     D T9001       9.329   5.243  11.682  1.00 31.70    -0.080 Cl
HETATM   17  C19   D T9001       6.090   3.744  13.609  1.00 24.70     0.032 A 
HETATM   18  F21   D T9001       8.160   4.605  14.396  1.00 27.22    -0.203 F 
HETATM   19  C20   D T9001       5.234   3.423  12.519  1.00 24.32     0.021 A 
ENDBRANCH  11  12
ENDBRANCH  10  11
BRANCH   1  20
HETATM   20  N13   D T9001       5.002   7.501   6.815  1.00 34.61    -0.210 NA
HETATM   21  C26   D T9001       5.735   6.961   5.744  1.00 36.24     0.256 C 
HETATM   22  O27   D T9001       5.601   5.830   5.273  1.00 39.97    -0.270 OA
BRANCH  21  23
HETATM   23  C24   D T9001       6.781   7.931   5.221  1.00 35.38     0.092 C 
BRANCH  23  24
HETATM   24  C23   D T9001       6.149   9.118   4.472  1.00 34.93     0.051 C 
BRANCH  24  25
HETATM   25  C25   D T9001       5.563   8.621   3.145  1.00 37.23     0.339 C 
HETATM   26  N33   D T9001       4.056   8.692   3.164  1.00 41.10     0.618 N 
ENDBRANCH  24  25
ENDBRANCH  23  24
ENDBRANCH  21  23
ENDBRANCH   1  20
BRANCH   2  27
HETATM   27  O11   D T9001       2.438   8.240   6.449  1.00 31.09    -0.327 OA
HETATM   28  C12   D T9001       1.189   8.407   5.774  1.00 29.66     0.181 C 
ENDBRANCH   2  27
TORSDOF 7
ENDMDL
