MODEL 1
REMARK VINA RESULT:    -7.611      0.000      0.000
REMARK INTER + INTRA:         -11.666
REMARK INTER:                 -10.725
REMARK INTRA:                  -0.941
REMARK UNBOUND:                -0.941
REMARK  7 active torsions:
REMARK  status: ('A' for Active; 'I' for Inactive)
REMARK    1  A    between atoms: C1_1  and  N13_22 
REMARK    2  A    between atoms: C2_2  and  O11_20 
REMARK    3  A    between atoms: C10_10  and  N14_11 
REMARK    4  A    between atoms: N14_11  and  C15_12 
REMARK       I    between atoms: N13_22  and  C26_23 
REMARK    5  A    between atoms: C26_23  and  C24_24 
REMARK    6  A    between atoms: C24_24  and  C23_25 
REMARK    7  A    between atoms: C23_25  and  C25_26 
ROOT
HETATM    1  C1    D T9001       3.942  11.355   1.618  1.00 30.38     0.107 A 
HETATM    2  C2    D T9001       2.624  10.888   1.286  1.00 29.65     0.113 A 
HETATM    3  C3    D T9001       2.179   9.637   1.821  1.00 28.21     0.045 A 
HETATM    4  C4    D T9001       2.996   8.850   2.657  1.00 27.21     0.088 A 
HETATM    5  C5    D T9001       4.325   9.312   2.978  1.00 26.27     0.055 A 
HETATM    6  C6    D T9001       4.776  10.560   2.451  1.00 29.22     0.026 A 
HETATM    7  N7    D T9001       2.494   7.682   3.129  1.00 25.99    -0.224 NA
HETATM    8  C8    D T9001       3.300   6.949   3.925  1.00 24.59     0.200 A 
HETATM    9  N9    D T9001       4.561   7.267   4.289  1.00 25.70    -0.205 NA
HETATM   10  C10   D T9001       5.088   8.453   3.818  1.00 27.48     0.166 A 
ENDROOT
BRANCH  10  11
HETATM   11  N14   D T9001       6.422   8.818   4.180  1.00 23.22    -0.227 NA
BRANCH  11  12
HETATM   12  C15   D T9001       7.620   8.392   3.551  1.00 24.25     0.084 A 
HETATM   13  C16   D T9001       8.401   7.308   4.068  1.00 25.06     0.033 A 
HETATM   14  C17   D T9001       9.588   6.902   3.440  1.00 28.28     0.087 A 
HETATM   15  C18   D T9001      10.033   7.569   2.273  1.00 25.55     0.151 A 
HETATM   16 CL     D T9001      10.473   5.595   4.126  1.00 31.70    -0.080 Cl
HETATM   17  C19   D T9001       9.283   8.646   1.734  1.00 24.70     0.032 A 
HETATM   18  F21   D T9001      11.166   7.198   1.659  1.00 27.22    -0.203 F 
HETATM   19  C20   D T9001       8.079   9.055   2.373  1.00 24.32     0.021 A 
ENDBRANCH  11  12
ENDBRANCH  10  11
BRANCH   1  20
HETATM   20  N13   D T9001       4.348  12.617   1.104  1.00 34.61    -0.210 NA
HETATM   21  C26   D T9001       5.471  12.750   0.268  1.00 36.24     0.256 C 
HETATM   22  O27   D T9001       6.205  11.834  -0.107  1.00 39.97    -0.270 OA
BRANCH  21  23
HETATM   23  C24   D T9001       5.730  14.197  -0.115  1.00 35.38     0.092 C 
BRANCH  23  24
HETATM   24  C23   D T9001       5.455  14.463  -1.606  1.00 34.93     0.051 C 
BRANCH  24  25
HETATM   25  C25   D T9001       6.788  14.637  -2.341  1.00 37.23     0.339 C 
HETATM   26  N33   D T9001       7.152  13.385  -3.099  1.00 41.10     0.618 N 
ENDBRANCH  24  25
ENDBRANCH  23  24
ENDBRANCH  21  23
ENDBRANCH   1  20
BRANCH   2  27
HETATM   27  O11   D T9001       1.891  11.729   0.454  1.00 31.09    -0.327 OA
HETATM   28  C12   D T9001       0.464  11.762   0.549  1.00 29.66     0.181 C 
ENDBRANCH   2  27
TORSDOF 7
ENDMDL
MODEL 2
REMARK VINA RESULT:    -7.394      2.960      6.164
REMARK INTER + INTRA:         -11.360
REMARK INTER:                 -10.458
REMARK INTRA:                  -0.903
REMARK UNBOUND:                -0.941
REMARK  7 active torsions:
REMARK  status: ('A' for Active; 'I' for Inactive)
REMARK    1  A    between atoms: C1_1  and  N13_22 
REMARK    2  A    between atoms: C2_2  and  O11_20 
REMARK    3  A    between atoms: C10_10  and  N14_11 
REMARK    4  A    between atoms: N14_11  and  C15_12 
REMARK       I    between atoms: N13_22  and  C26_23 
REMARK    5  A    between atoms: C26_23  and  C24_24 
REMARK    6  A    between atoms: C24_24  and  C23_25 
REMARK    7  A    between atoms: C23_25  and  C25_26 
ROOT
HETATM    1  C1    D T9001       4.834  10.023   2.774  1.00 30.38     0.107 A 
HETATM    2  C2    D T9001       3.709   9.150   2.965  1.00 29.65     0.113 A 
HETATM    3  C3    D T9001       2.460   9.488   2.352  1.00 28.21     0.045 A 
HETATM    4  C4    D T9001       2.302  10.651   1.572  1.00 27.21     0.088 A 
HETATM    5  C5    D T9001       3.428  11.536   1.393  1.00 26.27     0.055 A 
HETATM    6  C6    D T9001       4.678  11.205   1.999  1.00 29.22     0.026 A 
HETATM    7  N7    D T9001       1.088  10.892   1.018  1.00 25.99    -0.224 NA
HETATM    8  C8    D T9001       0.965  12.014   0.280  1.00 24.59     0.200 A 
HETATM    9  N9    D T9001       1.938  12.922   0.048  1.00 25.70    -0.205 NA
HETATM   10  C10   D T9001       3.181  12.693   0.603  1.00 27.48     0.166 A 
ENDROOT
BRANCH  10  11
HETATM   11  N14   D T9001       4.232  13.637   0.380  1.00 23.22    -0.227 NA
BRANCH  11  12
HETATM   12  C15   D T9001       5.428  13.420  -0.349  1.00 24.25     0.084 A 
HETATM   13  C16   D T9001       6.719  13.631   0.236  1.00 25.06     0.033 A 
HETATM   14  C17   D T9001       7.894  13.420  -0.499  1.00 28.28     0.087 A 
HETATM   15  C18   D T9001       7.817  12.990  -1.846  1.00 25.55     0.151 A 
HETATM   16 CL     D T9001       9.407  13.702   0.273  1.00 31.70    -0.080 Cl
HETATM   17  C19   D T9001       6.556  12.770  -2.456  1.00 24.70     0.032 A 
HETATM   18  F21   D T9001       8.929  12.785  -2.567  1.00 27.22    -0.203 F 
HETATM   19  C20   D T9001       5.365  12.984  -1.707  1.00 24.32     0.021 A 
ENDBRANCH  11  12
ENDBRANCH  10  11
BRANCH   1  20
HETATM   20  N13   D T9001       6.073   9.648   3.363  1.00 34.61    -0.210 NA
HETATM   21  C26   D T9001       7.225   9.428   2.588  1.00 36.24     0.256 C 
HETATM   22  O27   D T9001       7.302   9.531   1.363  1.00 39.97    -0.270 OA
BRANCH  21  23
HETATM   23  C24   D T9001       8.410   8.995   3.435  1.00 35.38     0.092 C 
BRANCH  23  24
HETATM   24  C23   D T9001       8.318   7.517   3.855  1.00 34.93     0.051 C 
BRANCH  24  25
HETATM   25  C25   D T9001       8.885   6.639   2.735  1.00 37.23     0.339 C 
HETATM   26  N33   D T9001      10.077   7.299   2.086  1.00 41.10     0.618 N 
ENDBRANCH  24  25
ENDBRANCH  23  24
ENDBRANCH  21  23
ENDBRANCH   1  20
BRANCH   2  27
HETATM   27  O11   D T9001       3.958   8.027   3.749  1.00 31.09    -0.327 OA
HETATM   28  C12   D T9001       3.183   6.839   3.564  1.00 29.66     0.181 C 
ENDBRANCH   2  27
TORSDOF 7
ENDMDL
MODEL 3
REMARK VINA RESULT:    -7.325      3.805      6.979
REMARK INTER + INTRA:         -11.263
REMARK INTER:                 -10.329
REMARK INTRA:                  -0.934
REMARK UNBOUND:                -0.941
REMARK  7 active torsions:
REMARK  status: ('A' for Active; 'I' for Inactive)
REMARK    1  A    between atoms: C1_1  and  N13_22 
REMARK    2  A    between atoms: C2_2  and  O11_20 
REMARK    3  A    between atoms: C10_10  and  N14_11 
REMARK    4  A    between atoms: N14_11  and  C15_12 
REMARK       I    between atoms: N13_22  and  C26_23 
REMARK    5  A    between atoms: C26_23  and  C24_24 
REMARK    6  A    between atoms: C24_24  and  C23_25 
REMARK    7  A    between atoms: C23_25  and  C25_26 
ROOT
HETATM    1  C1    D T9001       4.943  10.090   2.788  1.00 30.38     0.107 A 
HETATM    2  C2    D T9001       3.796   9.248   2.983  1.00 29.65     0.113 A 
HETATM    3  C3    D T9001       2.563   9.603   2.348  1.00 28.21     0.045 A 
HETATM    4  C4    D T9001       2.441  10.754   1.543  1.00 27.21     0.088 A 
HETATM    5  C5    D T9001       3.590  11.608   1.361  1.00 26.27     0.055 A 
HETATM    6  C6    D T9001       4.825  11.260   1.988  1.00 29.22     0.026 A 
HETATM    7  N7    D T9001       1.240  11.013   0.970  1.00 25.99    -0.224 NA
HETATM    8  C8    D T9001       1.153  12.123   0.208  1.00 24.59     0.200 A 
HETATM    9  N9    D T9001       2.150  13.002  -0.030  1.00 25.70    -0.205 NA
HETATM   10  C10   D T9001       3.380  12.755   0.545  1.00 27.48     0.166 A 
ENDROOT
BRANCH  10  11
HETATM   11  N14   D T9001       4.456  13.669   0.317  1.00 23.22    -0.227 NA
BRANCH  11  12
HETATM   12  C15   D T9001       5.244  13.777  -0.857  1.00 24.25     0.084 A 
HETATM   13  C16   D T9001       5.134  14.899  -1.741  1.00 25.06     0.033 A 
HETATM   14  C17   D T9001       5.915  14.990  -2.902  1.00 28.28     0.087 A 
HETATM   15  C18   D T9001       6.834  13.959  -3.218  1.00 25.55     0.151 A 
HETATM   16 CL     D T9001       5.719  16.367  -3.917  1.00 31.70    -0.080 Cl
HETATM   17  C19   D T9001       6.969  12.835  -2.363  1.00 24.70     0.032 A 
HETATM   18  F21   D T9001       7.588  14.026  -4.324  1.00 27.22    -0.203 F 
HETATM   19  C20   D T9001       6.176  12.747  -1.185  1.00 24.32     0.021 A 
ENDBRANCH  11  12
ENDBRANCH  10  11
BRANCH   1  20
HETATM   20  N13   D T9001       6.166   9.698   3.400  1.00 34.61    -0.210 NA
HETATM   21  C26   D T9001       7.319   9.426   2.643  1.00 36.24     0.256 C 
HETATM   22  O27   D T9001       7.410   9.493   1.416  1.00 39.97    -0.270 OA
BRANCH  21  23
HETATM   23  C24   D T9001       8.483   8.984   3.514  1.00 35.38     0.092 C 
BRANCH  23  24
HETATM   24  C23   D T9001       8.379   7.503   3.919  1.00 34.93     0.051 C 
BRANCH  24  25
HETATM   25  C25   D T9001       8.917   6.631   2.780  1.00 37.23     0.339 C 
HETATM   26  N33   D T9001      10.114   7.277   2.127  1.00 41.10     0.618 N 
ENDBRANCH  24  25
ENDBRANCH  23  24
ENDBRANCH  21  23
ENDBRANCH   1  20
BRANCH   2  27
HETATM   27  O11   D T9001       4.008   8.136   3.792  1.00 31.09    -0.327 OA
HETATM   28  C12   D T9001       3.291   6.923   3.545  1.00 29.66     0.181 C 
ENDBRANCH   2  27
TORSDOF 7
ENDMDL
MODEL 4
REMARK VINA RESULT:    -6.884      1.730      2.164
REMARK INTER + INTRA:         -10.641
REMARK INTER:                  -9.783
REMARK INTRA:                  -0.858
REMARK UNBOUND:                -0.941
REMARK  7 active torsions:
REMARK  status: ('A' for Active; 'I' for Inactive)
REMARK    1  A    between atoms: C1_1  and  N13_22 
REMARK    2  A    between atoms: C2_2  and  O11_20 
REMARK    3  A    between atoms: C10_10  and  N14_11 
REMARK    4  A    between atoms: N14_11  and  C15_12 
REMARK       I    between atoms: N13_22  and  C26_23 
REMARK    5  A    between atoms: C26_23  and  C24_24 
REMARK    6  A    between atoms: C24_24  and  C23_25 
REMARK    7  A    between atoms: C23_25  and  C25_26 
ROOT
HETATM    1  C1    D T9001       5.422  12.826   0.624  1.00 30.38     0.107 A 
HETATM    2  C2    D T9001       4.025  12.720   0.310  1.00 29.65     0.113 A 
HETATM    3  C3    D T9001       3.239  11.731   0.983  1.00 28.21     0.045 A 
HETATM    4  C4    D T9001       3.795  10.858   1.940  1.00 27.21     0.088 A 
HETATM    5  C5    D T9001       5.203  10.956   2.244  1.00 26.27     0.055 A 
HETATM    6  C6    D T9001       5.994  11.941   1.579  1.00 29.22     0.026 A 
HETATM    7  N7    D T9001       2.979   9.957   2.539  1.00 25.99    -0.224 NA
HETATM    8  C8    D T9001       3.541   9.133   3.448  1.00 24.59     0.200 A 
HETATM    9  N9    D T9001       4.842   9.120   3.810  1.00 25.70    -0.205 NA
HETATM   10  C10   D T9001       5.688  10.031   3.211  1.00 27.48     0.166 A 
ENDROOT
BRANCH  10  11
HETATM   11  N14   D T9001       7.072  10.041   3.569  1.00 23.22    -0.227 NA
BRANCH  11  12
HETATM   12  C15   D T9001       7.971   8.946   3.515  1.00 24.25     0.084 A 
HETATM   13  C16   D T9001       8.217   8.112   4.655  1.00 25.06     0.033 A 
HETATM   14  C17   D T9001       9.114   7.037   4.589  1.00 28.28     0.087 A 
HETATM   15  C18   D T9001       9.797   6.759   3.380  1.00 25.55     0.151 A 
HETATM   16 CL     D T9001       9.360   6.086   6.004  1.00 31.70    -0.080 Cl
HETATM   17  C19   D T9001       9.576   7.563   2.233  1.00 24.70     0.032 A 
HETATM   18  F21   D T9001      10.661   5.737   3.298  1.00 27.22    -0.203 F 
HETATM   19  C20   D T9001       8.664   8.653   2.302  1.00 24.32     0.021 A 
ENDBRANCH  11  12
ENDBRANCH  10  11
BRANCH   1  20
HETATM   20  N13   D T9001       6.175  13.840  -0.032  1.00 34.61    -0.210 NA
HETATM   21  C26   D T9001       6.981  13.557  -1.149  1.00 36.24     0.256 C 
HETATM   22  O27   D T9001       7.126  12.453  -1.675  1.00 39.97    -0.270 OA
BRANCH  21  23
HETATM   23  C24   D T9001       7.719  14.789  -1.646  1.00 35.38     0.092 C 
BRANCH  23  24
HETATM   24  C23   D T9001       6.776  15.800  -2.323  1.00 34.93     0.051 C 
BRANCH  24  25
HETATM   25  C25   D T9001       5.998  15.093  -3.438  1.00 37.23     0.339 C 
HETATM   26  N33   D T9001       5.631  16.062  -4.535  1.00 41.10     0.618 N 
ENDBRANCH  24  25
ENDBRANCH  23  24
ENDBRANCH  21  23
ENDBRANCH   1  20
BRANCH   2  27
HETATM   27  O11   D T9001       3.563  13.620  -0.646  1.00 31.09    -0.327 OA
HETATM   28  C12   D T9001       2.944  14.843  -0.237  1.00 29.66     0.181 C 
ENDBRANCH   2  27
TORSDOF 7
ENDMDL
MODEL 5
REMARK VINA RESULT:    -6.787      3.515      5.549
REMARK INTER + INTRA:         -10.504
REMARK INTER:                 -10.114
REMARK INTRA:                  -0.390
REMARK UNBOUND:                -0.941
REMARK  7 active torsions:
REMARK  status: ('A' for Active; 'I' for Inactive)
REMARK    1  A    between atoms: C1_1  and  N13_22 
REMARK    2  A    between atoms: C2_2  and  O11_20 
REMARK    3  A    between atoms: C10_10  and  N14_11 
REMARK    4  A    between atoms: N14_11  and  C15_12 
REMARK       I    between atoms: N13_22  and  C26_23 
REMARK    5  A    between atoms: C26_23  and  C24_24 
REMARK    6  A    between atoms: C24_24  and  C23_25 
REMARK    7  A    between atoms: C23_25  and  C25_26 
ROOT
HETATM    1  C1    D T9001       6.986  14.124  -1.050  1.00 30.38     0.107 A 
HETATM    2  C2    D T9001       5.989  14.868  -1.769  1.00 29.65     0.113 A 
HETATM    3  C3    D T9001       4.612  14.699  -1.416  1.00 28.21     0.045 A 
HETATM    4  C4    D T9001       4.206  13.824  -0.388  1.00 27.21     0.088 A 
HETATM    5  C5    D T9001       5.207  13.066   0.324  1.00 26.27     0.055 A 
HETATM    6  C6    D T9001       6.583  13.230  -0.020  1.00 29.22     0.026 A 
HETATM    7  N7    D T9001       2.883  13.730  -0.110  1.00 25.99    -0.224 NA
HETATM    8  C8    D T9001       2.525  12.882   0.876  1.00 24.59     0.200 A 
HETATM    9  N9    D T9001       3.362  12.114   1.606  1.00 25.70    -0.205 NA
HETATM   10  C10   D T9001       4.714  12.196   1.337  1.00 27.48     0.166 A 
ENDROOT
BRANCH  10  11
HETATM   11  N14   D T9001       5.627  11.393   2.088  1.00 23.22    -0.227 NA
BRANCH  11  12
HETATM   12  C15   D T9001       5.318  10.226   2.832  1.00 24.25     0.084 A 
HETATM   13  C16   D T9001       4.026   9.610   2.771  1.00 25.06     0.033 A 
HETATM   14  C17   D T9001       3.732   8.460   3.518  1.00 28.28     0.087 A 
HETATM   15  C18   D T9001       4.723   7.887   4.352  1.00 25.55     0.151 A 
HETATM   16 CL     D T9001       2.153   7.784   3.396  1.00 31.70    -0.080 Cl
HETATM   17  C19   D T9001       6.013   8.471   4.435  1.00 24.70     0.032 A 
HETATM   18  F21   D T9001       4.461   6.790   5.076  1.00 27.22    -0.203 F 
HETATM   19  C20   D T9001       6.308   9.637   3.675  1.00 24.32     0.021 A 
ENDBRANCH  11  12
ENDBRANCH  10  11
BRANCH   1  20
HETATM   20  N13   D T9001       8.350  14.336  -1.395  1.00 34.61    -0.210 NA
HETATM   21  C26   D T9001       9.038  13.466  -2.259  1.00 36.24     0.256 C 
HETATM   22  O27   D T9001       8.568  12.465  -2.801  1.00 39.97    -0.270 OA
BRANCH  21  23
HETATM   23  C24   D T9001      10.490  13.873  -2.440  1.00 35.38     0.092 C 
BRANCH  23  24
HETATM   24  C23   D T9001      10.833  14.169  -3.911  1.00 34.93     0.051 C 
BRANCH  24  25
HETATM   25  C25   D T9001       9.876  15.238  -4.447  1.00 37.23     0.339 C 
HETATM   26  N33   D T9001      10.171  16.582  -3.829  1.00 41.10     0.618 N 
ENDBRANCH  24  25
ENDBRANCH  23  24
ENDBRANCH  21  23
ENDBRANCH   1  20
BRANCH   2  27
HETATM   27  O11   D T9001       6.481  15.706  -2.766  1.00 31.09    -0.327 OA
HETATM   28  C12   D T9001       6.167  15.446  -4.137  1.00 29.66     0.181 C 
ENDBRANCH   2  27
TORSDOF 7
ENDMDL
MODEL 6
REMARK VINA RESULT:    -6.577      4.894      7.683
REMARK INTER + INTRA:         -10.209
REMARK INTER:                  -9.192
REMARK INTRA:                  -1.016
REMARK UNBOUND:                -0.941
REMARK  7 active torsions:
REMARK  status: ('A' for Active; 'I' for Inactive)
REMARK    1  A    between atoms: C1_1  and  N13_22 
REMARK    2  A    between atoms: C2_2  and  O11_20 
REMARK    3  A    between atoms: C10_10  and  N14_11 
REMARK    4  A    between atoms: N14_11  and  C15_12 
REMARK       I    between atoms: N13_22  and  C26_23 
REMARK    5  A    between atoms: C26_23  and  C24_24 
REMARK    6  A    between atoms: C24_24  and  C23_25 
REMARK    7  A    between atoms: C23_25  and  C25_26 
ROOT
HETATM    1  C1    D T9001       6.567  14.730  -3.151  1.00 30.38     0.107 A 
HETATM    2  C2    D T9001       7.965  14.475  -3.360  1.00 29.65     0.113 A 
HETATM    3  C3    D T9001       8.747  13.973  -2.270  1.00 28.21     0.045 A 
HETATM    4  C4    D T9001       8.186  13.725  -1.001  1.00 27.21     0.088 A 
HETATM    5  C5    D T9001       6.785  13.995  -0.787  1.00 26.27     0.055 A 
HETATM    6  C6    D T9001       5.998  14.494  -1.869  1.00 29.22     0.026 A 
HETATM    7  N7    D T9001       8.994  13.240  -0.026  1.00 25.99    -0.224 NA
HETATM    8  C8    D T9001       8.430  13.016   1.178  1.00 24.59     0.200 A 
HETATM    9  N9    D T9001       7.138  13.237   1.504  1.00 25.70    -0.205 NA
HETATM   10  C10   D T9001       6.301  13.730   0.524  1.00 27.48     0.166 A 
ENDROOT
BRANCH  10  11
HETATM   11  N14   D T9001       4.928  13.980   0.838  1.00 23.22    -0.227 NA
BRANCH  11  12
HETATM   12  C15   D T9001       3.864  13.044   0.798  1.00 24.25     0.084 A 
HETATM   13  C16   D T9001       3.982  11.741   1.383  1.00 25.06     0.033 A 
HETATM   14  C17   D T9001       2.923  10.822   1.330  1.00 28.28     0.087 A 
HETATM   15  C18   D T9001       1.711  11.177   0.691  1.00 25.55     0.151 A 
HETATM   16 CL     D T9001       3.145   9.273   2.050  1.00 31.70    -0.080 Cl
HETATM   17  C19   D T9001       1.561  12.459   0.103  1.00 24.70     0.032 A 
HETATM   18  F21   D T9001       0.688  10.312   0.627  1.00 27.22    -0.203 F 
HETATM   19  C20   D T9001       2.636  13.389   0.158  1.00 24.32     0.021 A 
ENDBRANCH  11  12
ENDBRANCH  10  11
BRANCH   1  20
HETATM   20  N13   D T9001       5.804  15.195  -4.258  1.00 34.61    -0.210 NA
HETATM   21  C26   D T9001       5.382  16.532  -4.356  1.00 36.24     0.256 C 
HETATM   22  O27   D T9001       5.612  17.425  -3.539  1.00 39.97    -0.270 OA
BRANCH  21  23
HETATM   23  C24   D T9001       4.547  16.777  -5.601  1.00 35.38     0.092 C 
BRANCH  23  24
HETATM   24  C23   D T9001       3.780  18.110  -5.536  1.00 34.93     0.051 C 
BRANCH  24  25
HETATM   25  C25   D T9001       4.436  19.116  -6.488  1.00 37.23     0.339 C 
HETATM   26  N33   D T9001       4.909  18.434  -7.748  1.00 41.10     0.618 N 
ENDBRANCH  24  25
ENDBRANCH  23  24
ENDBRANCH  21  23
ENDBRANCH   1  20
BRANCH   2  27
HETATM   27  O11   D T9001       8.431  14.749  -4.642  1.00 31.09    -0.327 OA
HETATM   28  C12   D T9001       9.320  15.849  -4.860  1.00 29.66     0.181 C 
ENDBRANCH   2  27
TORSDOF 7
ENDMDL
MODEL 7
REMARK VINA RESULT:    -6.438      4.157      6.912
REMARK INTER + INTRA:         -10.014
REMARK INTER:                  -9.455
REMARK INTRA:                  -0.559
REMARK UNBOUND:                -0.941
REMARK  7 active torsions:
REMARK  status: ('A' for Active; 'I' for Inactive)
REMARK    1  A    between atoms: C1_1  and  N13_22 
REMARK    2  A    between atoms: C2_2  and  O11_20 
REMARK    3  A    between atoms: C10_10  and  N14_11 
REMARK    4  A    between atoms: N14_11  and  C15_12 
REMARK       I    between atoms: N13_22  and  C26_23 
REMARK    5  A    between atoms: C26_23  and  C24_24 
REMARK    6  A    between atoms: C24_24  and  C23_25 
REMARK    7  A    between atoms: C23_25  and  C25_26 
ROOT
HETATM    1  C1    D T9001       7.366  14.488  -1.259  1.00 30.38     0.107 A 
HETATM    2  C2    D T9001       8.727  14.063  -1.082  1.00 29.65     0.113 A 
HETATM    3  C3    D T9001       9.023  13.100  -0.065  1.00 28.21     0.045 A 
HETATM    4  C4    D T9001       8.021  12.561   0.767  1.00 27.21     0.088 A 
HETATM    5  C5    D T9001       6.657  13.000   0.598  1.00 26.27     0.055 A 
HETATM    6  C6    D T9001       6.352  13.958  -0.415  1.00 29.22     0.026 A 
HETATM    7  N7    D T9001       8.385  11.646   1.699  1.00 25.99    -0.224 NA
HETATM    8  C8    D T9001       7.405  11.150   2.483  1.00 24.59     0.200 A 
HETATM    9  N9    D T9001       6.098  11.486   2.429  1.00 25.70    -0.205 NA
HETATM   10  C10   D T9001       5.709  12.417   1.486  1.00 27.48     0.166 A 
ENDROOT
BRANCH  10  11
HETATM   11  N14   D T9001       4.334  12.798   1.406  1.00 23.22    -0.227 NA
BRANCH  11  12
HETATM   12  C15   D T9001       3.223  11.937   1.218  1.00 24.25     0.084 A 
HETATM   13  C16   D T9001       3.157  10.644   1.831  1.00 25.06     0.033 A 
HETATM   14  C17   D T9001       2.055   9.799   1.632  1.00 28.28     0.087 A 
HETATM   15  C18   D T9001       0.981  10.222   0.811  1.00 25.55     0.151 A 
HETATM   16 CL     D T9001       2.054   8.257   2.397  1.00 31.70    -0.080 Cl
HETATM   17  C19   D T9001       1.013  11.497   0.191  1.00 24.70     0.032 A 
HETATM   18  F21   D T9001      -0.080   9.428   0.606  1.00 27.22    -0.203 F 
HETATM   19  C20   D T9001       2.132  12.352   0.396  1.00 24.32     0.021 A 
ENDBRANCH  11  12
ENDBRANCH  10  11
BRANCH   1  20
HETATM   20  N13   D T9001       7.092  15.419  -2.299  1.00 34.61    -0.210 NA
HETATM   21  C26   D T9001       6.951  15.014  -3.638  1.00 36.24     0.256 C 
HETATM   22  O27   D T9001       7.041  13.858  -4.057  1.00 39.97    -0.270 OA
BRANCH  21  23
HETATM   23  C24   D T9001       6.706  16.189  -4.568  1.00 35.38     0.092 C 
BRANCH  23  24
HETATM   24  C23   D T9001       5.412  16.947  -4.221  1.00 34.93     0.051 C 
BRANCH  24  25
HETATM   25  C25   D T9001       4.705  17.359  -5.517  1.00 37.23     0.339 C 
HETATM   26  N33   D T9001       3.282  17.778  -5.244  1.00 41.10     0.618 N 
ENDBRANCH  24  25
ENDBRANCH  23  24
ENDBRANCH  21  23
ENDBRANCH   1  20
BRANCH   2  27
HETATM   27  O11   D T9001       9.647  14.649  -1.946  1.00 31.09    -0.327 OA
HETATM   28  C12   D T9001      10.458  13.827  -2.792  1.00 29.66     0.181 C 
ENDBRANCH   2  27
TORSDOF 7
ENDMDL
MODEL 8
REMARK VINA RESULT:    -6.208      3.031      5.153
REMARK INTER + INTRA:          -9.690
REMARK INTER:                  -8.545
REMARK INTRA:                  -1.145
REMARK UNBOUND:                -0.941
REMARK  7 active torsions:
REMARK  status: ('A' for Active; 'I' for Inactive)
REMARK    1  A    between atoms: C1_1  and  N13_22 
REMARK    2  A    between atoms: C2_2  and  O11_20 
REMARK    3  A    between atoms: C10_10  and  N14_11 
REMARK    4  A    between atoms: N14_11  and  C15_12 
REMARK       I    between atoms: N13_22  and  C26_23 
REMARK    5  A    between atoms: C26_23  and  C24_24 
REMARK    6  A    between atoms: C24_24  and  C23_25 
REMARK    7  A    between atoms: C23_25  and  C25_26 
ROOT
HETATM    1  C1    D T9001       7.335  14.274  -1.478  1.00 30.38     0.107 A 
HETATM    2  C2    D T9001       6.256  14.546  -2.386  1.00 29.65     0.113 A 
HETATM    3  C3    D T9001       4.938  14.105  -2.044  1.00 28.21     0.045 A 
HETATM    4  C4    D T9001       4.669  13.410  -0.847  1.00 27.21     0.088 A 
HETATM    5  C5    D T9001       5.757  13.124   0.058  1.00 26.27     0.055 A 
HETATM    6  C6    D T9001       7.075  13.563  -0.275  1.00 29.22     0.026 A 
HETATM    7  N7    D T9001       3.391  13.037  -0.594  1.00 25.99    -0.224 NA
HETATM    8  C8    D T9001       3.165  12.372   0.557  1.00 24.59     0.200 A 
HETATM    9  N9    D T9001       4.097  12.037   1.477  1.00 25.70    -0.205 NA
HETATM   10  C10   D T9001       5.404  12.409   1.236  1.00 27.48     0.166 A 
ENDROOT
BRANCH  10  11
HETATM   11  N14   D T9001       6.415  12.067   2.187  1.00 23.22    -0.227 NA
BRANCH  11  12
HETATM   12  C15   D T9001       6.984  10.786   2.398  1.00 24.25     0.084 A 
HETATM   13  C16   D T9001       6.500   9.902   3.417  1.00 25.06     0.033 A 
HETATM   14  C17   D T9001       7.077   8.640   3.620  1.00 28.28     0.087 A 
HETATM   15  C18   D T9001       8.159   8.219   2.808  1.00 25.55     0.151 A 
HETATM   16 CL     D T9001       6.443   7.639   4.869  1.00 31.70    -0.080 Cl
HETATM   17  C19   D T9001       8.661   9.069   1.790  1.00 24.70     0.032 A 
HETATM   18  F21   D T9001       8.726   7.018   2.988  1.00 27.22    -0.203 F 
HETATM   19  C20   D T9001       8.074  10.348   1.586  1.00 24.32     0.021 A 
ENDBRANCH  11  12
ENDBRANCH  10  11
BRANCH   1  20
HETATM   20  N13   D T9001       8.630  14.753  -1.823  1.00 34.61    -0.210 NA
HETATM   21  C26   D T9001       9.544  13.963  -2.543  1.00 36.24     0.256 C 
HETATM   22  O27   D T9001       9.347  12.816  -2.947  1.00 39.97    -0.270 OA
BRANCH  21  23
HETATM   23  C24   D T9001      10.871  14.673  -2.752  1.00 35.38     0.092 C 
BRANCH  23  24
HETATM   24  C23   D T9001      11.598  14.952  -1.425  1.00 34.93     0.051 C 
BRANCH  24  25
HETATM   25  C25   D T9001      12.109  13.630  -0.843  1.00 37.23     0.339 C 
HETATM   26  N33   D T9001      13.029  12.934  -1.815  1.00 41.10     0.618 N 
ENDBRANCH  24  25
ENDBRANCH  23  24
ENDBRANCH  21  23
ENDBRANCH   1  20
BRANCH   2  27
HETATM   27  O11   D T9001       6.614  15.234  -3.542  1.00 31.09    -0.327 OA
HETATM   28  C12   D T9001       5.606  15.653  -4.466  1.00 29.66     0.181 C 
ENDBRANCH   2  27
TORSDOF 7
ENDMDL
MODEL 9
REMARK VINA RESULT:    -6.106      3.009      4.093
REMARK INTER + INTRA:          -9.546
REMARK INTER:                  -8.401
REMARK INTRA:                  -1.145
REMARK UNBOUND:                -0.941
REMARK  7 active torsions:
REMARK  status: ('A' for Active; 'I' for Inactive)
REMARK    1  A    between atoms: C1_1  and  N13_22 
REMARK    2  A    between atoms: C2_2  and  O11_20 
REMARK    3  A    between atoms: C10_10  and  N14_11 
REMARK    4  A    between atoms: N14_11  and  C15_12 
REMARK       I    between atoms: N13_22  and  C26_23 
REMARK    5  A    between atoms: C26_23  and  C24_24 
REMARK    6  A    between atoms: C24_24  and  C23_25 
REMARK    7  A    between atoms: C23_25  and  C25_26 
ROOT
HETATM    1  C1    D T9001       5.991  10.299   2.093  1.00 30.38     0.107 A 
HETATM    2  C2    D T9001       5.148   9.763   3.125  1.00 29.65     0.113 A 
HETATM    3  C3    D T9001       5.711   8.849   4.073  1.00 28.21     0.045 A 
HETATM    4  C4    D T9001       7.064   8.459   4.021  1.00 27.21     0.088 A 
HETATM    5  C5    D T9001       7.908   8.987   2.975  1.00 26.27     0.055 A 
HETATM    6  C6    D T9001       7.355   9.900   2.027  1.00 29.22     0.026 A 
HETATM    7  N7    D T9001       7.521   7.598   4.963  1.00 25.99    -0.224 NA
HETATM    8  C8    D T9001       8.819   7.240   4.886  1.00 24.59     0.200 A 
HETATM    9  N9    D T9001       9.703   7.656   3.954  1.00 25.70    -0.205 NA
HETATM   10  C10   D T9001       9.256   8.534   2.986  1.00 27.48     0.166 A 
ENDROOT
BRANCH  10  11
HETATM   11  N14   D T9001      10.166   8.989   1.982  1.00 23.22    -0.227 NA
BRANCH  11  12
HETATM   12  C15   D T9001      11.186   9.962   2.137  1.00 24.25     0.084 A 
HETATM   13  C16   D T9001      12.545   9.595   2.408  1.00 25.06     0.033 A 
HETATM   14  C17   D T9001      13.543  10.568   2.567  1.00 28.28     0.087 A 
HETATM   15  C18   D T9001      13.214  11.941   2.460  1.00 25.55     0.151 A 
HETATM   16 CL     D T9001      15.150  10.048   2.897  1.00 31.70    -0.080 Cl
HETATM   17  C19   D T9001      11.879  12.339   2.191  1.00 24.70     0.032 A 
HETATM   18  F21   D T9001      14.152  12.887   2.611  1.00 27.22    -0.203 F 
HETATM   19  C20   D T9001      10.869  11.350   2.030  1.00 24.32     0.021 A 
ENDBRANCH  11  12
ENDBRANCH  10  11
BRANCH   1  20
HETATM   20  N13   D T9001       5.418  11.231   1.185  1.00 34.61    -0.210 NA
HETATM   21  C26   D T9001       5.701  12.607   1.259  1.00 36.24     0.256 C 
HETATM   22  O27   D T9001       6.446  13.148   2.077  1.00 39.97    -0.270 OA
BRANCH  21  23
HETATM   23  C24   D T9001       4.939  13.403   0.214  1.00 35.38     0.092 C 
BRANCH  23  24
HETATM   24  C23   D T9001       5.870  14.004  -0.855  1.00 34.93     0.051 C 
BRANCH  24  25
HETATM   25  C25   D T9001       6.133  12.956  -1.941  1.00 37.23     0.339 C 
HETATM   26  N33   D T9001       7.543  12.427  -1.848  1.00 41.10     0.618 N 
ENDBRANCH  24  25
ENDBRANCH  23  24
ENDBRANCH  21  23
ENDBRANCH   1  20
BRANCH   2  27
HETATM   27  O11   D T9001       3.827  10.202   3.097  1.00 31.09    -0.327 OA
HETATM   28  C12   D T9001       2.759   9.271   3.296  1.00 29.66     0.181 C 
ENDBRANCH   2  27
TORSDOF 7
ENDMDL
