MODEL 1
REMARK VINA RESULT:    -7.549      0.000      0.000
REMARK INTER + INTRA:         -11.516
REMARK INTER:                 -10.638
REMARK INTRA:                  -0.878
REMARK UNBOUND:                -0.878
REMARK  7 active torsions:
REMARK  status: ('A' for Active; 'I' for Inactive)
REMARK    1  A    between atoms: C1_1  and  N13_22 
REMARK    2  A    between atoms: C2_2  and  O11_20 
REMARK    3  A    between atoms: C10_10  and  N14_11 
REMARK    4  A    between atoms: N14_11  and  C15_12 
REMARK       I    between atoms: N13_22  and  C26_23 
REMARK    5  A    between atoms: C26_23  and  C24_24 
REMARK    6  A    between atoms: C24_24  and  C23_25 
REMARK    7  A    between atoms: C23_25  and  C25_26 
ROOT
HETATM    1  C1    D T9001      -1.232  10.431   2.040  1.00 30.38     0.107 A 
HETATM    2  C2    D T9001      -0.174  11.336   1.684  1.00 29.65     0.113 A 
HETATM    3  C3    D T9001       1.175  10.978   2.004  1.00 28.21     0.045 A 
HETATM    4  C4    D T9001       1.495   9.771   2.658  1.00 27.21     0.088 A 
HETATM    5  C5    D T9001       0.429   8.871   3.028  1.00 26.27     0.055 A 
HETATM    6  C6    D T9001      -0.919   9.217   2.711  1.00 29.22     0.026 A 
HETATM    7  N7    D T9001       2.799   9.505   2.915  1.00 25.99    -0.224 NA
HETATM    8  C8    D T9001       3.072   8.344   3.546  1.00 24.59     0.200 A 
HETATM    9  N9    D T9001       2.167   7.427   3.950  1.00 25.70    -0.205 NA
HETATM   10  C10   D T9001       0.835   7.681   3.696  1.00 27.48     0.166 A 
ENDROOT
BRANCH  10  11
HETATM   11  N14   D T9001      -0.151   6.733   4.115  1.00 23.22    -0.227 NA
BRANCH  11  12
HETATM   12  C15   D T9001      -0.294   5.398   3.656  1.00 24.25     0.084 A 
HETATM   13  C16   D T9001       0.584   4.352   4.089  1.00 25.06     0.033 A 
HETATM   14  C17   D T9001       0.436   3.038   3.622  1.00 28.28     0.087 A 
HETATM   15  C18   D T9001      -0.597   2.727   2.705  1.00 25.55     0.151 A 
HETATM   16 CL     D T9001       1.535   1.837   4.185  1.00 31.70    -0.080 Cl
HETATM   17  C19   D T9001      -1.484   3.738   2.257  1.00 24.70     0.032 A 
HETATM   18  F21   D T9001      -0.753   1.478   2.244  1.00 27.22    -0.203 F 
HETATM   19  C20   D T9001      -1.331   5.070   2.733  1.00 24.32     0.021 A 
ENDBRANCH  11  12
ENDBRANCH  10  11
BRANCH   1  20
HETATM   20  N13   D T9001      -2.560  10.791   1.680  1.00 34.61    -0.210 NA
HETATM   21  C26   D T9001      -3.361  11.594   2.510  1.00 36.24     0.256 C 
HETATM   22  O27   D T9001      -3.029  12.066   3.599  1.00 39.97    -0.270 OA
BRANCH  21  23
HETATM   23  C24   D T9001      -4.751  11.804   1.934  1.00 35.38     0.092 C 
BRANCH  23  24
HETATM   24  C23   D T9001      -5.666  12.588   2.891  1.00 34.93     0.051 C 
BRANCH  24  25
HETATM   25  C25   D T9001      -6.809  11.677   3.353  1.00 37.23     0.339 C 
HETATM   26  N33   D T9001      -7.662  11.249   2.184  1.00 41.10     0.618 N 
ENDBRANCH  24  25
ENDBRANCH  23  24
ENDBRANCH  21  23
ENDBRANCH   1  20
BRANCH   2  27
HETATM   27  O11   D T9001      -0.581  12.502   1.043  1.00 31.09    -0.327 OA
HETATM   28  C12   D T9001      -0.402  13.769   1.682  1.00 29.66     0.181 C 
ENDBRANCH   2  27
TORSDOF 7
ENDMDL
MODEL 2
REMARK VINA RESULT:    -7.204      4.279      7.875
REMARK INTER + INTRA:         -11.030
REMARK INTER:                 -10.024
REMARK INTRA:                  -1.005
REMARK UNBOUND:                -0.878
REMARK  7 active torsions:
REMARK  status: ('A' for Active; 'I' for Inactive)
REMARK    1  A    between atoms: C1_1  and  N13_22 
REMARK    2  A    between atoms: C2_2  and  O11_20 
REMARK    3  A    between atoms: C10_10  and  N14_11 
REMARK    4  A    between atoms: N14_11  and  C15_12 
REMARK       I    between atoms: N13_22  and  C26_23 
REMARK    5  A    between atoms: C26_23  and  C24_24 
REMARK    6  A    between atoms: C24_24  and  C23_25 
REMARK    7  A    between atoms: C23_25  and  C25_26 
ROOT
HETATM    1  C1    D T9001       0.495   7.959   3.590  1.00 30.38     0.107 A 
HETATM    2  C2    D T9001       1.853   8.250   3.956  1.00 29.65     0.113 A 
HETATM    3  C3    D T9001       2.461   9.445   3.456  1.00 28.21     0.045 A 
HETATM    4  C4    D T9001       1.770  10.341   2.615  1.00 27.21     0.088 A 
HETATM    5  C5    D T9001       0.411  10.040   2.236  1.00 26.27     0.055 A 
HETATM    6  C6    D T9001      -0.206   8.851   2.733  1.00 29.22     0.026 A 
HETATM    7  N7    D T9001       2.417  11.455   2.193  1.00 25.99    -0.224 NA
HETATM    8  C8    D T9001       1.731  12.291   1.386  1.00 24.59     0.200 A 
HETATM    9  N9    D T9001       0.463  12.116   0.956  1.00 25.70    -0.205 NA
HETATM   10  C10   D T9001      -0.211  10.988   1.375  1.00 27.48     0.166 A 
ENDROOT
BRANCH  10  11
HETATM   11  N14   D T9001      -1.554  10.770   0.934  1.00 23.22    -0.227 NA
BRANCH  11  12
HETATM   12  C15   D T9001      -2.702  11.516   1.305  1.00 24.25     0.084 A 
HETATM   13  C16   D T9001      -3.257  11.443   2.624  1.00 25.06     0.033 A 
HETATM   14  C17   D T9001      -4.397  12.180   2.976  1.00 28.28     0.087 A 
HETATM   15  C18   D T9001      -5.019  13.017   2.018  1.00 25.55     0.151 A 
HETATM   16 CL     D T9001      -5.007  12.034   4.580  1.00 31.70    -0.080 Cl
HETATM   17  C19   D T9001      -4.495  13.114   0.704  1.00 24.70     0.032 A 
HETATM   18  F21   D T9001      -6.111  13.728   2.334  1.00 27.22    -0.203 F 
HETATM   19  C20   D T9001      -3.339  12.364   0.351  1.00 24.32     0.021 A 
ENDBRANCH  11  12
ENDBRANCH  10  11
BRANCH   1  20
HETATM   20  N13   D T9001      -0.101   6.784   4.129  1.00 34.61    -0.210 NA
HETATM   21  C26   D T9001      -0.178   5.590   3.393  1.00 36.24     0.256 C 
HETATM   22  O27   D T9001       0.241   5.417   2.247  1.00 39.97    -0.270 OA
BRANCH  21  23
HETATM   23  C24   D T9001      -0.893   4.491   4.161  1.00 35.38     0.092 C 
BRANCH  23  24
HETATM   24  C23   D T9001      -0.030   3.225   4.306  1.00 34.93     0.051 C 
BRANCH  24  25
HETATM   25  C25   D T9001      -0.507   2.172   3.299  1.00 37.23     0.339 C 
HETATM   26  N33   D T9001       0.268   0.887   3.456  1.00 41.10     0.618 N 
ENDBRANCH  24  25
ENDBRANCH  23  24
ENDBRANCH  21  23
ENDBRANCH   1  20
BRANCH   2  27
HETATM   27  O11   D T9001       2.457   7.311   4.788  1.00 31.09    -0.327 OA
HETATM   28  C12   D T9001       3.540   6.515   4.300  1.00 29.66     0.181 C 
ENDBRANCH   2  27
TORSDOF 7
ENDMDL
MODEL 3
REMARK VINA RESULT:    -7.034      1.813      2.094
REMARK INTER + INTRA:         -10.790
REMARK INTER:                  -9.712
REMARK INTRA:                  -1.078
REMARK UNBOUND:                -0.878
REMARK  7 active torsions:
REMARK  status: ('A' for Active; 'I' for Inactive)
REMARK    1  A    between atoms: C1_1  and  N13_22 
REMARK    2  A    between atoms: C2_2  and  O11_20 
REMARK    3  A    between atoms: C10_10  and  N14_11 
REMARK    4  A    between atoms: N14_11  and  C15_12 
REMARK       I    between atoms: N13_22  and  C26_23 
REMARK    5  A    between atoms: C26_23  and  C24_24 
REMARK    6  A    between atoms: C24_24  and  C23_25 
REMARK    7  A    between atoms: C23_25  and  C25_26 
ROOT
HETATM    1  C1    D T9001      -0.460  11.093   2.214  1.00 30.38     0.107 A 
HETATM    2  C2    D T9001       0.108  11.766   1.079  1.00 29.65     0.113 A 
HETATM    3  C3    D T9001       1.201  11.151   0.389  1.00 28.21     0.045 A 
HETATM    4  C4    D T9001       1.737   9.911   0.792  1.00 27.21     0.088 A 
HETATM    5  C5    D T9001       1.175   9.244   1.942  1.00 26.27     0.055 A 
HETATM    6  C6    D T9001       0.082   9.848   2.634  1.00 29.22     0.026 A 
HETATM    7  N7    D T9001       2.767   9.393   0.077  1.00 25.99    -0.224 NA
HETATM    8  C8    D T9001       3.260   8.207   0.490  1.00 24.59     0.200 A 
HETATM    9  N9    D T9001       2.828   7.492   1.550  1.00 25.70    -0.205 NA
HETATM   10  C10   D T9001       1.781   8.003   2.289  1.00 27.48     0.166 A 
ENDROOT
BRANCH  10  11
HETATM   11  N14   D T9001       1.301   7.273   3.422  1.00 23.22    -0.227 NA
BRANCH  11  12
HETATM   12  C15   D T9001       0.737   5.972   3.418  1.00 24.25     0.084 A 
HETATM   13  C16   D T9001      -0.576   5.720   2.901  1.00 25.06     0.033 A 
HETATM   14  C17   D T9001      -1.125   4.429   2.910  1.00 28.28     0.087 A 
HETATM   15  C18   D T9001      -0.378   3.348   3.436  1.00 25.55     0.151 A 
HETATM   16 CL     D T9001      -2.711   4.207   2.277  1.00 31.70    -0.080 Cl
HETATM   17  C19   D T9001       0.925   3.563   3.953  1.00 24.70     0.032 A 
HETATM   18  F21   D T9001      -0.886   2.107   3.455  1.00 27.22    -0.203 F 
HETATM   19  C20   D T9001       1.479   4.873   3.943  1.00 24.32     0.021 A 
ENDBRANCH  11  12
ENDBRANCH  10  11
BRANCH   1  20
HETATM   20  N13   D T9001      -1.569  11.707   2.861  1.00 34.61    -0.210 NA
HETATM   21  C26   D T9001      -2.892  11.462   2.454  1.00 36.24     0.256 C 
HETATM   22  O27   D T9001      -3.240  10.721   1.533  1.00 39.97    -0.270 OA
BRANCH  21  23
HETATM   23  C24   D T9001      -3.896  12.262   3.266  1.00 35.38     0.092 C 
BRANCH  23  24
HETATM   24  C23   D T9001      -5.003  11.373   3.861  1.00 34.93     0.051 C 
BRANCH  24  25
HETATM   25  C25   D T9001      -6.371  11.965   3.502  1.00 37.23     0.339 C 
HETATM   26  N33   D T9001      -6.640  11.838   2.022  1.00 41.10     0.618 N 
ENDBRANCH  24  25
ENDBRANCH  23  24
ENDBRANCH  21  23
ENDBRANCH   1  20
BRANCH   2  27
HETATM   27  O11   D T9001      -0.482  12.984   0.754  1.00 31.09    -0.327 OA
HETATM   28  C12   D T9001      -1.086  13.167  -0.529  1.00 29.66     0.181 C 
ENDBRANCH   2  27
TORSDOF 7
ENDMDL
MODEL 4
REMARK VINA RESULT:    -6.794      4.117      7.662
REMARK INTER + INTRA:         -10.452
REMARK INTER:                  -9.386
REMARK INTRA:                  -1.066
REMARK UNBOUND:                -0.878
REMARK  7 active torsions:
REMARK  status: ('A' for Active; 'I' for Inactive)
REMARK    1  A    between atoms: C1_1  and  N13_22 
REMARK    2  A    between atoms: C2_2  and  O11_20 
REMARK    3  A    between atoms: C10_10  and  N14_11 
REMARK    4  A    between atoms: N14_11  and  C15_12 
REMARK       I    between atoms: N13_22  and  C26_23 
REMARK    5  A    between atoms: C26_23  and  C24_24 
REMARK    6  A    between atoms: C24_24  and  C23_25 
REMARK    7  A    between atoms: C23_25  and  C25_26 
ROOT
HETATM    1  C1    D T9001       0.530   8.527   2.740  1.00 30.38     0.107 A 
HETATM    2  C2    D T9001       1.854   9.038   2.965  1.00 29.65     0.113 A 
HETATM    3  C3    D T9001       2.103  10.429   2.740  1.00 28.21     0.045 A 
HETATM    4  C4    D T9001       1.093  11.309   2.302  1.00 27.21     0.088 A 
HETATM    5  C5    D T9001      -0.233  10.791   2.061  1.00 26.27     0.055 A 
HETATM    6  C6    D T9001      -0.492   9.405   2.287  1.00 29.22     0.026 A 
HETATM    7  N7    D T9001       1.411  12.615   2.122  1.00 25.99    -0.224 NA
HETATM    8  C8    D T9001       0.423  13.431   1.698  1.00 24.59     0.200 A 
HETATM    9  N9    D T9001      -0.849  13.066   1.431  1.00 25.70    -0.205 NA
HETATM   10  C10   D T9001      -1.191  11.741   1.609  1.00 27.48     0.166 A 
ENDROOT
BRANCH  10  11
HETATM   11  N14   D T9001      -2.530  11.320   1.331  1.00 23.22    -0.227 NA
BRANCH  11  12
HETATM   12  C15   D T9001      -3.675  11.544   2.136  1.00 24.25     0.084 A 
HETATM   13  C16   D T9001      -5.003  11.435   1.609  1.00 25.06     0.033 A 
HETATM   14  C17   D T9001      -6.127  11.667   2.414  1.00 28.28     0.087 A 
HETATM   15  C18   D T9001      -5.960  12.016   3.776  1.00 25.55     0.151 A 
HETATM   16 CL     D T9001      -7.690  11.522   1.705  1.00 31.70    -0.080 Cl
HETATM   17  C19   D T9001      -4.660  12.131   4.331  1.00 24.70     0.032 A 
HETATM   18  F21   D T9001      -7.022  12.245   4.563  1.00 27.22    -0.203 F 
HETATM   19  C20   D T9001      -3.521  11.896   3.511  1.00 24.32     0.021 A 
ENDBRANCH  11  12
ENDBRANCH  10  11
BRANCH   1  20
HETATM   20  N13   D T9001       0.298   7.148   3.006  1.00 34.61    -0.210 NA
HETATM   21  C26   D T9001      -0.204   6.707   4.242  1.00 36.24     0.256 C 
HETATM   22  O27   D T9001      -0.494   7.422   5.202  1.00 39.97    -0.270 OA
BRANCH  21  23
HETATM   23  C24   D T9001      -0.326   5.194   4.302  1.00 35.38     0.092 C 
BRANCH  23  24
HETATM   24  C23   D T9001      -0.714   4.586   2.942  1.00 34.93     0.051 C 
BRANCH  24  25
HETATM   25  C25   D T9001       0.071   3.286   2.730  1.00 37.23     0.339 C 
HETATM   26  N33   D T9001       1.550   3.513   2.921  1.00 41.10     0.618 N 
ENDBRANCH  24  25
ENDBRANCH  23  24
ENDBRANCH  21  23
ENDBRANCH   1  20
BRANCH   2  27
HETATM   27  O11   D T9001       2.787   8.099   3.395  1.00 31.09    -0.327 OA
HETATM   28  C12   D T9001       3.777   7.606   2.488  1.00 29.66     0.181 C 
ENDBRANCH   2  27
TORSDOF 7
ENDMDL
MODEL 5
REMARK VINA RESULT:    -6.624      5.281      9.051
REMARK INTER + INTRA:         -10.213
REMARK INTER:                  -9.505
REMARK INTRA:                  -0.707
REMARK UNBOUND:                -0.878
REMARK  7 active torsions:
REMARK  status: ('A' for Active; 'I' for Inactive)
REMARK    1  A    between atoms: C1_1  and  N13_22 
REMARK    2  A    between atoms: C2_2  and  O11_20 
REMARK    3  A    between atoms: C10_10  and  N14_11 
REMARK    4  A    between atoms: N14_11  and  C15_12 
REMARK       I    between atoms: N13_22  and  C26_23 
REMARK    5  A    between atoms: C26_23  and  C24_24 
REMARK    6  A    between atoms: C24_24  and  C23_25 
REMARK    7  A    between atoms: C23_25  and  C25_26 
ROOT
HETATM    1  C1    D T9001       5.081   4.737   4.636  1.00 30.38     0.107 A 
HETATM    2  C2    D T9001       5.780   5.829   4.016  1.00 29.65     0.113 A 
HETATM    3  C3    D T9001       5.021   6.843   3.348  1.00 28.21     0.045 A 
HETATM    4  C4    D T9001       3.614   6.799   3.278  1.00 27.21     0.088 A 
HETATM    5  C5    D T9001       2.915   5.694   3.888  1.00 26.27     0.055 A 
HETATM    6  C6    D T9001       3.663   4.680   4.559  1.00 29.22     0.026 A 
HETATM    7  N7    D T9001       2.971   7.805   2.634  1.00 25.99    -0.224 NA
HETATM    8  C8    D T9001       1.625   7.733   2.580  1.00 24.59     0.200 A 
HETATM    9  N9    D T9001       0.860   6.750   3.102  1.00 25.70    -0.205 NA
HETATM   10  C10   D T9001       1.497   5.719   3.761  1.00 27.48     0.166 A 
ENDROOT
BRANCH  10  11
HETATM   11  N14   D T9001       0.717   4.659   4.322  1.00 23.22    -0.227 NA
BRANCH  11  12
HETATM   12  C15   D T9001       0.663   3.314   3.873  1.00 24.25     0.084 A 
HETATM   13  C16   D T9001       1.554   2.313   4.380  1.00 25.06     0.033 A 
HETATM   14  C17   D T9001       1.496   0.989   3.923  1.00 28.28     0.087 A 
HETATM   15  C18   D T9001       0.544   0.622   2.942  1.00 25.55     0.151 A 
HETATM   16 CL     D T9001       2.605  -0.156   4.576  1.00 31.70    -0.080 Cl
HETATM   17  C19   D T9001      -0.354   1.588   2.420  1.00 24.70     0.032 A 
HETATM   18  F21   D T9001       0.473  -0.638   2.489  1.00 27.22    -0.203 F 
HETATM   19  C20   D T9001      -0.292   2.930   2.886  1.00 24.32     0.021 A 
ENDBRANCH  11  12
ENDBRANCH  10  11
BRANCH   1  20
HETATM   20  N13   D T9001       5.854   3.761   5.325  1.00 34.61    -0.210 NA
HETATM   21  C26   D T9001       5.845   2.408   4.947  1.00 36.24     0.256 C 
HETATM   22  O27   D T9001       5.202   1.921   4.016  1.00 39.97    -0.270 OA
BRANCH  21  23
HETATM   23  C24   D T9001       6.713   1.555   5.856  1.00 35.38     0.092 C 
BRANCH  23  24
HETATM   24  C23   D T9001       6.680   0.066   5.466  1.00 34.93     0.051 C 
BRANCH  24  25
HETATM   25  C25   D T9001       6.419  -0.777   6.719  1.00 37.23     0.339 C 
HETATM   26  N33   D T9001       5.118  -1.533   6.598  1.00 41.10     0.618 N 
ENDBRANCH  24  25
ENDBRANCH  23  24
ENDBRANCH  21  23
ENDBRANCH   1  20
BRANCH   2  27
HETATM   27  O11   D T9001       7.166   5.790   4.134  1.00 31.09    -0.327 OA
HETATM   28  C12   D T9001       7.960   6.849   3.595  1.00 29.66     0.181 C 
ENDBRANCH   2  27
TORSDOF 7
ENDMDL
MODEL 6
REMARK VINA RESULT:    -6.558      2.336      2.728
REMARK INTER + INTRA:         -10.119
REMARK INTER:                  -8.980
REMARK INTRA:                  -1.139
REMARK UNBOUND:                -0.878
REMARK  7 active torsions:
REMARK  status: ('A' for Active; 'I' for Inactive)
REMARK    1  A    between atoms: C1_1  and  N13_22 
REMARK    2  A    between atoms: C2_2  and  O11_20 
REMARK    3  A    between atoms: C10_10  and  N14_11 
REMARK    4  A    between atoms: N14_11  and  C15_12 
REMARK       I    between atoms: N13_22  and  C26_23 
REMARK    5  A    between atoms: C26_23  and  C24_24 
REMARK    6  A    between atoms: C24_24  and  C23_25 
REMARK    7  A    between atoms: C23_25  and  C25_26 
ROOT
HETATM    1  C1    D T9001       0.983   9.679   2.075  1.00 30.38     0.107 A 
HETATM    2  C2    D T9001       2.271  10.232   1.760  1.00 29.65     0.113 A 
HETATM    3  C3    D T9001       3.445   9.538   2.194  1.00 28.21     0.045 A 
HETATM    4  C4    D T9001       3.375   8.333   2.922  1.00 27.21     0.088 A 
HETATM    5  C5    D T9001       2.080   7.786   3.251  1.00 26.27     0.055 A 
HETATM    6  C6    D T9001       0.903   8.470   2.820  1.00 29.22     0.026 A 
HETATM    7  N7    D T9001       4.535   7.734   3.287  1.00 25.99    -0.224 NA
HETATM    8  C8    D T9001       4.435   6.584   3.986  1.00 24.59     0.200 A 
HETATM    9  N9    D T9001       3.287   5.980   4.361  1.00 25.70    -0.205 NA
HETATM   10  C10   D T9001       2.097   6.575   3.999  1.00 27.48     0.166 A 
ENDROOT
BRANCH  10  11
HETATM   11  N14   D T9001       0.862   5.963   4.384  1.00 23.22    -0.227 NA
BRANCH  11  12
HETATM   12  C15   D T9001       0.167   4.942   3.687  1.00 24.25     0.084 A 
HETATM   13  C16   D T9001       0.637   3.588   3.665  1.00 25.06     0.033 A 
HETATM   14  C17   D T9001      -0.056   2.589   2.965  1.00 28.28     0.087 A 
HETATM   15  C18   D T9001      -1.244   2.912   2.266  1.00 25.55     0.151 A 
HETATM   16 CL     D T9001       0.575   0.987   2.981  1.00 31.70    -0.080 Cl
HETATM   17  C19   D T9001      -1.737   4.242   2.269  1.00 24.70     0.032 A 
HETATM   18  F21   D T9001      -1.920   1.973   1.589  1.00 27.22    -0.203 F 
HETATM   19  C20   D T9001      -1.032   5.253   2.979  1.00 24.32     0.021 A 
ENDBRANCH  11  12
ENDBRANCH  10  11
BRANCH   1  20
HETATM   20  N13   D T9001      -0.169  10.368   1.602  1.00 34.61    -0.210 NA
HETATM   21  C26   D T9001      -0.778  11.391   2.348  1.00 36.24     0.256 C 
HETATM   22  O27   D T9001      -0.409  11.801   3.450  1.00 39.97    -0.270 OA
BRANCH  21  23
HETATM   23  C24   D T9001      -2.013  11.943   1.658  1.00 35.38     0.092 C 
BRANCH  23  24
HETATM   24  C23   D T9001      -2.661  10.917   0.712  1.00 34.93     0.051 C 
BRANCH  24  25
HETATM   25  C25   D T9001      -2.735  11.510  -0.700  1.00 37.23     0.339 C 
HETATM   26  N33   D T9001      -1.840  10.751  -1.650  1.00 41.10     0.618 N 
ENDBRANCH  24  25
ENDBRANCH  23  24
ENDBRANCH  21  23
ENDBRANCH   1  20
BRANCH   2  27
HETATM   27  O11   D T9001       2.244  11.423   1.040  1.00 31.09    -0.327 OA
HETATM   28  C12   D T9001       2.892  12.588   1.560  1.00 29.66     0.181 C 
ENDBRANCH   2  27
TORSDOF 7
ENDMDL
MODEL 7
REMARK VINA RESULT:    -6.466      4.956      8.058
REMARK INTER + INTRA:          -9.990
REMARK INTER:                  -8.888
REMARK INTRA:                  -1.102
REMARK UNBOUND:                -0.878
REMARK  7 active torsions:
REMARK  status: ('A' for Active; 'I' for Inactive)
REMARK    1  A    between atoms: C1_1  and  N13_22 
REMARK    2  A    between atoms: C2_2  and  O11_20 
REMARK    3  A    between atoms: C10_10  and  N14_11 
REMARK    4  A    between atoms: N14_11  and  C15_12 
REMARK       I    between atoms: N13_22  and  C26_23 
REMARK    5  A    between atoms: C26_23  and  C24_24 
REMARK    6  A    between atoms: C24_24  and  C23_25 
REMARK    7  A    between atoms: C23_25  and  C25_26 
ROOT
HETATM    1  C1    D T9001       2.081   5.597   3.838  1.00 30.38     0.107 A 
HETATM    2  C2    D T9001       0.654   5.661   3.983  1.00 29.65     0.113 A 
HETATM    3  C3    D T9001      -0.100   4.445   3.926  1.00 28.21     0.045 A 
HETATM    4  C4    D T9001       0.515   3.192   3.729  1.00 27.21     0.088 A 
HETATM    5  C5    D T9001       1.948   3.132   3.568  1.00 26.27     0.055 A 
HETATM    6  C6    D T9001       2.708   4.339   3.627  1.00 29.22     0.026 A 
HETATM    7  N7    D T9001      -0.272   2.088   3.697  1.00 25.99    -0.224 NA
HETATM    8  C8    D T9001       0.346   0.904   3.503  1.00 24.59     0.200 A 
HETATM    9  N9    D T9001       1.672   0.719   3.332  1.00 25.70    -0.205 NA
HETATM   10  C10   D T9001       2.488   1.831   3.361  1.00 27.48     0.166 A 
ENDROOT
BRANCH  10  11
HETATM   11  N14   D T9001       3.898   1.671   3.178  1.00 23.22    -0.227 NA
BRANCH  11  12
HETATM   12  C15   D T9001       4.847   1.310   4.168  1.00 24.25     0.084 A 
HETATM   13  C16   D T9001       4.854   0.009   4.770  1.00 25.06     0.033 A 
HETATM   14  C17   D T9001       5.794  -0.332   5.754  1.00 28.28     0.087 A 
HETATM   15  C18   D T9001       6.758   0.618   6.168  1.00 25.55     0.151 A 
HETATM   16 CL     D T9001       5.734  -1.913   6.433  1.00 31.70    -0.080 Cl
HETATM   17  C19   D T9001       6.780   1.914   5.592  1.00 24.70     0.032 A 
HETATM   18  F21   D T9001       7.664   0.313   7.109  1.00 27.22    -0.203 F 
HETATM   19  C20   D T9001       5.826   2.257   4.595  1.00 24.32     0.021 A 
ENDBRANCH  11  12
ENDBRANCH  10  11
BRANCH   1  20
HETATM   20  N13   D T9001       2.813   6.814   3.934  1.00 34.61    -0.210 NA
HETATM   21  C26   D T9001       3.210   7.532   2.793  1.00 36.24     0.256 C 
HETATM   22  O27   D T9001       2.983   7.215   1.624  1.00 39.97    -0.270 OA
BRANCH  21  23
HETATM   23  C24   D T9001       4.013   8.771   3.148  1.00 35.38     0.092 C 
BRANCH  23  24
HETATM   24  C23   D T9001       4.492   8.756   4.611  1.00 34.93     0.051 C 
BRANCH  24  25
HETATM   25  C25   D T9001       6.020   8.644   4.639  1.00 37.23     0.339 C 
HETATM   26  N33   D T9001       6.660   9.850   3.995  1.00 41.10     0.618 N 
ENDBRANCH  24  25
ENDBRANCH  23  24
ENDBRANCH  21  23
ENDBRANCH   1  20
BRANCH   2  27
HETATM   27  O11   D T9001       0.133   6.938   4.172  1.00 31.09    -0.327 OA
HETATM   28  C12   D T9001      -0.487   7.627   3.082  1.00 29.66     0.181 C 
ENDBRANCH   2  27
TORSDOF 7
ENDMDL
MODEL 8
REMARK VINA RESULT:    -6.451      5.696     10.415
REMARK INTER + INTRA:          -9.968
REMARK INTER:                  -9.159
REMARK INTRA:                  -0.809
REMARK UNBOUND:                -0.878
REMARK  7 active torsions:
REMARK  status: ('A' for Active; 'I' for Inactive)
REMARK    1  A    between atoms: C1_1  and  N13_22 
REMARK    2  A    between atoms: C2_2  and  O11_20 
REMARK    3  A    between atoms: C10_10  and  N14_11 
REMARK    4  A    between atoms: N14_11  and  C15_12 
REMARK       I    between atoms: N13_22  and  C26_23 
REMARK    5  A    between atoms: C26_23  and  C24_24 
REMARK    6  A    between atoms: C24_24  and  C23_25 
REMARK    7  A    between atoms: C23_25  and  C25_26 
ROOT
HETATM    1  C1    D T9001       3.742   1.942   4.028  1.00 30.38     0.107 A 
HETATM    2  C2    D T9001       3.201   0.639   4.299  1.00 29.65     0.113 A 
HETATM    3  C3    D T9001       1.845   0.366   3.933  1.00 28.21     0.045 A 
HETATM    4  C4    D T9001       1.026   1.336   3.320  1.00 27.21     0.088 A 
HETATM    5  C5    D T9001       1.566   2.649   3.062  1.00 26.27     0.055 A 
HETATM    6  C6    D T9001       2.919   2.930   3.421  1.00 29.22     0.026 A 
HETATM    7  N7    D T9001      -0.246   0.991   2.996  1.00 25.99    -0.224 NA
HETATM    8  C8    D T9001      -1.006   1.942   2.414  1.00 24.59     0.200 A 
HETATM    9  N9    D T9001      -0.620   3.205   2.131  1.00 25.70    -0.205 NA
HETATM   10  C10   D T9001       0.670   3.572   2.453  1.00 27.48     0.166 A 
ENDROOT
BRANCH  10  11
HETATM   11  N14   D T9001       1.110   4.904   2.170  1.00 23.22    -0.227 NA
BRANCH  11  12
HETATM   12  C15   D T9001       1.108   6.007   3.062  1.00 24.25     0.084 A 
HETATM   13  C16   D T9001       2.306   6.730   3.371  1.00 25.06     0.033 A 
HETATM   14  C17   D T9001       2.292   7.814   4.262  1.00 28.28     0.087 A 
HETATM   15  C18   D T9001       1.077   8.210   4.871  1.00 25.55     0.151 A 
HETATM   16 CL     D T9001       3.773   8.629   4.587  1.00 31.70    -0.080 Cl
HETATM   17  C19   D T9001      -0.127   7.517   4.585  1.00 24.70     0.032 A 
HETATM   18  F21   D T9001       1.042   9.242   5.727  1.00 27.22    -0.203 F 
HETATM   19  C20   D T9001      -0.109   6.418   3.683  1.00 24.32     0.021 A 
ENDBRANCH  11  12
ENDBRANCH  10  11
BRANCH   1  20
HETATM   20  N13   D T9001       5.103   2.179   4.368  1.00 34.61    -0.210 NA
HETATM   21  C26   D T9001       5.506   3.342   5.045  1.00 36.24     0.256 C 
HETATM   22  O27   D T9001       4.767   4.257   5.415  1.00 39.97    -0.270 OA
BRANCH  21  23
HETATM   23  C24   D T9001       7.010   3.389   5.257  1.00 35.38     0.092 C 
BRANCH  23  24
HETATM   24  C23   D T9001       7.631   1.983   5.338  1.00 34.93     0.051 C 
BRANCH  24  25
HETATM   25  C25   D T9001       8.577   1.782   4.148  1.00 37.23     0.339 C 
HETATM   26  N33   D T9001       8.167   0.581   3.332  1.00 41.10     0.618 N 
ENDBRANCH  24  25
ENDBRANCH  23  24
ENDBRANCH  21  23
ENDBRANCH   1  20
BRANCH   2  27
HETATM   27  O11   D T9001       4.080  -0.253   4.907  1.00 31.09    -0.327 OA
HETATM   28  C12   D T9001       3.571  -1.382   5.622  1.00 29.66     0.181 C 
ENDBRANCH   2  27
TORSDOF 7
ENDMDL
MODEL 9
REMARK VINA RESULT:    -6.445      6.486     10.701
REMARK INTER + INTRA:          -9.960
REMARK INTER:                  -8.971
REMARK INTRA:                  -0.990
REMARK UNBOUND:                -0.878
REMARK  7 active torsions:
REMARK  status: ('A' for Active; 'I' for Inactive)
REMARK    1  A    between atoms: C1_1  and  N13_22 
REMARK    2  A    between atoms: C2_2  and  O11_20 
REMARK    3  A    between atoms: C10_10  and  N14_11 
REMARK    4  A    between atoms: N14_11  and  C15_12 
REMARK       I    between atoms: N13_22  and  C26_23 
REMARK    5  A    between atoms: C26_23  and  C24_24 
REMARK    6  A    between atoms: C24_24  and  C23_25 
REMARK    7  A    between atoms: C23_25  and  C25_26 
ROOT
HETATM    1  C1    D T9001       2.125   1.228   4.214  1.00 30.38     0.107 A 
HETATM    2  C2    D T9001       1.187   0.334   3.594  1.00 29.65     0.113 A 
HETATM    3  C3    D T9001       0.037   0.885   2.943  1.00 28.21     0.045 A 
HETATM    4  C4    D T9001      -0.204   2.273   2.898  1.00 27.21     0.088 A 
HETATM    5  C5    D T9001       0.731   3.168   3.535  1.00 26.27     0.055 A 
HETATM    6  C6    D T9001       1.883   2.629   4.183  1.00 29.22     0.026 A 
HETATM    7  N7    D T9001      -1.313   2.712   2.253  1.00 25.99    -0.224 NA
HETATM    8  C8    D T9001      -1.518   4.045   2.229  1.00 24.59     0.200 A 
HETATM    9  N9    D T9001      -0.724   4.981   2.794  1.00 25.70    -0.205 NA
HETATM   10  C10   D T9001       0.409   4.552   3.454  1.00 27.48     0.166 A 
ENDROOT
BRANCH  10  11
HETATM   11  N14   D T9001       1.269   5.517   4.067  1.00 23.22    -0.227 NA
BRANCH  11  12
HETATM   12  C15   D T9001       2.567   5.893   3.636  1.00 24.25     0.084 A 
HETATM   13  C16   D T9001       2.962   5.804   2.261  1.00 25.06     0.033 A 
HETATM   14  C17   D T9001       4.252   6.171   1.850  1.00 28.28     0.087 A 
HETATM   15  C18   D T9001       5.189   6.640   2.801  1.00 25.55     0.151 A 
HETATM   16 CL     D T9001       4.653   6.030   0.181  1.00 31.70    -0.080 Cl
HETATM   17  C19   D T9001       4.830   6.742   4.169  1.00 24.70     0.032 A 
HETATM   18  F21   D T9001       6.428   6.994   2.429  1.00 27.22    -0.203 F 
HETATM   19  C20   D T9001       3.522   6.368   4.584  1.00 24.32     0.021 A 
ENDBRANCH  11  12
ENDBRANCH  10  11
BRANCH   1  20
HETATM   20  N13   D T9001       3.279   0.660   4.823  1.00 34.61    -0.210 NA
HETATM   21  C26   D T9001       4.549   0.748   4.227  1.00 36.24     0.256 C 
HETATM   22  O27   D T9001       4.810   1.302   3.158  1.00 39.97    -0.270 OA
BRANCH  21  23
HETATM   23  C24   D T9001       5.613   0.031   5.041  1.00 35.38     0.092 C 
BRANCH  23  24
HETATM   24  C23   D T9001       5.004  -0.934   6.074  1.00 34.93     0.051 C 
BRANCH  24  25
HETATM   25  C25   D T9001       5.839  -2.220   6.113  1.00 37.23     0.339 C 
HETATM   26  N33   D T9001       7.028  -2.061   7.028  1.00 41.10     0.618 N 
ENDBRANCH  24  25
ENDBRANCH  23  24
ENDBRANCH  21  23
ENDBRANCH   1  20
BRANCH   2  27
HETATM   27  O11   D T9001       1.504  -1.017   3.689  1.00 31.09    -0.327 OA
HETATM   28  C12   D T9001       0.543  -2.006   3.309  1.00 29.66     0.181 C 
ENDBRANCH   2  27
TORSDOF 7
ENDMDL
