MODEL 1
REMARK VINA RESULT:    -8.608      0.000      0.000
REMARK INTER + INTRA:         -13.092
REMARK INTER:                 -12.131
REMARK INTRA:                  -0.961
REMARK UNBOUND:                -0.961
REMARK  7 active torsions:
REMARK  status: ('A' for Active; 'I' for Inactive)
REMARK    1  A    between atoms: C1_1  and  N13_22 
REMARK    2  A    between atoms: C2_2  and  O11_20 
REMARK    3  A    between atoms: C10_10  and  N14_11 
REMARK    4  A    between atoms: N14_11  and  C15_12 
REMARK       I    between atoms: N13_22  and  C26_23 
REMARK    5  A    between atoms: C26_23  and  C24_24 
REMARK    6  A    between atoms: C24_24  and  C23_25 
REMARK    7  A    between atoms: C23_25  and  C25_26 
ROOT
HETATM    1  C1    D T9001      -0.513  -2.930  11.908  1.00 30.38     0.107 A 
HETATM    2  C2    D T9001       0.466  -3.905  11.519  1.00 29.65     0.113 A 
HETATM    3  C3    D T9001       0.028  -5.102  10.867  1.00 28.21     0.045 A 
HETATM    4  C4    D T9001      -1.334  -5.351  10.600  1.00 27.21     0.088 A 
HETATM    5  C5    D T9001      -2.318  -4.377  11.005  1.00 26.27     0.055 A 
HETATM    6  C6    D T9001      -1.889  -3.179  11.653  1.00 29.22     0.026 A 
HETATM    7  N7    D T9001      -1.664  -6.505   9.970  1.00 25.99    -0.224 NA
HETATM    8  C8    D T9001      -2.975  -6.716   9.731  1.00 24.59     0.200 A 
HETATM    9  N9    D T9001      -3.987  -5.889  10.068  1.00 25.70    -0.205 NA
HETATM   10  C10   D T9001      -3.669  -4.710  10.710  1.00 27.48     0.166 A 
ENDROOT
BRANCH  10  11
HETATM   11  N14   D T9001      -4.719  -3.812  11.085  1.00 23.22    -0.227 NA
BRANCH  11  12
HETATM   12  C15   D T9001      -5.040  -2.576  10.468  1.00 24.25     0.084 A 
HETATM   13  C16   D T9001      -4.879  -1.327  11.149  1.00 25.06     0.033 A 
HETATM   14  C17   D T9001      -5.208  -0.113  10.528  1.00 28.28     0.087 A 
HETATM   15  C18   D T9001      -5.710  -0.109   9.205  1.00 25.55     0.151 A 
HETATM   16 CL     D T9001      -4.992   1.348  11.416  1.00 31.70    -0.080 Cl
HETATM   17  C19   D T9001      -5.880  -1.328   8.501  1.00 24.70     0.032 A 
HETATM   18  F21   D T9001      -6.033   1.041   8.595  1.00 27.22    -0.203 F 
HETATM   19  C20   D T9001      -5.545  -2.558   9.133  1.00 24.32     0.021 A 
ENDBRANCH  11  12
ENDBRANCH  10  11
BRANCH   1  20
HETATM   20  N13   D T9001      -0.049  -1.733  12.523  1.00 34.61    -0.210 NA
HETATM   21  C26   D T9001       0.138  -0.549  11.788  1.00 36.24     0.256 C 
HETATM   22  O27   D T9001      -0.069  -0.405  10.582  1.00 39.97    -0.270 OA
BRANCH  21  23
HETATM   23  C24   D T9001       0.680   0.580  12.651  1.00 35.38     0.092 C 
BRANCH  23  24
HETATM   24  C23   D T9001      -0.087   1.896  12.438  1.00 34.93     0.051 C 
BRANCH  24  25
HETATM   25  C25   D T9001       0.263   2.871  13.567  1.00 37.23     0.339 C 
HETATM   26  N33   D T9001       1.032   4.056  13.036  1.00 41.10     0.618 N 
ENDBRANCH  24  25
ENDBRANCH  23  24
ENDBRANCH  21  23
ENDBRANCH   1  20
BRANCH   2  27
HETATM   27  O11   D T9001       1.784  -3.576  11.824  1.00 31.09    -0.327 OA
HETATM   28  C12   D T9001       2.505  -4.338  12.797  1.00 29.66     0.181 C 
ENDBRANCH   2  27
TORSDOF 7
ENDMDL
MODEL 2
REMARK VINA RESULT:    -8.514      3.817      6.054
REMARK INTER + INTRA:         -12.958
REMARK INTER:                 -12.101
REMARK INTRA:                  -0.857
REMARK UNBOUND:                -0.961
REMARK  7 active torsions:
REMARK  status: ('A' for Active; 'I' for Inactive)
REMARK    1  A    between atoms: C1_1  and  N13_22 
REMARK    2  A    between atoms: C2_2  and  O11_20 
REMARK    3  A    between atoms: C10_10  and  N14_11 
REMARK    4  A    between atoms: N14_11  and  C15_12 
REMARK       I    between atoms: N13_22  and  C26_23 
REMARK    5  A    between atoms: C26_23  and  C24_24 
REMARK    6  A    between atoms: C24_24  and  C23_25 
REMARK    7  A    between atoms: C23_25  and  C25_26 
ROOT
HETATM    1  C1    D T9001      -3.862   0.048  10.462  1.00 30.38     0.107 A 
HETATM    2  C2    D T9001      -4.980   0.485   9.674  1.00 29.65     0.113 A 
HETATM    3  C3    D T9001      -5.895  -0.494   9.171  1.00 28.21     0.045 A 
HETATM    4  C4    D T9001      -5.728  -1.872   9.422  1.00 27.21     0.088 A 
HETATM    5  C5    D T9001      -4.596  -2.311  10.201  1.00 26.27     0.055 A 
HETATM    6  C6    D T9001      -3.680  -1.340  10.710  1.00 29.22     0.026 A 
HETATM    7  N7    D T9001      -6.646  -2.731   8.917  1.00 25.99    -0.224 NA
HETATM    8  C8    D T9001      -6.458  -4.043   9.172  1.00 24.59     0.200 A 
HETATM    9  N9    D T9001      -5.437  -4.577   9.877  1.00 25.70    -0.205 NA
HETATM   10  C10   D T9001      -4.495  -3.716  10.399  1.00 27.48     0.166 A 
ENDROOT
BRANCH  10  11
HETATM   11  N14   D T9001      -3.398  -4.249  11.147  1.00 23.22    -0.227 NA
BRANCH  11  12
HETATM   12  C15   D T9001      -2.890  -5.572  11.084  1.00 24.25     0.084 A 
HETATM   13  C16   D T9001      -3.385  -6.612  11.936  1.00 25.06     0.033 A 
HETATM   14  C17   D T9001      -2.868  -7.914  11.867  1.00 28.28     0.087 A 
HETATM   15  C18   D T9001      -1.839  -8.219  10.944  1.00 25.55     0.151 A 
HETATM   16 CL     D T9001      -3.510  -9.109  12.929  1.00 31.70    -0.080 Cl
HETATM   17  C19   D T9001      -1.328  -7.213  10.086  1.00 24.70     0.032 A 
HETATM   18  F21   D T9001      -1.329  -9.457  10.865  1.00 27.22    -0.203 F 
HETATM   19  C20   D T9001      -1.854  -5.893  10.156  1.00 24.32     0.021 A 
ENDBRANCH  11  12
ENDBRANCH  10  11
BRANCH   1  20
HETATM   20  N13   D T9001      -2.986   1.043  10.981  1.00 34.61    -0.210 NA
HETATM   21  C26   D T9001      -1.742   1.317  10.386  1.00 36.24     0.256 C 
HETATM   22  O27   D T9001      -1.279   0.759   9.389  1.00 39.97    -0.270 OA
BRANCH  21  23
HETATM   23  C24   D T9001      -0.970   2.386  11.142  1.00 35.38     0.092 C 
BRANCH  23  24
HETATM   24  C23   D T9001      -0.080   1.790  12.246  1.00 34.93     0.051 C 
BRANCH  24  25
HETATM   25  C25   D T9001      -0.187   2.661  13.503  1.00 37.23     0.339 C 
HETATM   26  N33   D T9001       0.770   3.826  13.433  1.00 41.10     0.618 N 
ENDBRANCH  24  25
ENDBRANCH  23  24
ENDBRANCH  21  23
ENDBRANCH   1  20
BRANCH   2  27
HETATM   27  O11   D T9001      -5.064   1.861   9.476  1.00 31.09    -0.327 OA
HETATM   28  C12   D T9001      -4.825   2.412   8.178  1.00 29.66     0.181 C 
ENDBRANCH   2  27
TORSDOF 7
ENDMDL
MODEL 3
REMARK VINA RESULT:    -8.389      3.408      5.574
REMARK INTER + INTRA:         -12.782
REMARK INTER:                 -11.715
REMARK INTRA:                  -1.067
REMARK UNBOUND:                -0.961
REMARK  7 active torsions:
REMARK  status: ('A' for Active; 'I' for Inactive)
REMARK    1  A    between atoms: C1_1  and  N13_22 
REMARK    2  A    between atoms: C2_2  and  O11_20 
REMARK    3  A    between atoms: C10_10  and  N14_11 
REMARK    4  A    between atoms: N14_11  and  C15_12 
REMARK       I    between atoms: N13_22  and  C26_23 
REMARK    5  A    between atoms: C26_23  and  C24_24 
REMARK    6  A    between atoms: C24_24  and  C23_25 
REMARK    7  A    between atoms: C23_25  and  C25_26 
ROOT
HETATM    1  C1    D T9001      -1.403   1.297  11.000  1.00 30.38     0.107 A 
HETATM    2  C2    D T9001      -1.017   2.394  10.156  1.00 29.65     0.113 A 
HETATM    3  C3    D T9001      -1.966   2.907   9.215  1.00 28.21     0.045 A 
HETATM    4  C4    D T9001      -3.263   2.366   9.090  1.00 27.21     0.088 A 
HETATM    5  C5    D T9001      -3.643   1.255   9.928  1.00 26.27     0.055 A 
HETATM    6  C6    D T9001      -2.704   0.739  10.872  1.00 29.22     0.026 A 
HETATM    7  N7    D T9001      -4.102   2.917   8.180  1.00 25.99    -0.224 NA
HETATM    8  C8    D T9001      -5.335   2.376   8.082  1.00 24.59     0.200 A 
HETATM    9  N9    D T9001      -5.804   1.334   8.800  1.00 25.70    -0.205 NA
HETATM   10  C10   D T9001      -4.962   0.761   9.731  1.00 27.48     0.166 A 
ENDROOT
BRANCH  10  11
HETATM   11  N14   D T9001      -5.427  -0.348  10.506  1.00 23.22    -0.227 NA
BRANCH  11  12
HETATM   12  C15   D T9001      -5.273  -1.724  10.197  1.00 24.25     0.084 A 
HETATM   13  C16   D T9001      -4.342  -2.557  10.897  1.00 25.06     0.033 A 
HETATM   14  C17   D T9001      -4.196  -3.914  10.575  1.00 28.28     0.087 A 
HETATM   15  C18   D T9001      -4.977  -4.483   9.540  1.00 25.55     0.151 A 
HETATM   16 CL     D T9001      -3.050  -4.849  11.458  1.00 31.70    -0.080 Cl
HETATM   17  C19   D T9001      -5.909  -3.687   8.828  1.00 24.70     0.032 A 
HETATM   18  F21   D T9001      -4.850  -5.778   9.214  1.00 27.22    -0.203 F 
HETATM   19  C20   D T9001      -6.056  -2.310   9.157  1.00 24.32     0.021 A 
ENDBRANCH  11  12
ENDBRANCH  10  11
BRANCH   1  20
HETATM   20  N13   D T9001      -0.454   0.828  11.952  1.00 34.61    -0.210 NA
HETATM   21  C26   D T9001       0.283  -0.350  11.743  1.00 36.24     0.256 C 
HETATM   22  O27   D T9001       0.207  -1.085  10.757  1.00 39.97    -0.270 OA
BRANCH  21  23
HETATM   23  C24   D T9001       1.197  -0.668  12.915  1.00 35.38     0.092 C 
BRANCH  23  24
HETATM   24  C23   D T9001       2.671  -0.784  12.490  1.00 34.93     0.051 C 
BRANCH  24  25
HETATM   25  C25   D T9001       3.119   0.541  11.861  1.00 37.23     0.339 C 
HETATM   26  N33   D T9001       4.624   0.650  11.852  1.00 41.10     0.618 N 
ENDBRANCH  24  25
ENDBRANCH  23  24
ENDBRANCH  21  23
ENDBRANCH   1  20
BRANCH   2  27
HETATM   27  O11   D T9001       0.279   2.862  10.347  1.00 31.09    -0.327 OA
HETATM   28  C12   D T9001       0.497   4.195  10.816  1.00 29.66     0.181 C 
ENDBRANCH   2  27
TORSDOF 7
ENDMDL
MODEL 4
REMARK VINA RESULT:    -8.129      3.630      7.236
REMARK INTER + INTRA:         -12.416
REMARK INTER:                 -11.633
REMARK INTRA:                  -0.783
REMARK UNBOUND:                -0.961
REMARK  7 active torsions:
REMARK  status: ('A' for Active; 'I' for Inactive)
REMARK    1  A    between atoms: C1_1  and  N13_22 
REMARK    2  A    between atoms: C2_2  and  O11_20 
REMARK    3  A    between atoms: C10_10  and  N14_11 
REMARK    4  A    between atoms: N14_11  and  C15_12 
REMARK       I    between atoms: N13_22  and  C26_23 
REMARK    5  A    between atoms: C26_23  and  C24_24 
REMARK    6  A    between atoms: C24_24  and  C23_25 
REMARK    7  A    between atoms: C23_25  and  C25_26 
ROOT
HETATM    1  C1    D T9001      -3.907  -1.843  10.625  1.00 30.38     0.107 A 
HETATM    2  C2    D T9001      -4.980  -2.157   9.723  1.00 29.65     0.113 A 
HETATM    3  C3    D T9001      -5.497  -1.124   8.878  1.00 28.21     0.045 A 
HETATM    4  C4    D T9001      -4.988   0.191   8.910  1.00 27.21     0.088 A 
HETATM    5  C5    D T9001      -3.921   0.509   9.827  1.00 26.27     0.055 A 
HETATM    6  C6    D T9001      -3.396  -0.517  10.671  1.00 29.22     0.026 A 
HETATM    7  N7    D T9001      -5.528   1.108   8.070  1.00 25.99    -0.224 NA
HETATM    8  C8    D T9001      -5.022   2.358   8.125  1.00 24.59     0.200 A 
HETATM    9  N9    D T9001      -4.034   2.779   8.944  1.00 25.70    -0.205 NA
HETATM   10  C10   D T9001      -3.473   1.859   9.804  1.00 27.48     0.166 A 
ENDROOT
BRANCH  10  11
HETATM   11  N14   D T9001      -2.428   2.274  10.689  1.00 23.22    -0.227 NA
BRANCH  11  12
HETATM   12  C15   D T9001      -1.032   2.203  10.445  1.00 24.25     0.084 A 
HETATM   13  C16   D T9001      -0.093   2.983  11.196  1.00 25.06     0.033 A 
HETATM   14  C17   D T9001       1.283   2.908  10.939  1.00 28.28     0.087 A 
HETATM   15  C18   D T9001       1.767   2.050   9.921  1.00 25.55     0.151 A 
HETATM   16 CL     D T9001       2.348   3.882  11.880  1.00 31.70    -0.080 Cl
HETATM   17  C19   D T9001       0.865   1.264   9.161  1.00 24.70     0.032 A 
HETATM   18  F21   D T9001       3.079   1.966   9.658  1.00 27.22    -0.203 F 
HETATM   19  C20   D T9001      -0.531   1.341   9.424  1.00 24.32     0.021 A 
ENDBRANCH  11  12
ENDBRANCH  10  11
BRANCH   1  20
HETATM   20  N13   D T9001      -3.386  -2.896  11.429  1.00 34.61    -0.210 NA
HETATM   21  C26   D T9001      -2.025  -3.244  11.400  1.00 36.24     0.256 C 
HETATM   22  O27   D T9001      -1.155  -2.706  10.713  1.00 39.97    -0.270 OA
BRANCH  21  23
HETATM   23  C24   D T9001      -1.717  -4.424  12.308  1.00 35.38     0.092 C 
BRANCH  23  24
HETATM   24  C23   D T9001      -2.378  -5.724  11.819  1.00 34.93     0.051 C 
BRANCH  24  25
HETATM   25  C25   D T9001      -1.838  -6.070  10.427  1.00 37.23     0.339 C 
HETATM   26  N33   D T9001      -2.846  -6.872   9.642  1.00 41.10     0.618 N 
ENDBRANCH  24  25
ENDBRANCH  23  24
ENDBRANCH  21  23
ENDBRANCH   1  20
BRANCH   2  27
HETATM   27  O11   D T9001      -5.419  -3.478   9.762  1.00 31.09    -0.327 OA
HETATM   28  C12   D T9001      -6.626  -3.850   9.089  1.00 29.66     0.181 C 
ENDBRANCH   2  27
TORSDOF 7
ENDMDL
MODEL 5
REMARK VINA RESULT:    -8.071      2.969      5.756
REMARK INTER + INTRA:         -12.334
REMARK INTER:                 -11.444
REMARK INTRA:                  -0.890
REMARK UNBOUND:                -0.961
REMARK  7 active torsions:
REMARK  status: ('A' for Active; 'I' for Inactive)
REMARK    1  A    between atoms: C1_1  and  N13_22 
REMARK    2  A    between atoms: C2_2  and  O11_20 
REMARK    3  A    between atoms: C10_10  and  N14_11 
REMARK    4  A    between atoms: N14_11  and  C15_12 
REMARK       I    between atoms: N13_22  and  C26_23 
REMARK    5  A    between atoms: C26_23  and  C24_24 
REMARK    6  A    between atoms: C24_24  and  C23_25 
REMARK    7  A    between atoms: C23_25  and  C25_26 
ROOT
HETATM    1  C1    D T9001       0.312  -3.321  10.855  1.00 30.38     0.107 A 
HETATM    2  C2    D T9001       1.551  -2.912  10.255  1.00 29.65     0.113 A 
HETATM    3  C3    D T9001       1.646  -1.599   9.695  1.00 28.21     0.045 A 
HETATM    4  C4    D T9001       0.560  -0.699   9.710  1.00 27.21     0.088 A 
HETATM    5  C5    D T9001      -0.689  -1.117  10.299  1.00 26.27     0.055 A 
HETATM    6  C6    D T9001      -0.792  -2.425  10.864  1.00 29.22     0.026 A 
HETATM    7  N7    D T9001       0.737   0.529   9.165  1.00 25.99    -0.224 NA
HETATM    8  C8    D T9001      -0.322   1.367   9.192  1.00 24.59     0.200 A 
HETATM    9  N9    D T9001      -1.539   1.090   9.704  1.00 25.70    -0.205 NA
HETATM   10  C10   D T9001      -1.737  -0.155  10.263  1.00 27.48     0.166 A 
ENDROOT
BRANCH  10  11
HETATM   11  N14   D T9001      -3.018  -0.482  10.811  1.00 23.22    -0.227 NA
BRANCH  11  12
HETATM   12  C15   D T9001      -3.976  -1.370  10.257  1.00 24.25     0.084 A 
HETATM   13  C16   D T9001      -4.062  -2.740  10.666  1.00 25.06     0.033 A 
HETATM   14  C17   D T9001      -5.010  -3.607  10.104  1.00 28.28     0.087 A 
HETATM   15  C18   D T9001      -5.905  -3.132   9.115  1.00 25.55     0.151 A 
HETATM   16 CL     D T9001      -5.046  -5.243  10.643  1.00 31.70    -0.080 Cl
HETATM   17  C19   D T9001      -5.848  -1.781   8.690  1.00 24.70     0.032 A 
HETATM   18  F21   D T9001      -6.817  -3.947   8.564  1.00 27.22    -0.203 F 
HETATM   19  C20   D T9001      -4.885  -0.903   9.261  1.00 24.32     0.021 A 
ENDBRANCH  11  12
ENDBRANCH  10  11
BRANCH   1  20
HETATM   20  N13   D T9001       0.253  -4.619  11.438  1.00 34.61    -0.210 NA
HETATM   21  C26   D T9001      -0.608  -5.613  10.943  1.00 36.24     0.256 C 
HETATM   22  O27   D T9001      -1.379  -5.494   9.989  1.00 39.97    -0.270 OA
BRANCH  21  23
HETATM   23  C24   D T9001      -0.525  -6.897  11.754  1.00 35.38     0.092 C 
BRANCH  23  24
HETATM   24  C23   D T9001      -1.811  -7.166  12.553  1.00 34.93     0.051 C 
BRANCH  24  25
HETATM   25  C25   D T9001      -2.649  -8.218  11.818  1.00 37.23     0.339 C 
HETATM   26  N33   D T9001      -3.962  -8.450  12.525  1.00 41.10     0.618 N 
ENDBRANCH  24  25
ENDBRANCH  23  24
ENDBRANCH  21  23
ENDBRANCH   1  20
BRANCH   2  27
HETATM   27  O11   D T9001       2.566  -3.864  10.284  1.00 31.09    -0.327 OA
HETATM   28  C12   D T9001       3.161  -4.312   9.063  1.00 29.66     0.181 C 
ENDBRANCH   2  27
TORSDOF 7
ENDMDL
MODEL 6
REMARK VINA RESULT:    -8.024      2.863      5.911
REMARK INTER + INTRA:         -12.268
REMARK INTER:                 -11.312
REMARK INTRA:                  -0.956
REMARK UNBOUND:                -0.961
REMARK  7 active torsions:
REMARK  status: ('A' for Active; 'I' for Inactive)
REMARK    1  A    between atoms: C1_1  and  N13_22 
REMARK    2  A    between atoms: C2_2  and  O11_20 
REMARK    3  A    between atoms: C10_10  and  N14_11 
REMARK    4  A    between atoms: N14_11  and  C15_12 
REMARK       I    between atoms: N13_22  and  C26_23 
REMARK    5  A    between atoms: C26_23  and  C24_24 
REMARK    6  A    between atoms: C24_24  and  C23_25 
REMARK    7  A    between atoms: C23_25  and  C25_26 
ROOT
HETATM    1  C1    D T9001      -1.407  -5.718  11.940  1.00 30.38     0.107 A 
HETATM    2  C2    D T9001      -0.048  -5.993  11.564  1.00 29.65     0.113 A 
HETATM    3  C3    D T9001       0.744  -4.936  11.014  1.00 28.21     0.045 A 
HETATM    4  C4    D T9001       0.230  -3.636  10.827  1.00 27.21     0.088 A 
HETATM    5  C5    D T9001      -1.140  -3.364  11.191  1.00 26.27     0.055 A 
HETATM    6  C6    D T9001      -1.937  -4.413  11.744  1.00 29.22     0.026 A 
HETATM    7  N7    D T9001       1.050  -2.690  10.308  1.00 25.99    -0.224 NA
HETATM    8  C8    D T9001       0.528  -1.457  10.139  1.00 24.59     0.200 A 
HETATM    9  N9    D T9001      -0.735  -1.082  10.431  1.00 25.70    -0.205 NA
HETATM   10  C10   D T9001      -1.584  -2.033  10.960  1.00 27.48     0.166 A 
ENDROOT
BRANCH  10  11
HETATM   11  N14   D T9001      -2.931  -1.670  11.276  1.00 23.22    -0.227 NA
BRANCH  11  12
HETATM   12  C15   D T9001      -3.817  -0.909  10.471  1.00 24.25     0.084 A 
HETATM   13  C16   D T9001      -3.780   0.523  10.454  1.00 25.06     0.033 A 
HETATM   14  C17   D T9001      -4.668   1.263   9.658  1.00 28.28     0.087 A 
HETATM   15  C18   D T9001      -5.621   0.594   8.853  1.00 25.55     0.151 A 
HETATM   16 CL     D T9001      -4.566   2.982   9.697  1.00 31.70    -0.080 Cl
HETATM   17  C19   D T9001      -5.683  -0.822   8.846  1.00 24.70     0.032 A 
HETATM   18  F21   D T9001      -6.480   1.283   8.088  1.00 27.22    -0.203 F 
HETATM   19  C20   D T9001      -4.781  -1.571   9.654  1.00 24.32     0.021 A 
ENDBRANCH  11  12
ENDBRANCH  10  11
BRANCH   1  20
HETATM   20  N13   D T9001      -2.163  -6.776  12.518  1.00 34.61    -0.210 NA
HETATM   21  C26   D T9001      -2.948  -7.638  11.733  1.00 36.24     0.256 C 
HETATM   22  O27   D T9001      -3.071  -7.590  10.507  1.00 39.97    -0.270 OA
BRANCH  21  23
HETATM   23  C24   D T9001      -3.695  -8.658  12.577  1.00 35.38     0.092 C 
BRANCH  23  24
HETATM   24  C23   D T9001      -2.796  -9.300  13.646  1.00 34.93     0.051 C 
BRANCH  24  25
HETATM   25  C25   D T9001      -2.228 -10.616  13.102  1.00 37.23     0.339 C 
HETATM   26  N33   D T9001      -0.781 -10.455  12.706  1.00 41.10     0.618 N 
ENDBRANCH  24  25
ENDBRANCH  23  24
ENDBRANCH  21  23
ENDBRANCH   1  20
BRANCH   2  27
HETATM   27  O11   D T9001       0.373  -7.302  11.782  1.00 31.09    -0.327 OA
HETATM   28  C12   D T9001       1.572  -7.554  12.521  1.00 29.66     0.181 C 
ENDBRANCH   2  27
TORSDOF 7
ENDMDL
MODEL 7
REMARK VINA RESULT:    -7.956      2.790      4.518
REMARK INTER + INTRA:         -12.172
REMARK INTER:                 -11.226
REMARK INTRA:                  -0.947
REMARK UNBOUND:                -0.961
REMARK  7 active torsions:
REMARK  status: ('A' for Active; 'I' for Inactive)
REMARK    1  A    between atoms: C1_1  and  N13_22 
REMARK    2  A    between atoms: C2_2  and  O11_20 
REMARK    3  A    between atoms: C10_10  and  N14_11 
REMARK    4  A    between atoms: N14_11  and  C15_12 
REMARK       I    between atoms: N13_22  and  C26_23 
REMARK    5  A    between atoms: C26_23  and  C24_24 
REMARK    6  A    between atoms: C24_24  and  C23_25 
REMARK    7  A    between atoms: C23_25  and  C25_26 
ROOT
HETATM    1  C1    D T9001      -2.168  -4.033  11.386  1.00 30.38     0.107 A 
HETATM    2  C2    D T9001      -2.557  -5.273  10.774  1.00 29.65     0.113 A 
HETATM    3  C3    D T9001      -3.813  -5.341  10.091  1.00 28.21     0.045 A 
HETATM    4  C4    D T9001      -4.678  -4.231  10.004  1.00 27.21     0.088 A 
HETATM    5  C5    D T9001      -4.293  -2.990  10.632  1.00 26.27     0.055 A 
HETATM    6  C6    D T9001      -3.040  -2.912  11.313  1.00 29.22     0.026 A 
HETATM    7  N7    D T9001      -5.845  -4.378   9.330  1.00 25.99    -0.224 NA
HETATM    8  C8    D T9001      -6.653  -3.298   9.267  1.00 24.59     0.200 A 
HETATM    9  N9    D T9001      -6.409  -2.091   9.819  1.00 25.70    -0.205 NA
HETATM   10  C10   D T9001      -5.226  -1.924  10.508  1.00 27.48     0.166 A 
ENDROOT
BRANCH  10  11
HETATM   11  N14   D T9001      -4.939  -0.658  11.110  1.00 23.22    -0.227 NA
BRANCH  11  12
HETATM   12  C15   D T9001      -4.391   0.483  10.468  1.00 24.25     0.084 A 
HETATM   13  C16   D T9001      -5.075   1.150   9.401  1.00 25.06     0.033 A 
HETATM   14  C17   D T9001      -4.518   2.273   8.770  1.00 28.28     0.087 A 
HETATM   15  C18   D T9001      -3.257   2.764   9.187  1.00 25.55     0.151 A 
HETATM   16 CL     D T9001      -5.399   3.016   7.491  1.00 31.70    -0.080 Cl
HETATM   17  C19   D T9001      -2.555   2.128  10.241  1.00 24.70     0.032 A 
HETATM   18  F21   D T9001      -2.706   3.834   8.595  1.00 27.22    -0.203 F 
HETATM   19  C20   D T9001      -3.122   0.990  10.880  1.00 24.32     0.021 A 
ENDBRANCH  11  12
ENDBRANCH  10  11
BRANCH   1  20
HETATM   20  N13   D T9001      -0.899  -3.980  12.029  1.00 34.61    -0.210 NA
HETATM   21  C26   D T9001       0.217  -3.385  11.415  1.00 36.24     0.256 C 
HETATM   22  O27   D T9001       0.234  -2.858  10.301  1.00 39.97    -0.270 OA
BRANCH  21  23
HETATM   23  C24   D T9001       1.465  -3.489  12.276  1.00 35.38     0.092 C 
BRANCH  23  24
HETATM   24  C23   D T9001       2.753  -3.512  11.434  1.00 34.93     0.051 C 
BRANCH  24  25
HETATM   25  C25   D T9001       2.842  -4.849  10.689  1.00 37.23     0.339 C 
HETATM   26  N33   D T9001       3.755  -4.737   9.492  1.00 41.10     0.618 N 
ENDBRANCH  24  25
ENDBRANCH  23  24
ENDBRANCH  21  23
ENDBRANCH   1  20
BRANCH   2  27
HETATM   27  O11   D T9001      -1.643  -6.314  10.911  1.00 31.09    -0.327 OA
HETATM   28  C12   D T9001      -1.998  -7.636  10.496  1.00 29.66     0.181 C 
ENDBRANCH   2  27
TORSDOF 7
ENDMDL
MODEL 8
REMARK VINA RESULT:    -7.902      3.266      5.712
REMARK INTER + INTRA:         -12.096
REMARK INTER:                 -11.132
REMARK INTRA:                  -0.965
REMARK UNBOUND:                -0.961
REMARK  7 active torsions:
REMARK  status: ('A' for Active; 'I' for Inactive)
REMARK    1  A    between atoms: C1_1  and  N13_22 
REMARK    2  A    between atoms: C2_2  and  O11_20 
REMARK    3  A    between atoms: C10_10  and  N14_11 
REMARK    4  A    between atoms: N14_11  and  C15_12 
REMARK       I    between atoms: N13_22  and  C26_23 
REMARK    5  A    between atoms: C26_23  and  C24_24 
REMARK    6  A    between atoms: C24_24  and  C23_25 
REMARK    7  A    between atoms: C23_25  and  C25_26 
ROOT
HETATM    1  C1    D T9001      -3.467   0.360  10.439  1.00 30.38     0.107 A 
HETATM    2  C2    D T9001      -4.281   0.720   9.312  1.00 29.65     0.113 A 
HETATM    3  C3    D T9001      -5.118  -0.278   8.717  1.00 28.21     0.045 A 
HETATM    4  C4    D T9001      -5.162  -1.602   9.202  1.00 27.21     0.088 A 
HETATM    5  C5    D T9001      -4.332  -1.966  10.325  1.00 26.27     0.055 A 
HETATM    6  C6    D T9001      -3.497  -0.975  10.927  1.00 29.22     0.026 A 
HETATM    7  N7    D T9001      -5.988  -2.483   8.588  1.00 25.99    -0.224 NA
HETATM    8  C8    D T9001      -6.006  -3.743   9.073  1.00 24.59     0.200 A 
HETATM    9  N9    D T9001      -5.272  -4.206  10.107  1.00 25.70    -0.205 NA
HETATM   10  C10   D T9001      -4.426  -3.322  10.744  1.00 27.48     0.166 A 
ENDROOT
BRANCH  10  11
HETATM   11  N14   D T9001      -3.631  -3.781  11.842  1.00 23.22    -0.227 NA
BRANCH  11  12
HETATM   12  C15   D T9001      -2.340  -4.365  11.769  1.00 24.25     0.084 A 
HETATM   13  C16   D T9001      -1.152  -3.602  12.008  1.00 25.06     0.033 A 
HETATM   14  C17   D T9001       0.119  -4.191  11.926  1.00 28.28     0.087 A 
HETATM   15  C18   D T9001       0.242  -5.564  11.600  1.00 25.55     0.151 A 
HETATM   16 CL     D T9001       1.501  -3.206  12.220  1.00 31.70    -0.080 Cl
HETATM   17  C19   D T9001      -0.915  -6.347  11.360  1.00 24.70     0.032 A 
HETATM   18  F21   D T9001       1.447  -6.145  11.513  1.00 27.22    -0.203 F 
HETATM   19  C20   D T9001      -2.203  -5.748  11.444  1.00 24.32     0.021 A 
ENDBRANCH  11  12
ENDBRANCH  10  11
BRANCH   1  20
HETATM   20  N13   D T9001      -2.671   1.379  11.034  1.00 34.61    -0.210 NA
HETATM   21  C26   D T9001      -1.267   1.353  10.970  1.00 36.24     0.256 C 
HETATM   22  O27   D T9001      -0.584   0.491  10.414  1.00 39.97    -0.270 OA
BRANCH  21  23
HETATM   23  C24   D T9001      -0.640   2.521  11.714  1.00 35.38     0.092 C 
BRANCH  23  24
HETATM   24  C23   D T9001       0.246   3.385  10.801  1.00 34.93     0.051 C 
BRANCH  24  25
HETATM   25  C25   D T9001       1.719   3.129  11.139  1.00 37.23     0.339 C 
HETATM   26  N33   D T9001       2.626   3.871  10.188  1.00 41.10     0.618 N 
ENDBRANCH  24  25
ENDBRANCH  23  24
ENDBRANCH  21  23
ENDBRANCH   1  20
BRANCH   2  27
HETATM   27  O11   D T9001      -4.172   2.045   8.901  1.00 31.09    -0.327 OA
HETATM   28  C12   D T9001      -5.133   2.594   7.995  1.00 29.66     0.181 C 
ENDBRANCH   2  27
TORSDOF 7
ENDMDL
MODEL 9
REMARK VINA RESULT:    -7.891      3.194      5.698
REMARK INTER + INTRA:         -12.081
REMARK INTER:                 -11.067
REMARK INTRA:                  -1.015
REMARK UNBOUND:                -0.961
REMARK  7 active torsions:
REMARK  status: ('A' for Active; 'I' for Inactive)
REMARK    1  A    between atoms: C1_1  and  N13_22 
REMARK    2  A    between atoms: C2_2  and  O11_20 
REMARK    3  A    between atoms: C10_10  and  N14_11 
REMARK    4  A    between atoms: N14_11  and  C15_12 
REMARK       I    between atoms: N13_22  and  C26_23 
REMARK    5  A    between atoms: C26_23  and  C24_24 
REMARK    6  A    between atoms: C24_24  and  C23_25 
REMARK    7  A    between atoms: C23_25  and  C25_26 
ROOT
HETATM    1  C1    D T9001      -0.556   0.273  10.973  1.00 30.38     0.107 A 
HETATM    2  C2    D T9001       0.030   1.394  10.294  1.00 29.65     0.113 A 
HETATM    3  C3    D T9001      -0.832   2.337   9.647  1.00 28.21     0.045 A 
HETATM    4  C4    D T9001      -2.236   2.194   9.655  1.00 27.21     0.088 A 
HETATM    5  C5    D T9001      -2.821   1.058  10.325  1.00 26.27     0.055 A 
HETATM    6  C6    D T9001      -1.968   0.115  10.975  1.00 29.22     0.026 A 
HETATM    7  N7    D T9001      -2.980   3.136   9.026  1.00 25.99    -0.224 NA
HETATM    8  C8    D T9001      -4.319   2.970   9.049  1.00 24.59     0.200 A 
HETATM    9  N9    D T9001      -4.983   1.949   9.632  1.00 25.70    -0.205 NA
HETATM   10  C10   D T9001      -4.241   0.981  10.276  1.00 27.48     0.166 A 
ENDROOT
BRANCH  10  11
HETATM   11  N14   D T9001      -4.913  -0.117  10.900  1.00 23.22    -0.227 NA
BRANCH  11  12
HETATM   12  C15   D T9001      -5.008  -1.444  10.409  1.00 24.25     0.084 A 
HETATM   13  C16   D T9001      -4.260  -2.519  10.989  1.00 25.06     0.033 A 
HETATM   14  C17   D T9001      -4.358  -3.826  10.488  1.00 28.28     0.087 A 
HETATM   15  C18   D T9001      -5.209  -4.100   9.390  1.00 25.55     0.151 A 
HETATM   16 CL     D T9001      -3.421  -5.063  11.234  1.00 31.70    -0.080 Cl
HETATM   17  C19   D T9001      -5.966  -3.059   8.795  1.00 24.70     0.032 A 
HETATM   18  F21   D T9001      -5.315  -5.341   8.895  1.00 27.22    -0.203 F 
HETATM   19  C20   D T9001      -5.865  -1.734   9.305  1.00 24.32     0.021 A 
ENDBRANCH  11  12
ENDBRANCH  10  11
BRANCH   1  20
HETATM   20  N13   D T9001       0.320  -0.631  11.638  1.00 34.61    -0.210 NA
HETATM   21  C26   D T9001       0.676  -1.867  11.073  1.00 36.24     0.256 C 
HETATM   22  O27   D T9001       0.296  -2.301   9.984  1.00 39.97    -0.270 OA
BRANCH  21  23
HETATM   23  C24   D T9001       1.584  -2.674  11.987  1.00 35.38     0.092 C 
BRANCH  23  24
HETATM   24  C23   D T9001       2.911  -3.050  11.305  1.00 34.93     0.051 C 
BRANCH  24  25
HETATM   25  C25   D T9001       2.816  -4.486  10.778  1.00 37.23     0.339 C 
HETATM   26  N33   D T9001       2.018  -5.354  11.721  1.00 41.10     0.618 N 
ENDBRANCH  24  25
ENDBRANCH  23  24
ENDBRANCH  21  23
ENDBRANCH   1  20
BRANCH   2  27
HETATM   27  O11   D T9001       1.420   1.454  10.336  1.00 31.09    -0.327 OA
HETATM   28  C12   D T9001       2.183   1.212   9.151  1.00 29.66     0.181 C 
ENDBRANCH   2  27
TORSDOF 7
ENDMDL
