MODEL 1
REMARK VINA RESULT:    -8.196      0.000      0.000
REMARK INTER + INTRA:         -12.537
REMARK INTER:                 -11.550
REMARK INTRA:                  -0.987
REMARK UNBOUND:                -0.987
REMARK  7 active torsions:
REMARK  status: ('A' for Active; 'I' for Inactive)
REMARK    1  A    between atoms: C1_1  and  N13_22 
REMARK    2  A    between atoms: C2_2  and  O11_20 
REMARK    3  A    between atoms: C10_10  and  N14_11 
REMARK    4  A    between atoms: N14_11  and  C15_12 
REMARK       I    between atoms: N13_22  and  C26_23 
REMARK    5  A    between atoms: C26_23  and  C24_24 
REMARK    6  A    between atoms: C24_24  and  C23_25 
REMARK    7  A    between atoms: C23_25  and  C25_26 
ROOT
HETATM    1  C1    D T9001       5.262  15.110  -1.013  1.00 30.38     0.107 A 
HETATM    2  C2    D T9001       6.403  15.399  -0.189  1.00 29.65     0.113 A 
HETATM    3  C3    D T9001       6.572  14.678   1.035  1.00 28.21     0.045 A 
HETATM    4  C4    D T9001       5.651  13.695   1.456  1.00 27.21     0.088 A 
HETATM    5  C5    D T9001       4.499  13.415   0.635  1.00 26.27     0.055 A 
HETATM    6  C6    D T9001       4.324  14.129  -0.590  1.00 29.22     0.026 A 
HETATM    7  N7    D T9001       5.890  13.050   2.625  1.00 25.99    -0.224 NA
HETATM    8  C8    D T9001       4.991  12.118   3.003  1.00 24.59     0.200 A 
HETATM    9  N9    D T9001       3.873  11.775   2.329  1.00 25.70    -0.205 NA
HETATM   10  C10   D T9001       3.614  12.421   1.137  1.00 27.48     0.166 A 
ENDROOT
BRANCH  10  11
HETATM   11  N14   D T9001       2.435  12.083   0.400  1.00 23.22    -0.227 NA
BRANCH  11  12
HETATM   12  C15   D T9001       1.140  12.639   0.566  1.00 24.25     0.084 A 
HETATM   13  C16   D T9001       0.188  12.666  -0.504  1.00 25.06     0.033 A 
HETATM   14  C17   D T9001      -1.086  13.225  -0.329  1.00 28.28     0.087 A 
HETATM   15  C18   D T9001      -1.451  13.775   0.923  1.00 25.55     0.151 A 
HETATM   16 CL     D T9001      -2.173  13.226  -1.666  1.00 31.70    -0.080 Cl
HETATM   17  C19   D T9001      -0.532  13.762   2.004  1.00 24.70     0.032 A 
HETATM   18  F21   D T9001      -2.662  14.317   1.111  1.00 27.22    -0.203 F 
HETATM   19  C20   D T9001       0.760  13.195   1.824  1.00 24.32     0.021 A 
ENDBRANCH  11  12
ENDBRANCH  10  11
BRANCH   1  20
HETATM   20  N13   D T9001       5.135  15.815  -2.243  1.00 34.61    -0.210 NA
HETATM   21  C26   D T9001       4.323  16.956  -2.361  1.00 36.24     0.256 C 
HETATM   22  O27   D T9001       3.657  17.466  -1.460  1.00 39.97    -0.270 OA
BRANCH  21  23
HETATM   23  C24   D T9001       4.315  17.506  -3.778  1.00 35.38     0.092 C 
BRANCH  23  24
HETATM   24  C23   D T9001       3.100  18.412  -4.044  1.00 34.93     0.051 C 
BRANCH  24  25
HETATM   25  C25   D T9001       3.245  19.056  -5.427  1.00 37.23     0.339 C 
HETATM   26  N33   D T9001       4.155  18.238  -6.309  1.00 41.10     0.618 N 
ENDBRANCH  24  25
ENDBRANCH  23  24
ENDBRANCH  21  23
ENDBRANCH   1  20
BRANCH   2  27
HETATM   27  O11   D T9001       7.256  16.383  -0.683  1.00 31.09    -0.327 OA
HETATM   28  C12   D T9001       8.549  16.025  -1.177  1.00 29.66     0.181 C 
ENDBRANCH   2  27
TORSDOF 7
ENDMDL
MODEL 2
REMARK VINA RESULT:    -7.909      3.932      6.700
REMARK INTER + INTRA:         -12.133
REMARK INTER:                 -11.189
REMARK INTRA:                  -0.943
REMARK UNBOUND:                -0.987
REMARK  7 active torsions:
REMARK  status: ('A' for Active; 'I' for Inactive)
REMARK    1  A    between atoms: C1_1  and  N13_22 
REMARK    2  A    between atoms: C2_2  and  O11_20 
REMARK    3  A    between atoms: C10_10  and  N14_11 
REMARK    4  A    between atoms: N14_11  and  C15_12 
REMARK       I    between atoms: N13_22  and  C26_23 
REMARK    5  A    between atoms: C26_23  and  C24_24 
REMARK    6  A    between atoms: C24_24  and  C23_25 
REMARK    7  A    between atoms: C23_25  and  C25_26 
ROOT
HETATM    1  C1    D T9001       3.192  15.102  -1.615  1.00 30.38     0.107 A 
HETATM    2  C2    D T9001       3.357  16.497  -1.916  1.00 29.65     0.113 A 
HETATM    3  C3    D T9001       4.667  17.069  -1.845  1.00 28.21     0.045 A 
HETATM    4  C4    D T9001       5.797  16.305  -1.487  1.00 27.21     0.088 A 
HETATM    5  C5    D T9001       5.628  14.908  -1.171  1.00 26.27     0.055 A 
HETATM    6  C6    D T9001       4.324  14.328  -1.241  1.00 29.22     0.026 A 
HETATM    7  N7    D T9001       7.004  16.922  -1.454  1.00 25.99    -0.224 NA
HETATM    8  C8    D T9001       8.066  16.166  -1.105  1.00 24.59     0.200 A 
HETATM    9  N9    D T9001       8.035  14.857  -0.778  1.00 25.70    -0.205 NA
HETATM   10  C10   D T9001       6.815  14.213  -0.806  1.00 27.48     0.166 A 
ENDROOT
BRANCH  10  11
HETATM   11  N14   D T9001       6.747  12.826  -0.462  1.00 23.22    -0.227 NA
BRANCH  11  12
HETATM   12  C15   D T9001       6.766  12.272   0.844  1.00 24.25     0.084 A 
HETATM   13  C16   D T9001       7.877  11.505   1.322  1.00 25.06     0.033 A 
HETATM   14  C17   D T9001       7.879  10.957   2.613  1.00 28.28     0.087 A 
HETATM   15  C18   D T9001       6.770  11.159   3.469  1.00 25.55     0.151 A 
HETATM   16 CL     D T9001       9.250  10.040   3.113  1.00 31.70    -0.080 Cl
HETATM   17  C19   D T9001       5.654  11.915   3.026  1.00 24.70     0.032 A 
HETATM   18  F21   D T9001       6.751  10.640   4.705  1.00 27.22    -0.203 F 
HETATM   19  C20   D T9001       5.655  12.469   1.717  1.00 24.32     0.021 A 
ENDBRANCH  11  12
ENDBRANCH  10  11
BRANCH   1  20
HETATM   20  N13   D T9001       1.886  14.548  -1.726  1.00 34.61    -0.210 NA
HETATM   21  C26   D T9001       1.141  14.173  -0.594  1.00 36.24     0.256 C 
HETATM   22  O27   D T9001       1.506  14.276   0.577  1.00 39.97    -0.270 OA
BRANCH  21  23
HETATM   23  C24   D T9001      -0.202  13.568  -0.969  1.00 35.38     0.092 C 
BRANCH  23  24
HETATM   24  C23   D T9001      -1.128  13.408   0.249  1.00 34.93     0.051 C 
BRANCH  24  25
HETATM   25  C25   D T9001      -2.571  13.224  -0.236  1.00 37.23     0.339 C 
HETATM   26  N33   D T9001      -2.614  12.383  -1.487  1.00 41.10     0.618 N 
ENDBRANCH  24  25
ENDBRANCH  23  24
ENDBRANCH  21  23
ENDBRANCH   1  20
BRANCH   2  27
HETATM   27  O11   D T9001       2.187  17.171  -2.259  1.00 31.09    -0.327 OA
HETATM   28  C12   D T9001       2.258  18.393  -2.997  1.00 29.66     0.181 C 
ENDBRANCH   2  27
TORSDOF 7
ENDMDL
MODEL 3
REMARK VINA RESULT:    -7.897      4.606      6.813
REMARK INTER + INTRA:         -12.116
REMARK INTER:                 -11.126
REMARK INTRA:                  -0.990
REMARK UNBOUND:                -0.987
REMARK  7 active torsions:
REMARK  status: ('A' for Active; 'I' for Inactive)
REMARK    1  A    between atoms: C1_1  and  N13_22 
REMARK    2  A    between atoms: C2_2  and  O11_20 
REMARK    3  A    between atoms: C10_10  and  N14_11 
REMARK    4  A    between atoms: N14_11  and  C15_12 
REMARK       I    between atoms: N13_22  and  C26_23 
REMARK    5  A    between atoms: C26_23  and  C24_24 
REMARK    6  A    between atoms: C24_24  and  C23_25 
REMARK    7  A    between atoms: C23_25  and  C25_26 
ROOT
HETATM    1  C1    D T9001       2.927  13.427   0.169  1.00 30.38     0.107 A 
HETATM    2  C2    D T9001       1.719  12.662   0.034  1.00 29.65     0.113 A 
HETATM    3  C3    D T9001       1.508  11.545   0.904  1.00 28.21     0.045 A 
HETATM    4  C4    D T9001       2.450  11.174   1.886  1.00 27.21     0.088 A 
HETATM    5  C5    D T9001       3.669  11.936   2.011  1.00 26.27     0.055 A 
HETATM    6  C6    D T9001       3.887  13.053   1.148  1.00 29.22     0.026 A 
HETATM    7  N7    D T9001       2.169  10.109   2.677  1.00 25.99    -0.224 NA
HETATM    8  C8    D T9001       3.090   9.778   3.605  1.00 24.59     0.200 A 
HETATM    9  N9    D T9001       4.268  10.403   3.812  1.00 25.70    -0.205 NA
HETATM   10  C10   D T9001       4.572  11.489   3.016  1.00 27.48     0.166 A 
ENDROOT
BRANCH  10  11
HETATM   11  N14   D T9001       5.814  12.172   3.208  1.00 23.22    -0.227 NA
BRANCH  11  12
HETATM   12  C15   D T9001       7.103  11.714   2.831  1.00 24.25     0.084 A 
HETATM   13  C16   D T9001       7.908  10.919   3.710  1.00 25.06     0.033 A 
HETATM   14  C17   D T9001       9.184  10.480   3.327  1.00 28.28     0.087 A 
HETATM   15  C18   D T9001       9.696  10.819   2.052  1.00 25.55     0.151 A 
HETATM   16 CL     D T9001      10.094   9.533   4.443  1.00 31.70    -0.080 Cl
HETATM   17  C19   D T9001       8.924  11.604   1.158  1.00 24.70     0.032 A 
HETATM   18  F21   D T9001      10.914  10.412   1.669  1.00 27.22    -0.203 F 
HETATM   19  C20   D T9001       7.630  12.048   1.548  1.00 24.32     0.021 A 
ENDBRANCH  11  12
ENDBRANCH  10  11
BRANCH   1  20
HETATM   20  N13   D T9001       3.097  14.554  -0.683  1.00 34.61    -0.210 NA
HETATM   21  C26   D T9001       3.773  14.457  -1.913  1.00 36.24     0.256 C 
HETATM   22  O27   D T9001       4.273  13.435  -2.384  1.00 39.97    -0.270 OA
BRANCH  21  23
HETATM   23  C24   D T9001       3.865  15.798  -2.621  1.00 35.38     0.092 C 
BRANCH  23  24
HETATM   24  C23   D T9001       2.786  16.785  -2.142  1.00 34.93     0.051 C 
BRANCH  24  25
HETATM   25  C25   D T9001       2.742  17.985  -3.094  1.00 37.23     0.339 C 
HETATM   26  N33   D T9001       2.256  19.221  -2.380  1.00 41.10     0.618 N 
ENDBRANCH  24  25
ENDBRANCH  23  24
ENDBRANCH  21  23
ENDBRANCH   1  20
BRANCH   2  27
HETATM   27  O11   D T9001       0.848  13.098  -0.961  1.00 31.09    -0.327 OA
HETATM   28  C12   D T9001      -0.508  13.414  -0.636  1.00 29.66     0.181 C 
ENDBRANCH   2  27
TORSDOF 7
ENDMDL
MODEL 4
REMARK VINA RESULT:    -7.536      2.288      5.830
REMARK INTER + INTRA:         -11.607
REMARK INTER:                 -10.620
REMARK INTRA:                  -0.987
REMARK UNBOUND:                -0.987
REMARK  7 active torsions:
REMARK  status: ('A' for Active; 'I' for Inactive)
REMARK    1  A    between atoms: C1_1  and  N13_22 
REMARK    2  A    between atoms: C2_2  and  O11_20 
REMARK    3  A    between atoms: C10_10  and  N14_11 
REMARK    4  A    between atoms: N14_11  and  C15_12 
REMARK       I    between atoms: N13_22  and  C26_23 
REMARK    5  A    between atoms: C26_23  and  C24_24 
REMARK    6  A    between atoms: C24_24  and  C23_25 
REMARK    7  A    between atoms: C23_25  and  C25_26 
ROOT
HETATM    1  C1    D T9001       6.641  13.755  -0.083  1.00 30.38     0.107 A 
HETATM    2  C2    D T9001       7.487  14.905  -0.241  1.00 29.65     0.113 A 
HETATM    3  C3    D T9001       6.954  16.073  -0.873  1.00 28.21     0.045 A 
HETATM    4  C4    D T9001       5.626  16.127  -1.344  1.00 27.21     0.088 A 
HETATM    5  C5    D T9001       4.781  14.967  -1.197  1.00 26.27     0.055 A 
HETATM    6  C6    D T9001       5.305  13.798  -0.566  1.00 29.22     0.026 A 
HETATM    7  N7    D T9001       5.196  17.277  -1.921  1.00 25.99    -0.224 NA
HETATM    8  C8    D T9001       3.922  17.297  -2.365  1.00 24.59     0.200 A 
HETATM    9  N9    D T9001       3.040  16.277  -2.294  1.00 25.70    -0.205 NA
HETATM   10  C10   D T9001       3.461  15.100  -1.710  1.00 27.48     0.166 A 
ENDROOT
BRANCH  10  11
HETATM   11  N14   D T9001       2.552  13.998  -1.623  1.00 23.22    -0.227 NA
BRANCH  11  12
HETATM   12  C15   D T9001       1.458  13.868  -0.730  1.00 24.25     0.084 A 
HETATM   13  C16   D T9001       0.114  13.709  -1.201  1.00 25.06     0.033 A 
HETATM   14  C17   D T9001      -0.960  13.589  -0.307  1.00 28.28     0.087 A 
HETATM   15  C18   D T9001      -0.725  13.623   1.088  1.00 25.55     0.151 A 
HETATM   16 CL     D T9001      -2.548  13.408  -0.951  1.00 31.70    -0.080 Cl
HETATM   17  C19   D T9001       0.593  13.777   1.588  1.00 24.70     0.032 A 
HETATM   18  F21   D T9001      -1.738  13.513   1.960  1.00 27.22    -0.203 F 
HETATM   19  C20   D T9001       1.681  13.899   0.679  1.00 24.32     0.021 A 
ENDBRANCH  11  12
ENDBRANCH  10  11
BRANCH   1  20
HETATM   20  N13   D T9001       7.182  12.618   0.580  1.00 34.61    -0.210 NA
HETATM   21  C26   D T9001       6.830  12.293   1.902  1.00 36.24     0.256 C 
HETATM   22  O27   D T9001       6.045  12.919   2.615  1.00 39.97    -0.270 OA
BRANCH  21  23
HETATM   23  C24   D T9001       7.570  11.064   2.404  1.00 35.38     0.092 C 
BRANCH  23  24
HETATM   24  C23   D T9001       7.245  10.751   3.875  1.00 34.93     0.051 C 
BRANCH  24  25
HETATM   25  C25   D T9001       8.524  10.294   4.587  1.00 37.23     0.339 C 
HETATM   26  N33   D T9001       9.685  11.189   4.233  1.00 41.10     0.618 N 
ENDBRANCH  24  25
ENDBRANCH  23  24
ENDBRANCH  21  23
ENDBRANCH   1  20
BRANCH   2  27
HETATM   27  O11   D T9001       8.781  14.760   0.252  1.00 31.09    -0.327 OA
HETATM   28  C12   D T9001       9.842  15.557  -0.281  1.00 29.66     0.181 C 
ENDBRANCH   2  27
TORSDOF 7
ENDMDL
MODEL 5
REMARK VINA RESULT:    -7.464      3.570      6.520
REMARK INTER + INTRA:         -11.506
REMARK INTER:                 -10.644
REMARK INTRA:                  -0.862
REMARK UNBOUND:                -0.987
REMARK  7 active torsions:
REMARK  status: ('A' for Active; 'I' for Inactive)
REMARK    1  A    between atoms: C1_1  and  N13_22 
REMARK    2  A    between atoms: C2_2  and  O11_20 
REMARK    3  A    between atoms: C10_10  and  N14_11 
REMARK    4  A    between atoms: N14_11  and  C15_12 
REMARK       I    between atoms: N13_22  and  C26_23 
REMARK    5  A    between atoms: C26_23  and  C24_24 
REMARK    6  A    between atoms: C24_24  and  C23_25 
REMARK    7  A    between atoms: C23_25  and  C25_26 
ROOT
HETATM    1  C1    D T9001       3.097  12.396   0.462  1.00 30.38     0.107 A 
HETATM    2  C2    D T9001       3.281  12.128   1.861  1.00 29.65     0.113 A 
HETATM    3  C3    D T9001       4.586  12.283   2.428  1.00 28.21     0.045 A 
HETATM    4  C4    D T9001       5.693  12.687   1.654  1.00 27.21     0.088 A 
HETATM    5  C5    D T9001       5.510  12.942   0.246  1.00 26.27     0.055 A 
HETATM    6  C6    D T9001       4.211  12.792  -0.327  1.00 29.22     0.026 A 
HETATM    7  N7    D T9001       6.894  12.819   2.271  1.00 25.99    -0.224 NA
HETATM    8  C8    D T9001       7.935  13.205   1.505  1.00 24.59     0.200 A 
HETATM    9  N9    D T9001       7.893  13.462   0.180  1.00 25.70    -0.205 NA
HETATM   10  C10   D T9001       6.679  13.332  -0.464  1.00 27.48     0.166 A 
ENDROOT
BRANCH  10  11
HETATM   11  N14   D T9001       6.601  13.594  -1.869  1.00 23.22    -0.227 NA
BRANCH  11  12
HETATM   12  C15   D T9001       6.083  14.760  -2.488  1.00 24.25     0.084 A 
HETATM   13  C16   D T9001       5.923  14.852  -3.909  1.00 25.06     0.033 A 
HETATM   14  C17   D T9001       5.416  16.014  -4.509  1.00 28.28     0.087 A 
HETATM   15  C18   D T9001       5.052  17.122  -3.708  1.00 25.55     0.151 A 
HETATM   16 CL     D T9001       5.260  16.050  -6.225  1.00 31.70    -0.080 Cl
HETATM   17  C19   D T9001       5.197  17.064  -2.298  1.00 24.70     0.032 A 
HETATM   18  F21   D T9001       4.569  18.243  -4.263  1.00 27.22    -0.203 F 
HETATM   19  C20   D T9001       5.711  15.884  -1.692  1.00 24.32     0.021 A 
ENDBRANCH  11  12
ENDBRANCH  10  11
BRANCH   1  20
HETATM   20  N13   D T9001       1.783  12.270  -0.071  1.00 34.61    -0.210 NA
HETATM   21  C26   D T9001       0.908  13.367  -0.153  1.00 36.24     0.256 C 
HETATM   22  O27   D T9001       1.158  14.519   0.205  1.00 39.97    -0.270 OA
BRANCH  21  23
HETATM   23  C24   D T9001      -0.448  12.975  -0.715  1.00 35.38     0.092 C 
BRANCH  23  24
HETATM   24  C23   D T9001      -1.605  13.408   0.203  1.00 34.93     0.051 C 
BRANCH  24  25
HETATM   25  C25   D T9001      -2.935  12.981  -0.429  1.00 37.23     0.339 C 
HETATM   26  N33   D T9001      -2.732  12.525  -1.852  1.00 41.10     0.618 N 
ENDBRANCH  24  25
ENDBRANCH  23  24
ENDBRANCH  21  23
ENDBRANCH   1  20
BRANCH   2  27
HETATM   27  O11   D T9001       2.134  11.734   2.545  1.00 31.09    -0.327 OA
HETATM   28  C12   D T9001       1.885  10.346   2.782  1.00 29.66     0.181 C 
ENDBRANCH   2  27
TORSDOF 7
ENDMDL
MODEL 6
REMARK VINA RESULT:    -7.397      4.800      7.031
REMARK INTER + INTRA:         -11.411
REMARK INTER:                 -10.801
REMARK INTRA:                  -0.610
REMARK UNBOUND:                -0.987
REMARK  7 active torsions:
REMARK  status: ('A' for Active; 'I' for Inactive)
REMARK    1  A    between atoms: C1_1  and  N13_22 
REMARK    2  A    between atoms: C2_2  and  O11_20 
REMARK    3  A    between atoms: C10_10  and  N14_11 
REMARK    4  A    between atoms: N14_11  and  C15_12 
REMARK       I    between atoms: N13_22  and  C26_23 
REMARK    5  A    between atoms: C26_23  and  C24_24 
REMARK    6  A    between atoms: C24_24  and  C23_25 
REMARK    7  A    between atoms: C23_25  and  C25_26 
ROOT
HETATM    1  C1    D T9001       3.483  13.402  -0.001  1.00 30.38     0.107 A 
HETATM    2  C2    D T9001       2.244  12.676  -0.032  1.00 29.65     0.113 A 
HETATM    3  C3    D T9001       2.008  11.671   0.959  1.00 28.21     0.045 A 
HETATM    4  C4    D T9001       2.955  11.372   1.961  1.00 27.21     0.088 A 
HETATM    5  C5    D T9001       4.204  12.093   1.983  1.00 26.27     0.055 A 
HETATM    6  C6    D T9001       4.447  13.099   0.998  1.00 29.22     0.026 A 
HETATM    7  N7    D T9001       2.649  10.413   2.869  1.00 25.99    -0.224 NA
HETATM    8  C8    D T9001       3.575  10.148   3.813  1.00 24.59     0.200 A 
HETATM    9  N9    D T9001       4.780  10.744   3.932  1.00 25.70    -0.205 NA
HETATM   10  C10   D T9001       5.109  11.723   3.016  1.00 27.48     0.166 A 
ENDROOT
BRANCH  10  11
HETATM   11  N14   D T9001       6.380  12.372   3.112  1.00 23.22    -0.227 NA
BRANCH  11  12
HETATM   12  C15   D T9001       7.650  11.746   3.198  1.00 24.25     0.084 A 
HETATM   13  C16   D T9001       7.958  10.803   4.232  1.00 25.06     0.033 A 
HETATM   14  C17   D T9001       9.221  10.197   4.310  1.00 28.28     0.087 A 
HETATM   15  C18   D T9001      10.216  10.513   3.355  1.00 25.55     0.151 A 
HETATM   16 CL     D T9001       9.517   9.080   5.587  1.00 31.70    -0.080 Cl
HETATM   17  C19   D T9001       9.944  11.440   2.317  1.00 24.70     0.032 A 
HETATM   18  F21   D T9001      11.430   9.947   3.413  1.00 27.22    -0.203 F 
HETATM   19  C20   D T9001       8.662  12.054   2.241  1.00 24.32     0.021 A 
ENDBRANCH  11  12
ENDBRANCH  10  11
BRANCH   1  20
HETATM   20  N13   D T9001       3.679  14.421  -0.975  1.00 34.61    -0.210 NA
HETATM   21  C26   D T9001       4.287  14.153  -2.214  1.00 36.24     0.256 C 
HETATM   22  O27   D T9001       4.702  13.058  -2.594  1.00 39.97    -0.270 OA
BRANCH  21  23
HETATM   23  C24   D T9001       4.426  15.405  -3.065  1.00 35.38     0.092 C 
BRANCH  23  24
HETATM   24  C23   D T9001       5.714  15.397  -3.907  1.00 34.93     0.051 C 
BRANCH  24  25
HETATM   25  C25   D T9001       5.405  15.949  -5.303  1.00 37.23     0.339 C 
HETATM   26  N33   D T9001       6.482  15.558  -6.285  1.00 41.10     0.618 N 
ENDBRANCH  24  25
ENDBRANCH  23  24
ENDBRANCH  21  23
ENDBRANCH   1  20
BRANCH   2  27
HETATM   27  O11   D T9001       1.371  13.036  -1.055  1.00 31.09    -0.327 OA
HETATM   28  C12   D T9001      -0.005  13.295  -0.763  1.00 29.66     0.181 C 
ENDBRANCH   2  27
TORSDOF 7
ENDMDL
MODEL 7
REMARK VINA RESULT:    -7.278      3.533      6.871
REMARK INTER + INTRA:         -11.243
REMARK INTER:                 -10.164
REMARK INTRA:                  -1.079
REMARK UNBOUND:                -0.987
REMARK  7 active torsions:
REMARK  status: ('A' for Active; 'I' for Inactive)
REMARK    1  A    between atoms: C1_1  and  N13_22 
REMARK    2  A    between atoms: C2_2  and  O11_20 
REMARK    3  A    between atoms: C10_10  and  N14_11 
REMARK    4  A    between atoms: N14_11  and  C15_12 
REMARK       I    between atoms: N13_22  and  C26_23 
REMARK    5  A    between atoms: C26_23  and  C24_24 
REMARK    6  A    between atoms: C24_24  and  C23_25 
REMARK    7  A    between atoms: C23_25  and  C25_26 
ROOT
HETATM    1  C1    D T9001       4.710  12.264   1.441  1.00 30.38     0.107 A 
HETATM    2  C2    D T9001       4.111  11.933   2.704  1.00 29.65     0.113 A 
HETATM    3  C3    D T9001       2.698  12.095   2.862  1.00 28.21     0.045 A 
HETATM    4  C4    D T9001       1.880  12.570   1.816  1.00 27.21     0.088 A 
HETATM    5  C5    D T9001       2.484  12.914   0.552  1.00 26.27     0.055 A 
HETATM    6  C6    D T9001       3.894  12.754   0.386  1.00 29.22     0.026 A 
HETATM    7  N7    D T9001       0.548  12.684   2.044  1.00 25.99    -0.224 NA
HETATM    8  C8    D T9001      -0.209  13.144   1.026  1.00 24.59     0.200 A 
HETATM    9  N9    D T9001       0.239  13.507  -0.194  1.00 25.70    -0.205 NA
HETATM   10  C10   D T9001       1.592  13.398  -0.445  1.00 27.48     0.166 A 
ENDROOT
BRANCH  10  11
HETATM   11  N14   D T9001       2.099  13.778  -1.727  1.00 23.22    -0.227 NA
BRANCH  11  12
HETATM   12  C15   D T9001       2.980  14.855  -2.007  1.00 24.25     0.084 A 
HETATM   13  C16   D T9001       2.715  16.186  -1.548  1.00 25.06     0.033 A 
HETATM   14  C17   D T9001       3.590  17.242  -1.840  1.00 28.28     0.087 A 
HETATM   15  C18   D T9001       4.760  17.002  -2.598  1.00 25.55     0.151 A 
HETATM   16 CL     D T9001       3.198  18.816  -1.258  1.00 31.70    -0.080 Cl
HETATM   17  C19   D T9001       5.053  15.695  -3.067  1.00 24.70     0.032 A 
HETATM   18  F21   D T9001       5.608  17.999  -2.890  1.00 27.22    -0.203 F 
HETATM   19  C20   D T9001       4.164  14.626  -2.770  1.00 24.32     0.021 A 
ENDBRANCH  11  12
ENDBRANCH  10  11
BRANCH   1  20
HETATM   20  N13   D T9001       6.112  12.061   1.298  1.00 34.61    -0.210 NA
HETATM   21  C26   D T9001       7.036  13.097   1.519  1.00 36.24     0.256 C 
HETATM   22  O27   D T9001       6.763  14.251   1.852  1.00 39.97    -0.270 OA
BRANCH  21  23
HETATM   23  C24   D T9001       8.467  12.651   1.262  1.00 35.38     0.092 C 
BRANCH  23  24
HETATM   24  C23   D T9001       9.042  11.838   2.435  1.00 34.93     0.051 C 
BRANCH  24  25
HETATM   25  C25   D T9001       9.262  10.389   1.984  1.00 37.23     0.339 C 
HETATM   26  N33   D T9001       8.207   9.480   2.561  1.00 41.10     0.618 N 
ENDBRANCH  24  25
ENDBRANCH  23  24
ENDBRANCH  21  23
ENDBRANCH   1  20
BRANCH   2  27
HETATM   27  O11   D T9001       4.995  11.474   3.677  1.00 31.09    -0.327 OA
HETATM   28  C12   D T9001       4.921  10.119   4.128  1.00 29.66     0.181 C 
ENDBRANCH   2  27
TORSDOF 7
ENDMDL
MODEL 8
REMARK VINA RESULT:    -7.224      3.537      5.618
REMARK INTER + INTRA:         -11.168
REMARK INTER:                 -10.152
REMARK INTRA:                  -1.015
REMARK UNBOUND:                -0.987
REMARK  7 active torsions:
REMARK  status: ('A' for Active; 'I' for Inactive)
REMARK    1  A    between atoms: C1_1  and  N13_22 
REMARK    2  A    between atoms: C2_2  and  O11_20 
REMARK    3  A    between atoms: C10_10  and  N14_11 
REMARK    4  A    between atoms: N14_11  and  C15_12 
REMARK       I    between atoms: N13_22  and  C26_23 
REMARK    5  A    between atoms: C26_23  and  C24_24 
REMARK    6  A    between atoms: C24_24  and  C23_25 
REMARK    7  A    between atoms: C23_25  and  C25_26 
ROOT
HETATM    1  C1    D T9001       6.553  15.624  -4.153  1.00 30.38     0.107 A 
HETATM    2  C2    D T9001       6.053  16.908  -4.557  1.00 29.65     0.113 A 
HETATM    3  C3    D T9001       4.813  17.370  -4.011  1.00 28.21     0.045 A 
HETATM    4  C4    D T9001       4.069  16.601  -3.091  1.00 27.21     0.088 A 
HETATM    5  C5    D T9001       4.566  15.305  -2.697  1.00 26.27     0.055 A 
HETATM    6  C6    D T9001       5.804  14.838  -3.236  1.00 29.22     0.026 A 
HETATM    7  N7    D T9001       2.910  17.116  -2.613  1.00 25.99    -0.224 NA
HETATM    8  C8    D T9001       2.220  16.356  -1.738  1.00 24.59     0.200 A 
HETATM    9  N9    D T9001       2.573  15.129  -1.301  1.00 25.70    -0.205 NA
HETATM   10  C10   D T9001       3.751  14.589  -1.777  1.00 27.48     0.166 A 
ENDROOT
BRANCH  10  11
HETATM   11  N14   D T9001       4.153  13.288  -1.336  1.00 23.22    -0.227 NA
BRANCH  11  12
HETATM   12  C15   D T9001       4.223  12.829   0.004  1.00 24.25     0.084 A 
HETATM   13  C16   D T9001       3.167  12.062   0.595  1.00 25.06     0.033 A 
HETATM   14  C17   D T9001       3.247  11.621   1.924  1.00 28.28     0.087 A 
HETATM   15  C18   D T9001       4.385  11.931   2.706  1.00 25.55     0.151 A 
HETATM   16 CL     D T9001       1.933  10.709   2.565  1.00 31.70    -0.080 Cl
HETATM   17  C19   D T9001       5.449  12.687   2.150  1.00 24.70     0.032 A 
HETATM   18  F21   D T9001       4.478  11.521   3.979  1.00 27.22    -0.203 F 
HETATM   19  C20   D T9001       5.366  13.134   0.802  1.00 24.32     0.021 A 
ENDBRANCH  11  12
ENDBRANCH  10  11
BRANCH   1  20
HETATM   20  N13   D T9001       7.805  15.203  -4.682  1.00 34.61    -0.210 NA
HETATM   21  C26   D T9001       9.016  15.468  -4.020  1.00 36.24     0.256 C 
HETATM   22  O27   D T9001       9.140  16.065  -2.950  1.00 39.97    -0.270 OA
BRANCH  21  23
HETATM   23  C24   D T9001      10.218  14.959  -4.800  1.00 35.38     0.092 C 
BRANCH  23  24
HETATM   24  C23   D T9001      10.889  16.072  -5.624  1.00 34.93     0.051 C 
BRANCH  24  25
HETATM   25  C25   D T9001      10.818  15.708  -7.112  1.00 37.23     0.339 C 
HETATM   26  N33   D T9001       9.446  15.993  -7.670  1.00 41.10     0.618 N 
ENDBRANCH  24  25
ENDBRANCH  23  24
ENDBRANCH  21  23
ENDBRANCH   1  20
BRANCH   2  27
HETATM   27  O11   D T9001       6.851  17.596  -5.468  1.00 31.09    -0.327 OA
HETATM   28  C12   D T9001       6.327  17.954  -6.749  1.00 29.66     0.181 C 
ENDBRANCH   2  27
TORSDOF 7
ENDMDL
MODEL 9
REMARK VINA RESULT:    -7.191      2.659      2.925
REMARK INTER + INTRA:         -11.121
REMARK INTER:                 -10.742
REMARK INTRA:                  -0.379
REMARK UNBOUND:                -0.987
REMARK  7 active torsions:
REMARK  status: ('A' for Active; 'I' for Inactive)
REMARK    1  A    between atoms: C1_1  and  N13_22 
REMARK    2  A    between atoms: C2_2  and  O11_20 
REMARK    3  A    between atoms: C10_10  and  N14_11 
REMARK    4  A    between atoms: N14_11  and  C15_12 
REMARK       I    between atoms: N13_22  and  C26_23 
REMARK    5  A    between atoms: C26_23  and  C24_24 
REMARK    6  A    between atoms: C24_24  and  C23_25 
REMARK    7  A    between atoms: C23_25  and  C25_26 
ROOT
HETATM    1  C1    D T9001       6.757  14.456  -0.116  1.00 30.38     0.107 A 
HETATM    2  C2    D T9001       7.667  13.995   0.895  1.00 29.65     0.113 A 
HETATM    3  C3    D T9001       7.172  13.141   1.931  1.00 28.21     0.045 A 
HETATM    4  C4    D T9001       5.821  12.742   1.989  1.00 27.21     0.088 A 
HETATM    5  C5    D T9001       4.905  13.217   0.981  1.00 26.27     0.055 A 
HETATM    6  C6    D T9001       5.390  14.068  -0.058  1.00 29.22     0.026 A 
HETATM    7  N7    D T9001       5.436  11.922   2.998  1.00 25.99    -0.224 NA
HETATM    8  C8    D T9001       4.137  11.559   3.029  1.00 24.59     0.200 A 
HETATM    9  N9    D T9001       3.185  11.944   2.153  1.00 25.70    -0.205 NA
HETATM   10  C10   D T9001       3.558  12.779   1.119  1.00 27.48     0.166 A 
ENDROOT
BRANCH  10  11
HETATM   11  N14   D T9001       2.573  13.208   0.175  1.00 23.22    -0.227 NA
BRANCH  11  12
HETATM   12  C15   D T9001       1.184  13.374   0.413  1.00 24.25     0.084 A 
HETATM   13  C16   D T9001       0.213  13.182  -0.624  1.00 25.06     0.033 A 
HETATM   14  C17   D T9001      -1.156  13.358  -0.377  1.00 28.28     0.087 A 
HETATM   15  C18   D T9001      -1.600  13.729   0.915  1.00 25.55     0.151 A 
HETATM   16 CL     D T9001      -2.261  13.116  -1.676  1.00 31.70    -0.080 Cl
HETATM   17  C19   D T9001      -0.665  13.926   1.963  1.00 24.70     0.032 A 
HETATM   18  F21   D T9001      -2.904  13.905   1.170  1.00 27.22    -0.203 F 
HETATM   19  C20   D T9001       0.723  13.747   1.710  1.00 24.32     0.021 A 
ENDBRANCH  11  12
ENDBRANCH  10  11
BRANCH   1  20
HETATM   20  N13   D T9001       7.279  15.276  -1.156  1.00 34.61    -0.210 NA
HETATM   21  C26   D T9001       7.361  14.824  -2.485  1.00 36.24     0.256 C 
HETATM   22  O27   D T9001       7.005  13.720  -2.896  1.00 39.97    -0.270 OA
BRANCH  21  23
HETATM   23  C24   D T9001       7.992  15.859  -3.402  1.00 35.38     0.092 C 
BRANCH  23  24
HETATM   24  C23   D T9001       9.088  15.253  -4.296  1.00 34.93     0.051 C 
BRANCH  24  25
HETATM   25  C25   D T9001       9.522  16.293  -5.335  1.00 37.23     0.339 C 
HETATM   26  N33   D T9001       9.897  15.629  -6.636  1.00 41.10     0.618 N 
ENDBRANCH  24  25
ENDBRANCH  23  24
ENDBRANCH  21  23
ENDBRANCH   1  20
BRANCH   2  27
HETATM   27  O11   D T9001       8.979  14.440   0.759  1.00 31.09    -0.327 OA
HETATM   28  C12   D T9001      10.066  13.570   1.085  1.00 29.66     0.181 C 
ENDBRANCH   2  27
TORSDOF 7
ENDMDL
