MODEL 1
REMARK VINA RESULT:    -7.763      0.000      0.000
REMARK INTER + INTRA:         -11.853
REMARK INTER:                 -10.940
REMARK INTRA:                  -0.913
REMARK UNBOUND:                -0.913
REMARK  7 active torsions:
REMARK  status: ('A' for Active; 'I' for Inactive)
REMARK    1  A    between atoms: C1_1  and  N13_22 
REMARK    2  A    between atoms: C2_2  and  O11_20 
REMARK    3  A    between atoms: C10_10  and  N14_11 
REMARK    4  A    between atoms: N14_11  and  C15_12 
REMARK       I    between atoms: N13_22  and  C26_23 
REMARK    5  A    between atoms: C26_23  and  C24_24 
REMARK    6  A    between atoms: C24_24  and  C23_25 
REMARK    7  A    between atoms: C23_25  and  C25_26 
ROOT
HETATM    1  C1    D T9001     -11.682   3.518  -5.064  1.00 30.38     0.107 A 
HETATM    2  C2    D T9001     -10.333   3.996  -5.181  1.00 29.65     0.113 A 
HETATM    3  C3    D T9001      -9.940   5.148  -4.427  1.00 28.21     0.045 A 
HETATM    4  C4    D T9001     -10.839   5.827  -3.578  1.00 27.21     0.088 A 
HETATM    5  C5    D T9001     -12.198   5.356  -3.473  1.00 26.27     0.055 A 
HETATM    6  C6    D T9001     -12.597   4.205  -4.219  1.00 29.22     0.026 A 
HETATM    7  N7    D T9001     -10.384   6.905  -2.892  1.00 25.99    -0.224 NA
HETATM    8  C8    D T9001     -11.267   7.534  -2.091  1.00 24.59     0.200 A 
HETATM    9  N9    D T9001     -12.563   7.197  -1.915  1.00 25.70    -0.205 NA
HETATM   10  C10   D T9001     -13.043   6.103  -2.607  1.00 27.48     0.166 A 
ENDROOT
BRANCH  10  11
HETATM   11  N14   D T9001     -14.412   5.720  -2.447  1.00 23.22    -0.227 NA
BRANCH  11  12
HETATM   12  C15   D T9001     -15.055   5.348  -1.238  1.00 24.25     0.084 A 
HETATM   13  C16   D T9001     -16.144   6.106  -0.698  1.00 25.06     0.033 A 
HETATM   14  C17   D T9001     -16.766   5.731   0.504  1.00 28.28     0.087 A 
HETATM   15  C18   D T9001     -16.317   4.584   1.202  1.00 25.55     0.151 A 
HETATM   16 CL     D T9001     -18.065   6.696   1.091  1.00 31.70    -0.080 Cl
HETATM   17  C19   D T9001     -15.241   3.812   0.695  1.00 24.70     0.032 A 
HETATM   18  F21   D T9001     -16.895   4.211   2.354  1.00 27.22    -0.203 F 
HETATM   19  C20   D T9001     -14.613   4.194  -0.523  1.00 24.32     0.021 A 
ENDBRANCH  11  12
ENDBRANCH  10  11
BRANCH   1  20
HETATM   20  N13   D T9001     -12.038   2.350  -5.795  1.00 34.61    -0.210 NA
HETATM   21  C26   D T9001     -12.848   2.414  -6.943  1.00 36.24     0.256 C 
HETATM   22  O27   D T9001     -13.322   3.438  -7.437  1.00 39.97    -0.270 OA
BRANCH  21  23
HETATM   23  C24   D T9001     -13.126   1.038  -7.523  1.00 35.38     0.092 C 
BRANCH  23  24
HETATM   24  C23   D T9001     -11.911   0.464  -8.270  1.00 34.93     0.051 C 
BRANCH  24  25
HETATM   25  C25   D T9001     -12.384  -0.619  -9.247  1.00 37.23     0.339 C 
HETATM   26  N33   D T9001     -13.889  -0.616  -9.363  1.00 41.10     0.618 N 
ENDBRANCH  24  25
ENDBRANCH  23  24
ENDBRANCH  21  23
ENDBRANCH   1  20
BRANCH   2  27
HETATM   27  O11   D T9001      -9.517   3.266  -6.040  1.00 31.09    -0.327 OA
HETATM   28  C12   D T9001      -8.339   2.629  -5.540  1.00 29.66     0.181 C 
ENDBRANCH   2  27
TORSDOF 7
ENDMDL
MODEL 2
REMARK VINA RESULT:    -7.679      4.650      8.257
REMARK INTER + INTRA:         -11.734
REMARK INTER:                 -11.244
REMARK INTRA:                  -0.490
REMARK UNBOUND:                -0.913
REMARK  7 active torsions:
REMARK  status: ('A' for Active; 'I' for Inactive)
REMARK    1  A    between atoms: C1_1  and  N13_22 
REMARK    2  A    between atoms: C2_2  and  O11_20 
REMARK    3  A    between atoms: C10_10  and  N14_11 
REMARK    4  A    between atoms: N14_11  and  C15_12 
REMARK       I    between atoms: N13_22  and  C26_23 
REMARK    5  A    between atoms: C26_23  and  C24_24 
REMARK    6  A    between atoms: C24_24  and  C23_25 
REMARK    7  A    between atoms: C23_25  and  C25_26 
ROOT
HETATM    1  C1    D T9001     -14.839   5.347  -1.743  1.00 30.38     0.107 A 
HETATM    2  C2    D T9001     -14.367   6.380  -0.865  1.00 29.65     0.113 A 
HETATM    3  C3    D T9001     -13.052   6.909  -1.065  1.00 28.21     0.045 A 
HETATM    4  C4    D T9001     -12.208   6.444  -2.095  1.00 27.21     0.088 A 
HETATM    5  C5    D T9001     -12.677   5.395  -2.967  1.00 26.27     0.055 A 
HETATM    6  C6    D T9001     -13.989   4.864  -2.776  1.00 29.22     0.026 A 
HETATM    7  N7    D T9001     -10.980   7.005  -2.221  1.00 25.99    -0.224 NA
HETATM    8  C8    D T9001     -10.196   6.537  -3.214  1.00 24.59     0.200 A 
HETATM    9  N9    D T9001     -10.516   5.557  -4.086  1.00 25.70    -0.205 NA
HETATM   10  C10   D T9001     -11.762   4.974  -3.971  1.00 27.48     0.166 A 
ENDROOT
BRANCH  10  11
HETATM   11  N14   D T9001     -12.132   3.930  -4.876  1.00 23.22    -0.227 NA
BRANCH  11  12
HETATM   12  C15   D T9001     -11.268   3.208  -5.739  1.00 24.25     0.084 A 
HETATM   13  C16   D T9001      -9.866   3.086  -5.474  1.00 25.06     0.033 A 
HETATM   14  C17   D T9001      -9.021   2.375  -6.341  1.00 28.28     0.087 A 
HETATM   15  C18   D T9001      -9.554   1.763  -7.501  1.00 25.55     0.151 A 
HETATM   16 CL     D T9001      -7.345   2.278  -5.957  1.00 31.70    -0.080 Cl
HETATM   17  C19   D T9001     -10.938   1.865  -7.793  1.00 24.70     0.032 A 
HETATM   18  F21   D T9001      -8.763   1.082  -8.344  1.00 27.22    -0.203 F 
HETATM   19  C20   D T9001     -11.792   2.586  -6.912  1.00 24.32     0.021 A 
ENDBRANCH  11  12
ENDBRANCH  10  11
BRANCH   1  20
HETATM   20  N13   D T9001     -16.163   4.862  -1.546  1.00 34.61    -0.210 NA
HETATM   21  C26   D T9001     -16.418   3.672  -0.842  1.00 36.24     0.256 C 
HETATM   22  O27   D T9001     -15.571   2.939  -0.329  1.00 39.97    -0.270 OA
BRANCH  21  23
HETATM   23  C24   D T9001     -17.900   3.339  -0.802  1.00 35.38     0.092 C 
BRANCH  23  24
HETATM   24  C23   D T9001     -18.407   3.111   0.632  1.00 34.93     0.051 C 
BRANCH  24  25
HETATM   25  C25   D T9001     -18.275   4.415   1.426  1.00 37.23     0.339 C 
HETATM   26  N33   D T9001     -17.441   4.207   2.667  1.00 41.10     0.618 N 
ENDBRANCH  24  25
ENDBRANCH  23  24
ENDBRANCH  21  23
ENDBRANCH   1  20
BRANCH   2  27
HETATM   27  O11   D T9001     -15.265   6.776   0.122  1.00 31.09    -0.327 OA
HETATM   28  C12   D T9001     -14.904   6.672   1.502  1.00 29.66     0.181 C 
ENDBRANCH   2  27
TORSDOF 7
ENDMDL
MODEL 3
REMARK VINA RESULT:    -7.583      1.545      1.666
REMARK INTER + INTRA:         -11.599
REMARK INTER:                 -10.667
REMARK INTRA:                  -0.932
REMARK UNBOUND:                -0.913
REMARK  7 active torsions:
REMARK  status: ('A' for Active; 'I' for Inactive)
REMARK    1  A    between atoms: C1_1  and  N13_22 
REMARK    2  A    between atoms: C2_2  and  O11_20 
REMARK    3  A    between atoms: C10_10  and  N14_11 
REMARK    4  A    between atoms: N14_11  and  C15_12 
REMARK       I    between atoms: N13_22  and  C26_23 
REMARK    5  A    between atoms: C26_23  and  C24_24 
REMARK    6  A    between atoms: C24_24  and  C23_25 
REMARK    7  A    between atoms: C23_25  and  C25_26 
ROOT
HETATM    1  C1    D T9001     -12.033   3.482  -5.236  1.00 30.38     0.107 A 
HETATM    2  C2    D T9001     -10.623   3.664  -5.437  1.00 29.65     0.113 A 
HETATM    3  C3    D T9001      -9.944   4.679  -4.690  1.00 28.21     0.045 A 
HETATM    4  C4    D T9001     -10.619   5.505  -3.767  1.00 27.21     0.088 A 
HETATM    5  C5    D T9001     -12.038   5.332  -3.578  1.00 26.27     0.055 A 
HETATM    6  C6    D T9001     -12.723   4.319  -4.317  1.00 29.22     0.026 A 
HETATM    7  N7    D T9001      -9.899   6.436  -3.094  1.00 25.99    -0.224 NA
HETATM    8  C8    D T9001     -10.573   7.213  -2.221  1.00 24.59     0.200 A 
HETATM    9  N9    D T9001     -11.897   7.155  -1.962  1.00 25.70    -0.205 NA
HETATM   10  C10   D T9001     -12.645   6.213  -2.640  1.00 27.48     0.166 A 
ENDROOT
BRANCH  10  11
HETATM   11  N14   D T9001     -14.051   6.126  -2.392  1.00 23.22    -0.227 NA
BRANCH  11  12
HETATM   12  C15   D T9001     -14.680   5.596  -1.237  1.00 24.25     0.084 A 
HETATM   13  C16   D T9001     -15.508   4.428  -1.296  1.00 25.06     0.033 A 
HETATM   14  C17   D T9001     -16.130   3.919  -0.145  1.00 28.28     0.087 A 
HETATM   15  C18   D T9001     -15.942   4.561   1.101  1.00 25.55     0.151 A 
HETATM   16 CL     D T9001     -17.116   2.515  -0.299  1.00 31.70    -0.080 Cl
HETATM   17  C19   D T9001     -15.128   5.719   1.195  1.00 24.70     0.032 A 
HETATM   18  F21   D T9001     -16.530   4.092   2.212  1.00 27.22    -0.203 F 
HETATM   19  C20   D T9001     -14.498   6.233   0.027  1.00 24.32     0.021 A 
ENDBRANCH  11  12
ENDBRANCH  10  11
BRANCH   1  20
HETATM   20  N13   D T9001     -12.679   2.443  -5.964  1.00 34.61    -0.210 NA
HETATM   21  C26   D T9001     -13.292   1.356  -5.316  1.00 36.24     0.256 C 
HETATM   22  O27   D T9001     -13.349   1.179  -4.098  1.00 39.97    -0.270 OA
BRANCH  21  23
HETATM   23  C24   D T9001     -13.874   0.358  -6.302  1.00 35.38     0.092 C 
BRANCH  23  24
HETATM   24  C23   D T9001     -13.499   0.688  -7.756  1.00 34.93     0.051 C 
BRANCH  24  25
HETATM   25  C25   D T9001     -12.436  -0.305  -8.240  1.00 37.23     0.339 C 
HETATM   26  N33   D T9001     -11.120   0.392  -8.483  1.00 41.10     0.618 N 
ENDBRANCH  24  25
ENDBRANCH  23  24
ENDBRANCH  21  23
ENDBRANCH   1  20
BRANCH   2  27
HETATM   27  O11   D T9001     -10.041   2.805  -6.366  1.00 31.09    -0.327 OA
HETATM   28  C12   D T9001      -8.652   2.479  -6.266  1.00 29.66     0.181 C 
ENDBRANCH   2  27
TORSDOF 7
ENDMDL
MODEL 4
REMARK VINA RESULT:    -7.410      4.152      7.819
REMARK INTER + INTRA:         -11.355
REMARK INTER:                 -10.298
REMARK INTRA:                  -1.056
REMARK UNBOUND:                -0.913
REMARK  7 active torsions:
REMARK  status: ('A' for Active; 'I' for Inactive)
REMARK    1  A    between atoms: C1_1  and  N13_22 
REMARK    2  A    between atoms: C2_2  and  O11_20 
REMARK    3  A    between atoms: C10_10  and  N14_11 
REMARK    4  A    between atoms: N14_11  and  C15_12 
REMARK       I    between atoms: N13_22  and  C26_23 
REMARK    5  A    between atoms: C26_23  and  C24_24 
REMARK    6  A    between atoms: C24_24  and  C23_25 
REMARK    7  A    between atoms: C23_25  and  C25_26 
ROOT
HETATM    1  C1    D T9001     -12.756   4.850  -3.767  1.00 30.38     0.107 A 
HETATM    2  C2    D T9001     -11.493   5.363  -3.317  1.00 29.65     0.113 A 
HETATM    3  C3    D T9001     -10.299   4.950  -3.990  1.00 28.21     0.045 A 
HETATM    4  C4    D T9001     -10.327   4.053  -5.079  1.00 27.21     0.088 A 
HETATM    5  C5    D T9001     -11.595   3.526  -5.520  1.00 26.27     0.055 A 
HETATM    6  C6    D T9001     -12.792   3.936  -4.856  1.00 29.22     0.026 A 
HETATM    7  N7    D T9001      -9.152   3.720  -5.667  1.00 25.99    -0.224 NA
HETATM    8  C8    D T9001      -9.212   2.859  -6.703  1.00 24.59     0.200 A 
HETATM    9  N9    D T9001     -10.331   2.292  -7.202  1.00 25.70    -0.205 NA
HETATM   10  C10   D T9001     -11.537   2.619  -6.615  1.00 27.48     0.166 A 
ENDROOT
BRANCH  10  11
HETATM   11  N14   D T9001     -12.741   2.033  -7.117  1.00 23.22    -0.227 NA
BRANCH  11  12
HETATM   12  C15   D T9001     -13.176   0.696  -6.933  1.00 24.25     0.084 A 
HETATM   13  C16   D T9001     -12.833  -0.343  -7.858  1.00 25.06     0.033 A 
HETATM   14  C17   D T9001     -13.277  -1.661  -7.668  1.00 28.28     0.087 A 
HETATM   15  C18   D T9001     -14.078  -1.981  -6.546  1.00 25.55     0.151 A 
HETATM   16 CL     D T9001     -12.828  -2.853  -8.828  1.00 31.70    -0.080 Cl
HETATM   17  C19   D T9001     -14.435  -0.977  -5.612  1.00 24.70     0.032 A 
HETATM   18  F21   D T9001     -14.515  -3.234  -6.349  1.00 27.22    -0.203 F 
HETATM   19  C20   D T9001     -13.984   0.358  -5.806  1.00 24.32     0.021 A 
ENDBRANCH  11  12
ENDBRANCH  10  11
BRANCH   1  20
HETATM   20  N13   D T9001     -13.931   5.303  -3.105  1.00 34.61    -0.210 NA
HETATM   21  C26   D T9001     -14.597   4.510  -2.153  1.00 36.24     0.256 C 
HETATM   22  O27   D T9001     -14.260   3.383  -1.789  1.00 39.97    -0.270 OA
BRANCH  21  23
HETATM   23  C24   D T9001     -15.846   5.188  -1.618  1.00 35.38     0.092 C 
BRANCH  23  24
HETATM   24  C23   D T9001     -15.822   5.332  -0.087  1.00 34.93     0.051 C 
BRANCH  24  25
HETATM   25  C25   D T9001     -15.859   6.819   0.280  1.00 37.23     0.339 C 
HETATM   26  N33   D T9001     -14.526   7.474   0.008  1.00 41.10     0.618 N 
ENDBRANCH  24  25
ENDBRANCH  23  24
ENDBRANCH  21  23
ENDBRANCH   1  20
BRANCH   2  27
HETATM   27  O11   D T9001     -11.560   6.240  -2.238  1.00 31.09    -0.327 OA
HETATM   28  C12   D T9001     -11.195   7.613  -2.407  1.00 29.66     0.181 C 
ENDBRANCH   2  27
TORSDOF 7
ENDMDL
MODEL 5
REMARK VINA RESULT:    -6.984      5.932      8.481
REMARK INTER + INTRA:         -10.754
REMARK INTER:                  -9.645
REMARK INTRA:                  -1.109
REMARK UNBOUND:                -0.913
REMARK  7 active torsions:
REMARK  status: ('A' for Active; 'I' for Inactive)
REMARK    1  A    between atoms: C1_1  and  N13_22 
REMARK    2  A    between atoms: C2_2  and  O11_20 
REMARK    3  A    between atoms: C10_10  and  N14_11 
REMARK    4  A    between atoms: N14_11  and  C15_12 
REMARK       I    between atoms: N13_22  and  C26_23 
REMARK    5  A    between atoms: C26_23  and  C24_24 
REMARK    6  A    between atoms: C24_24  and  C23_25 
REMARK    7  A    between atoms: C23_25  and  C25_26 
ROOT
HETATM    1  C1    D T9001     -13.368  -2.213  -8.894  1.00 30.38     0.107 A 
HETATM    2  C2    D T9001     -14.552  -2.685  -8.231  1.00 29.65     0.113 A 
HETATM    3  C3    D T9001     -15.233  -1.810  -7.326  1.00 28.21     0.045 A 
HETATM    4  C4    D T9001     -14.774  -0.502  -7.064  1.00 27.21     0.088 A 
HETATM    5  C5    D T9001     -13.577  -0.034  -7.718  1.00 26.27     0.055 A 
HETATM    6  C6    D T9001     -12.893  -0.900  -8.626  1.00 29.22     0.026 A 
HETATM    7  N7    D T9001     -15.483   0.266  -6.200  1.00 25.99    -0.224 NA
HETATM    8  C8    D T9001     -15.018   1.510  -5.968  1.00 24.59     0.200 A 
HETATM    9  N9    D T9001     -13.909   2.059  -6.510  1.00 25.70    -0.205 NA
HETATM   10  C10   D T9001     -13.175   1.291  -7.391  1.00 27.48     0.166 A 
ENDROOT
BRANCH  10  11
HETATM   11  N14   D T9001     -11.992   1.840  -7.980  1.00 23.22    -0.227 NA
BRANCH  11  12
HETATM   12  C15   D T9001     -10.725   1.990  -7.360  1.00 24.25     0.084 A 
HETATM   13  C16   D T9001     -10.510   2.929  -6.300  1.00 25.06     0.033 A 
HETATM   14  C17   D T9001      -9.249   3.073  -5.701  1.00 28.28     0.087 A 
HETATM   15  C18   D T9001      -8.163   2.280  -6.143  1.00 25.55     0.151 A 
HETATM   16 CL     D T9001      -9.068   4.229  -4.437  1.00 31.70    -0.080 Cl
HETATM   17  C19   D T9001      -8.342   1.340  -7.190  1.00 24.70     0.032 A 
HETATM   18  F21   D T9001      -6.949   2.404  -5.585  1.00 27.22    -0.203 F 
HETATM   19  C20   D T9001      -9.622   1.196  -7.795  1.00 24.32     0.021 A 
ENDBRANCH  11  12
ENDBRANCH  10  11
BRANCH   1  20
HETATM   20  N13   D T9001     -12.729  -3.089  -9.816  1.00 34.61    -0.210 NA
HETATM   21  C26   D T9001     -13.070  -3.105 -11.180  1.00 36.24     0.256 C 
HETATM   22  O27   D T9001     -13.919  -2.395 -11.721  1.00 39.97    -0.270 OA
BRANCH  21  23
HETATM   23  C24   D T9001     -12.285  -4.151 -11.953  1.00 35.38     0.092 C 
BRANCH  23  24
HETATM   24  C23   D T9001     -11.807  -3.629 -13.318  1.00 34.93     0.051 C 
BRANCH  24  25
HETATM   25  C25   D T9001     -10.619  -2.683 -13.108  1.00 37.23     0.339 C 
HETATM   26  N33   D T9001     -10.903  -1.324 -13.698  1.00 41.10     0.618 N 
ENDBRANCH  24  25
ENDBRANCH  23  24
ENDBRANCH  21  23
ENDBRANCH   1  20
BRANCH   2  27
HETATM   27  O11   D T9001     -14.929  -3.987  -8.549  1.00 31.09    -0.327 OA
HETATM   28  C12   D T9001     -16.292  -4.277  -8.874  1.00 29.66     0.181 C 
ENDBRANCH   2  27
TORSDOF 7
ENDMDL
MODEL 6
REMARK VINA RESULT:    -6.984      3.381      6.439
REMARK INTER + INTRA:         -10.754
REMARK INTER:                  -9.649
REMARK INTRA:                  -1.105
REMARK UNBOUND:                -0.913
REMARK  7 active torsions:
REMARK  status: ('A' for Active; 'I' for Inactive)
REMARK    1  A    between atoms: C1_1  and  N13_22 
REMARK    2  A    between atoms: C2_2  and  O11_20 
REMARK    3  A    between atoms: C10_10  and  N14_11 
REMARK    4  A    between atoms: N14_11  and  C15_12 
REMARK       I    between atoms: N13_22  and  C26_23 
REMARK    5  A    between atoms: C26_23  and  C24_24 
REMARK    6  A    between atoms: C24_24  and  C23_25 
REMARK    7  A    between atoms: C23_25  and  C25_26 
ROOT
HETATM    1  C1    D T9001     -14.556   3.806  -3.998  1.00 30.38     0.107 A 
HETATM    2  C2    D T9001     -14.390   2.948  -5.137  1.00 29.65     0.113 A 
HETATM    3  C3    D T9001     -13.105   2.871  -5.763  1.00 28.21     0.045 A 
HETATM    4  C4    D T9001     -12.000   3.614  -5.296  1.00 27.21     0.088 A 
HETATM    5  C5    D T9001     -12.172   4.487  -4.161  1.00 26.27     0.055 A 
HETATM    6  C6    D T9001     -13.450   4.568  -3.529  1.00 29.22     0.026 A 
HETATM    7  N7    D T9001     -10.815   3.476  -5.940  1.00 25.99    -0.224 NA
HETATM    8  C8    D T9001      -9.780   4.202  -5.472  1.00 24.59     0.200 A 
HETATM    9  N9    D T9001      -9.815   5.058  -4.428  1.00 25.70    -0.205 NA
HETATM   10  C10   D T9001     -11.014   5.210  -3.761  1.00 27.48     0.166 A 
ENDROOT
BRANCH  10  11
HETATM   11  N14   D T9001     -11.088   6.112  -2.653  1.00 23.22    -0.227 NA
BRANCH  11  12
HETATM   12  C15   D T9001     -11.584   7.441  -2.670  1.00 24.25     0.084 A 
HETATM   13  C16   D T9001     -11.849   8.164  -1.462  1.00 25.06     0.033 A 
HETATM   14  C17   D T9001     -12.348   9.476  -1.494  1.00 28.28     0.087 A 
HETATM   15  C18   D T9001     -12.596  10.105  -2.737  1.00 25.55     0.151 A 
HETATM   16 CL     D T9001     -12.647  10.276   0.001  1.00 31.70    -0.080 Cl
HETATM   17  C19   D T9001     -12.345   9.418  -3.952  1.00 24.70     0.032 A 
HETATM   18  F21   D T9001     -13.076  11.357  -2.789  1.00 27.22    -0.203 F 
HETATM   19  C20   D T9001     -11.839   8.089  -3.916  1.00 24.32     0.021 A 
ENDBRANCH  11  12
ENDBRANCH  10  11
BRANCH   1  20
HETATM   20  N13   D T9001     -15.833   3.838  -3.371  1.00 34.61    -0.210 NA
HETATM   21  C26   D T9001     -16.054   3.257  -2.111  1.00 36.24     0.256 C 
HETATM   22  O27   D T9001     -15.211   2.679  -1.423  1.00 39.97    -0.270 OA
BRANCH  21  23
HETATM   23  C24   D T9001     -17.503   3.380  -1.671  1.00 35.38     0.092 C 
BRANCH  23  24
HETATM   24  C23   D T9001     -17.634   3.626  -0.158  1.00 34.93     0.051 C 
BRANCH  24  25
HETATM   25  C25   D T9001     -17.857   5.122   0.092  1.00 37.23     0.339 C 
HETATM   26  N33   D T9001     -16.590   5.779   0.583  1.00 41.10     0.618 N 
ENDBRANCH  24  25
ENDBRANCH  23  24
ENDBRANCH  21  23
ENDBRANCH   1  20
BRANCH   2  27
HETATM   27  O11   D T9001     -15.532   2.254  -5.528  1.00 31.09    -0.327 OA
HETATM   28  C12   D T9001     -15.437   0.881  -5.917  1.00 29.66     0.181 C 
ENDBRANCH   2  27
TORSDOF 7
ENDMDL
MODEL 7
REMARK VINA RESULT:    -6.912      4.381      7.833
REMARK INTER + INTRA:         -10.653
REMARK INTER:                  -9.568
REMARK INTRA:                  -1.085
REMARK UNBOUND:                -0.913
REMARK  7 active torsions:
REMARK  status: ('A' for Active; 'I' for Inactive)
REMARK    1  A    between atoms: C1_1  and  N13_22 
REMARK    2  A    between atoms: C2_2  and  O11_20 
REMARK    3  A    between atoms: C10_10  and  N14_11 
REMARK    4  A    between atoms: N14_11  and  C15_12 
REMARK       I    between atoms: N13_22  and  C26_23 
REMARK    5  A    between atoms: C26_23  and  C24_24 
REMARK    6  A    between atoms: C24_24  and  C23_25 
REMARK    7  A    between atoms: C23_25  and  C25_26 
ROOT
HETATM    1  C1    D T9001     -14.577   5.211  -2.133  1.00 30.38     0.107 A 
HETATM    2  C2    D T9001     -13.668   5.761  -1.166  1.00 29.65     0.113 A 
HETATM    3  C3    D T9001     -12.272   5.811  -1.481  1.00 28.21     0.045 A 
HETATM    4  C4    D T9001     -11.765   5.334  -2.708  1.00 27.21     0.088 A 
HETATM    5  C5    D T9001     -12.677   4.768  -3.671  1.00 26.27     0.055 A 
HETATM    6  C6    D T9001     -14.072   4.717  -3.367  1.00 29.22     0.026 A 
HETATM    7  N7    D T9001     -10.431   5.427  -2.930  1.00 25.99    -0.224 NA
HETATM    8  C8    D T9001      -9.976   4.961  -4.111  1.00 24.59     0.200 A 
HETATM    9  N9    D T9001     -10.724   4.402  -5.087  1.00 25.70    -0.205 NA
HETATM   10  C10   D T9001     -12.085   4.299  -4.876  1.00 27.48     0.166 A 
ENDROOT
BRANCH  10  11
HETATM   11  N14   D T9001     -12.906   3.709  -5.888  1.00 23.22    -0.227 NA
BRANCH  11  12
HETATM   12  C15   D T9001     -13.051   2.326  -6.165  1.00 24.25     0.084 A 
HETATM   13  C16   D T9001     -12.475   1.724  -7.331  1.00 25.06     0.033 A 
HETATM   14  C17   D T9001     -12.634   0.355  -7.596  1.00 28.28     0.087 A 
HETATM   15  C18   D T9001     -13.373  -0.456  -6.703  1.00 25.55     0.151 A 
HETATM   16 CL     D T9001     -11.916  -0.292  -9.021  1.00 31.70    -0.080 Cl
HETATM   17  C19   D T9001     -13.957   0.108  -5.540  1.00 24.70     0.032 A 
HETATM   18  F21   D T9001     -13.539  -1.766  -6.940  1.00 27.22    -0.203 F 
HETATM   19  C20   D T9001     -13.794   1.496  -5.273  1.00 24.32     0.021 A 
ENDBRANCH  11  12
ENDBRANCH  10  11
BRANCH   1  20
HETATM   20  N13   D T9001     -15.964   5.204  -1.812  1.00 34.61    -0.210 NA
HETATM   21  C26   D T9001     -16.581   4.089  -1.218  1.00 36.24     0.256 C 
HETATM   22  O27   D T9001     -16.026   3.033  -0.913  1.00 39.97    -0.270 OA
BRANCH  21  23
HETATM   23  C24   D T9001     -18.071   4.303  -1.012  1.00 35.38     0.092 C 
BRANCH  23  24
HETATM   24  C23   D T9001     -18.369   5.547  -0.159  1.00 34.93     0.051 C 
BRANCH  24  25
HETATM   25  C25   D T9001     -17.978   5.265   1.297  1.00 37.23     0.339 C 
HETATM   26  N33   D T9001     -18.496   3.918   1.740  1.00 41.10     0.618 N 
ENDBRANCH  24  25
ENDBRANCH  23  24
ENDBRANCH  21  23
ENDBRANCH   1  20
BRANCH   2  27
HETATM   27  O11   D T9001     -14.256   6.205   0.015  1.00 31.09    -0.327 OA
HETATM   28  C12   D T9001     -14.403   7.607   0.257  1.00 29.66     0.181 C 
ENDBRANCH   2  27
TORSDOF 7
ENDMDL
MODEL 8
REMARK VINA RESULT:    -6.756      4.367      7.981
REMARK INTER + INTRA:         -10.434
REMARK INTER:                  -9.405
REMARK INTRA:                  -1.029
REMARK UNBOUND:                -0.913
REMARK  7 active torsions:
REMARK  status: ('A' for Active; 'I' for Inactive)
REMARK    1  A    between atoms: C1_1  and  N13_22 
REMARK    2  A    between atoms: C2_2  and  O11_20 
REMARK    3  A    between atoms: C10_10  and  N14_11 
REMARK    4  A    between atoms: N14_11  and  C15_12 
REMARK       I    between atoms: N13_22  and  C26_23 
REMARK    5  A    between atoms: C26_23  and  C24_24 
REMARK    6  A    between atoms: C24_24  and  C23_25 
REMARK    7  A    between atoms: C23_25  and  C25_26 
ROOT
HETATM    1  C1    D T9001     -12.839   3.649  -5.409  1.00 30.38     0.107 A 
HETATM    2  C2    D T9001     -11.519   4.061  -5.022  1.00 29.65     0.113 A 
HETATM    3  C3    D T9001     -10.390   3.439  -5.644  1.00 28.21     0.045 A 
HETATM    4  C4    D T9001     -10.536   2.433  -6.623  1.00 27.21     0.088 A 
HETATM    5  C5    D T9001     -11.862   2.009  -7.000  1.00 26.27     0.055 A 
HETATM    6  C6    D T9001     -12.994   2.626  -6.386  1.00 29.22     0.026 A 
HETATM    7  N7    D T9001      -9.415   1.902  -7.169  1.00 25.99    -0.224 NA
HETATM    8  C8    D T9001      -9.587   0.941  -8.099  1.00 24.59     0.200 A 
HETATM    9  N9    D T9001     -10.770   0.453  -8.530  1.00 25.70    -0.205 NA
HETATM   10  C10   D T9001     -11.922   0.982  -7.983  1.00 27.48     0.166 A 
ENDROOT
BRANCH  10  11
HETATM   11  N14   D T9001     -13.193   0.486  -8.413  1.00 23.22    -0.227 NA
BRANCH  11  12
HETATM   12  C15   D T9001     -13.843  -0.691  -7.960  1.00 24.25     0.084 A 
HETATM   13  C16   D T9001     -14.826  -1.364  -8.755  1.00 25.06     0.033 A 
HETATM   14  C17   D T9001     -15.467  -2.524  -8.291  1.00 28.28     0.087 A 
HETATM   15  C18   D T9001     -15.144  -3.046  -7.017  1.00 25.55     0.151 A 
HETATM   16 CL     D T9001     -16.642  -3.272  -9.303  1.00 31.70    -0.080 Cl
HETATM   17  C19   D T9001     -14.175  -2.404  -6.204  1.00 24.70     0.032 A 
HETATM   18  F21   D T9001     -15.748  -4.151  -6.553  1.00 27.22    -0.203 F 
HETATM   19  C20   D T9001     -13.526  -1.230  -6.677  1.00 24.32     0.021 A 
ENDBRANCH  11  12
ENDBRANCH  10  11
BRANCH   1  20
HETATM   20  N13   D T9001     -13.945   4.307  -4.802  1.00 34.61    -0.210 NA
HETATM   21  C26   D T9001     -14.583   3.784  -3.664  1.00 36.24     0.256 C 
HETATM   22  O27   D T9001     -14.277   2.746  -3.075  1.00 39.97    -0.270 OA
BRANCH  21  23
HETATM   23  C24   D T9001     -15.762   4.638  -3.227  1.00 35.38     0.092 C 
BRANCH  23  24
HETATM   24  C23   D T9001     -15.840   4.785  -1.698  1.00 34.93     0.051 C 
BRANCH  24  25
HETATM   25  C25   D T9001     -17.267   4.472  -1.234  1.00 37.23     0.339 C 
HETATM   26  N33   D T9001     -17.687   3.092  -1.679  1.00 41.10     0.618 N 
ENDBRANCH  24  25
ENDBRANCH  23  24
ENDBRANCH  21  23
ENDBRANCH   1  20
BRANCH   2  27
HETATM   27  O11   D T9001     -11.470   5.057  -4.050  1.00 31.09    -0.327 OA
HETATM   28  C12   D T9001     -10.209   5.572  -3.616  1.00 29.66     0.181 C 
ENDBRANCH   2  27
TORSDOF 7
ENDMDL
MODEL 9
REMARK VINA RESULT:    -6.597      3.268      5.837
REMARK INTER + INTRA:         -10.209
REMARK INTER:                  -8.994
REMARK INTRA:                  -1.215
REMARK UNBOUND:                -0.913
REMARK  7 active torsions:
REMARK  status: ('A' for Active; 'I' for Inactive)
REMARK    1  A    between atoms: C1_1  and  N13_22 
REMARK    2  A    between atoms: C2_2  and  O11_20 
REMARK    3  A    between atoms: C10_10  and  N14_11 
REMARK    4  A    between atoms: N14_11  and  C15_12 
REMARK       I    between atoms: N13_22  and  C26_23 
REMARK    5  A    between atoms: C26_23  and  C24_24 
REMARK    6  A    between atoms: C24_24  and  C23_25 
REMARK    7  A    between atoms: C23_25  and  C25_26 
ROOT
HETATM    1  C1    D T9001     -14.257   4.634  -4.253  1.00 30.38     0.107 A 
HETATM    2  C2    D T9001     -13.453   3.790  -5.092  1.00 29.65     0.113 A 
HETATM    3  C3    D T9001     -14.059   2.646  -5.705  1.00 28.21     0.045 A 
HETATM    4  C4    D T9001     -15.417   2.323  -5.505  1.00 27.21     0.088 A 
HETATM    5  C5    D T9001     -16.219   3.162  -4.649  1.00 26.27     0.055 A 
HETATM    6  C6    D T9001     -15.624   4.307  -4.036  1.00 29.22     0.026 A 
HETATM    7  N7    D T9001     -15.915   1.227  -6.129  1.00 25.99    -0.224 NA
HETATM    8  C8    D T9001     -17.216   0.943  -5.916  1.00 24.59     0.200 A 
HETATM    9  N9    D T9001     -18.065   1.642  -5.133  1.00 25.70    -0.205 NA
HETATM   10  C10   D T9001     -17.575   2.761  -4.489  1.00 27.48     0.166 A 
ENDROOT
BRANCH  10  11
HETATM   11  N14   D T9001     -18.447   3.523  -3.649  1.00 23.22    -0.227 NA
BRANCH  11  12
HETATM   12  C15   D T9001     -18.623   3.373  -2.249  1.00 24.25     0.084 A 
HETATM   13  C16   D T9001     -18.294   4.421  -1.330  1.00 25.06     0.033 A 
HETATM   14  C17   D T9001     -18.466   4.257   0.053  1.00 28.28     0.087 A 
HETATM   15  C18   D T9001     -18.974   3.037   0.560  1.00 25.55     0.151 A 
HETATM   16 CL     D T9001     -18.042   5.561   1.094  1.00 31.70    -0.080 Cl
HETATM   17  C19   D T9001     -19.309   1.978  -0.322  1.00 24.70     0.032 A 
HETATM   18  F21   D T9001     -19.143   2.858   1.879  1.00 27.22    -0.203 F 
HETATM   19  C20   D T9001     -19.134   2.149  -1.724  1.00 24.32     0.021 A 
ENDBRANCH  11  12
ENDBRANCH  10  11
BRANCH   1  20
HETATM   20  N13   D T9001     -13.642   5.784  -3.684  1.00 34.61    -0.210 NA
HETATM   21  C26   D T9001     -13.171   5.794  -2.360  1.00 36.24     0.256 C 
HETATM   22  O27   D T9001     -13.225   4.853  -1.566  1.00 39.97    -0.270 OA
BRANCH  21  23
HETATM   23  C24   D T9001     -12.596   7.144  -1.967  1.00 35.38     0.092 C 
BRANCH  23  24
HETATM   24  C23   D T9001     -11.394   7.542  -2.840  1.00 34.93     0.051 C 
BRANCH  24  25
HETATM   25  C25   D T9001     -10.210   6.624  -2.514  1.00 37.23     0.339 C 
HETATM   26  N33   D T9001      -9.571   6.101  -3.778  1.00 41.10     0.618 N 
ENDBRANCH  24  25
ENDBRANCH  23  24
ENDBRANCH  21  23
ENDBRANCH   1  20
BRANCH   2  27
HETATM   27  O11   D T9001     -12.126   4.184  -5.232  1.00 31.09    -0.327 OA
HETATM   28  C12   D T9001     -11.135   3.233  -5.629  1.00 29.66     0.181 C 
ENDBRANCH   2  27
TORSDOF 7
ENDMDL
