MODEL 1
REMARK VINA RESULT:    -7.766      0.000      0.000
REMARK INTER + INTRA:         -11.983
REMARK INTER:                 -10.944
REMARK INTRA:                  -1.039
REMARK UNBOUND:                -1.039
REMARK  7 active torsions:
REMARK  status: ('A' for Active; 'I' for Inactive)
REMARK    1  A    between atoms: C1_1  and  N13_22 
REMARK    2  A    between atoms: C2_2  and  O11_20 
REMARK    3  A    between atoms: C10_10  and  N14_11 
REMARK    4  A    between atoms: N14_11  and  C15_12 
REMARK       I    between atoms: N13_22  and  C26_23 
REMARK    5  A    between atoms: C26_23  and  C24_24 
REMARK    6  A    between atoms: C24_24  and  C23_25 
REMARK    7  A    between atoms: C23_25  and  C25_26 
ROOT
HETATM    1  C1    D T9001      -4.976  -0.615   6.949  1.00 30.38     0.107 A 
HETATM    2  C2    D T9001      -4.698   0.775   6.719  1.00 29.65     0.113 A 
HETATM    3  C3    D T9001      -5.478   1.483   5.749  1.00 28.21     0.045 A 
HETATM    4  C4    D T9001      -6.505   0.856   5.014  1.00 27.21     0.088 A 
HETATM    5  C5    D T9001      -6.773  -0.544   5.237  1.00 26.27     0.055 A 
HETATM    6  C6    D T9001      -6.002  -1.257   6.204  1.00 29.22     0.026 A 
HETATM    7  N7    D T9001      -7.204   1.602   4.122  1.00 25.99    -0.224 NA
HETATM    8  C8    D T9001      -8.178   0.974   3.433  1.00 24.59     0.200 A 
HETATM    9  N9    D T9001      -8.517  -0.329   3.544  1.00 25.70    -0.205 NA
HETATM   10  C10   D T9001      -7.816  -1.103   4.446  1.00 27.48     0.166 A 
ENDROOT
BRANCH  10  11
HETATM   11  N14   D T9001      -8.147  -2.488   4.586  1.00 23.22    -0.227 NA
BRANCH  11  12
HETATM   12  C15   D T9001      -7.867  -3.524   3.659  1.00 24.25     0.084 A 
HETATM   13  C16   D T9001      -8.865  -4.023   2.759  1.00 25.06     0.033 A 
HETATM   14  C17   D T9001      -8.576  -5.054   1.853  1.00 28.28     0.087 A 
HETATM   15  C18   D T9001      -7.279  -5.619   1.817  1.00 25.55     0.151 A 
HETATM   16 CL     D T9001      -9.831  -5.602   0.807  1.00 31.70    -0.080 Cl
HETATM   17  C19   D T9001      -6.268  -5.149   2.693  1.00 24.70     0.032 A 
HETATM   18  F21   D T9001      -6.984  -6.608   0.960  1.00 27.22    -0.203 F 
HETATM   19  C20   D T9001      -6.563  -4.103   3.611  1.00 24.32     0.021 A 
ENDBRANCH  11  12
ENDBRANCH  10  11
BRANCH   1  20
HETATM   20  N13   D T9001      -4.211  -1.288   7.943  1.00 34.61    -0.210 NA
HETATM   21  C26   D T9001      -3.136  -2.130   7.605  1.00 36.24     0.256 C 
HETATM   22  O27   D T9001      -2.742  -2.377   6.464  1.00 39.97    -0.270 OA
BRANCH  21  23
HETATM   23  C24   D T9001      -2.503  -2.767   8.830  1.00 35.38     0.092 C 
BRANCH  23  24
HETATM   24  C23   D T9001      -2.586  -1.858  10.068  1.00 34.93     0.051 C 
BRANCH  24  25
HETATM   25  C25   D T9001      -1.201  -1.761  10.716  1.00 37.23     0.339 C 
HETATM   26  N33   D T9001      -0.169  -2.490   9.891  1.00 41.10     0.618 N 
ENDBRANCH  24  25
ENDBRANCH  23  24
ENDBRANCH  21  23
ENDBRANCH   1  20
BRANCH   2  27
HETATM   27  O11   D T9001      -3.668   1.310   7.487  1.00 31.09    -0.327 OA
HETATM   28  C12   D T9001      -3.953   2.307   8.472  1.00 29.66     0.181 C 
ENDBRANCH   2  27
TORSDOF 7
ENDMDL
MODEL 2
REMARK VINA RESULT:    -7.229      4.606      7.454
REMARK INTER + INTRA:         -11.225
REMARK INTER:                 -10.502
REMARK INTRA:                  -0.724
REMARK UNBOUND:                -1.039
REMARK  7 active torsions:
REMARK  status: ('A' for Active; 'I' for Inactive)
REMARK    1  A    between atoms: C1_1  and  N13_22 
REMARK    2  A    between atoms: C2_2  and  O11_20 
REMARK    3  A    between atoms: C10_10  and  N14_11 
REMARK    4  A    between atoms: N14_11  and  C15_12 
REMARK       I    between atoms: N13_22  and  C26_23 
REMARK    5  A    between atoms: C26_23  and  C24_24 
REMARK    6  A    between atoms: C24_24  and  C23_25 
REMARK    7  A    between atoms: C23_25  and  C25_26 
ROOT
HETATM    1  C1    D T9001      -5.571  -5.282   3.215  1.00 30.38     0.107 A 
HETATM    2  C2    D T9001      -6.588  -5.357   2.204  1.00 29.65     0.113 A 
HETATM    3  C3    D T9001      -7.670  -4.420   2.240  1.00 28.21     0.045 A 
HETATM    4  C4    D T9001      -7.767  -3.430   3.240  1.00 27.21     0.088 A 
HETATM    5  C5    D T9001      -6.752  -3.365   4.263  1.00 26.27     0.055 A 
HETATM    6  C6    D T9001      -5.668  -4.294   4.232  1.00 29.22     0.026 A 
HETATM    7  N7    D T9001      -8.819  -2.575   3.196  1.00 25.99    -0.224 NA
HETATM    8  C8    D T9001      -8.885  -1.641   4.167  1.00 24.59     0.200 A 
HETATM    9  N9    D T9001      -8.007  -1.484   5.181  1.00 25.70    -0.205 NA
HETATM   10  C10   D T9001      -6.931  -2.346   5.241  1.00 27.48     0.166 A 
ENDROOT
BRANCH  10  11
HETATM   11  N14   D T9001      -5.983  -2.210   6.305  1.00 23.22    -0.227 NA
BRANCH  11  12
HETATM   12  C15   D T9001      -5.399  -1.006   6.772  1.00 24.25     0.084 A 
HETATM   13  C16   D T9001      -5.444   0.204   6.006  1.00 25.06     0.033 A 
HETATM   14  C17   D T9001      -4.855   1.386   6.478  1.00 28.28     0.087 A 
HETATM   15  C18   D T9001      -4.203   1.397   7.734  1.00 25.55     0.151 A 
HETATM   16 CL     D T9001      -4.947   2.797   5.494  1.00 31.70    -0.080 Cl
HETATM   17  C19   D T9001      -4.141   0.218   8.520  1.00 24.70     0.032 A 
HETATM   18  F21   D T9001      -3.631   2.517   8.202  1.00 27.22    -0.203 F 
HETATM   19  C20   D T9001      -4.739  -0.980   8.038  1.00 24.32     0.021 A 
ENDBRANCH  11  12
ENDBRANCH  10  11
BRANCH   1  20
HETATM   20  N13   D T9001      -4.488  -6.202   3.136  1.00 34.61    -0.210 NA
HETATM   21  C26   D T9001      -4.508  -7.428   3.825  1.00 36.24     0.256 C 
HETATM   22  O27   D T9001      -5.419  -7.839   4.544  1.00 39.97    -0.270 OA
BRANCH  21  23
HETATM   23  C24   D T9001      -3.225  -8.217   3.621  1.00 35.38     0.092 C 
BRANCH  23  24
HETATM   24  C23   D T9001      -2.007  -7.303   3.405  1.00 34.93     0.051 C 
BRANCH  24  25
HETATM   25  C25   D T9001      -1.081  -7.937   2.361  1.00 37.23     0.339 C 
HETATM   26  N33   D T9001      -0.089  -6.926   1.837  1.00 41.10     0.618 N 
ENDBRANCH  24  25
ENDBRANCH  23  24
ENDBRANCH  21  23
ENDBRANCH   1  20
BRANCH   2  27
HETATM   27  O11   D T9001      -6.413  -6.365   1.260  1.00 31.09    -0.327 OA
HETATM   28  C12   D T9001      -7.286  -7.497   1.249  1.00 29.66     0.181 C 
ENDBRANCH   2  27
TORSDOF 7
ENDMDL
MODEL 3
REMARK VINA RESULT:    -6.700      4.392      7.891
REMARK INTER + INTRA:         -10.481
REMARK INTER:                  -9.503
REMARK INTRA:                  -0.978
REMARK UNBOUND:                -1.039
REMARK  7 active torsions:
REMARK  status: ('A' for Active; 'I' for Inactive)
REMARK    1  A    between atoms: C1_1  and  N13_22 
REMARK    2  A    between atoms: C2_2  and  O11_20 
REMARK    3  A    between atoms: C10_10  and  N14_11 
REMARK    4  A    between atoms: N14_11  and  C15_12 
REMARK       I    between atoms: N13_22  and  C26_23 
REMARK    5  A    between atoms: C26_23  and  C24_24 
REMARK    6  A    between atoms: C24_24  and  C23_25 
REMARK    7  A    between atoms: C23_25  and  C25_26 
ROOT
HETATM    1  C1    D T9001      -5.893  -3.115   5.312  1.00 30.38     0.107 A 
HETATM    2  C2    D T9001      -6.664  -1.957   4.957  1.00 29.65     0.113 A 
HETATM    3  C3    D T9001      -6.378  -0.712   5.603  1.00 28.21     0.045 A 
HETATM    4  C4    D T9001      -5.367  -0.592   6.578  1.00 27.21     0.088 A 
HETATM    5  C5    D T9001      -4.603  -1.760   6.945  1.00 26.27     0.055 A 
HETATM    6  C6    D T9001      -4.880  -3.005   6.302  1.00 29.22     0.026 A 
HETATM    7  N7    D T9001      -5.153   0.626   7.135  1.00 25.99    -0.224 NA
HETATM    8  C8    D T9001      -4.181   0.709   8.067  1.00 24.59     0.200 A 
HETATM    9  N9    D T9001      -3.407  -0.310   8.500  1.00 25.70    -0.205 NA
HETATM   10  C10   D T9001      -3.611  -1.557   7.945  1.00 27.48     0.166 A 
ENDROOT
BRANCH  10  11
HETATM   11  N14   D T9001      -2.811  -2.659   8.385  1.00 23.22    -0.227 NA
BRANCH  11  12
HETATM   12  C15   D T9001      -1.426  -2.850   8.149  1.00 24.25     0.084 A 
HETATM   13  C16   D T9001      -0.484  -2.956   9.223  1.00 25.06     0.033 A 
HETATM   14  C17   D T9001       0.884  -3.137   8.975  1.00 28.28     0.087 A 
HETATM   15  C18   D T9001       1.355  -3.219   7.643  1.00 25.55     0.151 A 
HETATM   16 CL     D T9001       1.954  -3.251  10.320  1.00 31.70    -0.080 Cl
HETATM   17  C19   D T9001       0.450  -3.119   6.555  1.00 24.70     0.032 A 
HETATM   18  F21   D T9001       2.660  -3.389   7.384  1.00 27.22    -0.203 F 
HETATM   19  C20   D T9001      -0.938  -2.935   6.810  1.00 24.32     0.021 A 
ENDBRANCH  11  12
ENDBRANCH  10  11
BRANCH   1  20
HETATM   20  N13   D T9001      -6.173  -4.333   4.629  1.00 34.61    -0.210 NA
HETATM   21  C26   D T9001      -5.213  -4.964   3.820  1.00 36.24     0.256 C 
HETATM   22  O27   D T9001      -4.066  -4.565   3.612  1.00 39.97    -0.270 OA
BRANCH  21  23
HETATM   23  C24   D T9001      -5.757  -6.222   3.164  1.00 35.38     0.092 C 
BRANCH  23  24
HETATM   24  C23   D T9001      -6.279  -5.958   1.741  1.00 34.93     0.051 C 
BRANCH  24  25
HETATM   25  C25   D T9001      -7.805  -6.106   1.729  1.00 37.23     0.339 C 
HETATM   26  N33   D T9001      -8.477  -4.759   1.832  1.00 41.10     0.618 N 
ENDBRANCH  24  25
ENDBRANCH  23  24
ENDBRANCH  21  23
ENDBRANCH   1  20
BRANCH   2  27
HETATM   27  O11   D T9001      -7.640  -2.168   3.988  1.00 31.09    -0.327 OA
HETATM   28  C12   D T9001      -8.217  -1.055   3.297  1.00 29.66     0.181 C 
ENDBRANCH   2  27
TORSDOF 7
ENDMDL
MODEL 4
REMARK VINA RESULT:    -6.651      3.814      5.432
REMARK INTER + INTRA:         -10.411
REMARK INTER:                  -9.561
REMARK INTRA:                  -0.850
REMARK UNBOUND:                -1.039
REMARK  7 active torsions:
REMARK  status: ('A' for Active; 'I' for Inactive)
REMARK    1  A    between atoms: C1_1  and  N13_22 
REMARK    2  A    between atoms: C2_2  and  O11_20 
REMARK    3  A    between atoms: C10_10  and  N14_11 
REMARK    4  A    between atoms: N14_11  and  C15_12 
REMARK       I    between atoms: N13_22  and  C26_23 
REMARK    5  A    between atoms: C26_23  and  C24_24 
REMARK    6  A    between atoms: C24_24  and  C23_25 
REMARK    7  A    between atoms: C23_25  and  C25_26 
ROOT
HETATM    1  C1    D T9001      -6.055  -2.666   5.377  1.00 30.38     0.107 A 
HETATM    2  C2    D T9001      -7.073  -1.958   4.653  1.00 29.65     0.113 A 
HETATM    3  C3    D T9001      -7.664  -2.579   3.507  1.00 28.21     0.045 A 
HETATM    4  C4    D T9001      -7.275  -3.861   3.068  1.00 27.21     0.088 A 
HETATM    5  C5    D T9001      -6.242  -4.565   3.788  1.00 26.27     0.055 A 
HETATM    6  C6    D T9001      -5.649  -3.955   4.934  1.00 29.22     0.026 A 
HETATM    7  N7    D T9001      -7.893  -4.382   1.978  1.00 25.99    -0.224 NA
HETATM    8  C8    D T9001      -7.497  -5.608   1.581  1.00 24.59     0.200 A 
HETATM    9  N9    D T9001      -6.538  -6.361   2.163  1.00 25.70    -0.205 NA
HETATM   10  C10   D T9001      -5.899  -5.847   3.272  1.00 27.48     0.166 A 
ENDROOT
BRANCH  10  11
HETATM   11  N14   D T9001      -4.875  -6.617   3.910  1.00 23.22    -0.227 NA
BRANCH  11  12
HETATM   12  C15   D T9001      -3.518  -6.720   3.512  1.00 24.25     0.084 A 
HETATM   13  C16   D T9001      -2.910  -7.985   3.218  1.00 25.06     0.033 A 
HETATM   14  C17   D T9001      -1.565  -8.072   2.833  1.00 28.28     0.087 A 
HETATM   15  C18   D T9001      -0.783  -6.897   2.727  1.00 25.55     0.151 A 
HETATM   16 CL     D T9001      -0.906  -9.629   2.502  1.00 31.70    -0.080 Cl
HETATM   17  C19   D T9001      -1.352  -5.629   3.010  1.00 24.70     0.032 A 
HETATM   18  F21   D T9001       0.507  -6.960   2.364  1.00 27.22    -0.203 F 
HETATM   19  C20   D T9001      -2.718  -5.543   3.400  1.00 24.32     0.021 A 
ENDBRANCH  11  12
ENDBRANCH  10  11
BRANCH   1  20
HETATM   20  N13   D T9001      -5.507  -2.043   6.533  1.00 34.61    -0.210 NA
HETATM   21  C26   D T9001      -4.120  -1.989   6.758  1.00 36.24     0.256 C 
HETATM   22  O27   D T9001      -3.249  -2.449   6.019  1.00 39.97    -0.270 OA
BRANCH  21  23
HETATM   23  C24   D T9001      -3.782  -1.313   8.076  1.00 35.38     0.092 C 
BRANCH  23  24
HETATM   24  C23   D T9001      -4.660  -0.078   8.340  1.00 34.93     0.051 C 
BRANCH  24  25
HETATM   25  C25   D T9001      -4.012   1.149   7.690  1.00 37.23     0.339 C 
HETATM   26  N33   D T9001      -4.624   1.428   6.338  1.00 41.10     0.618 N 
ENDBRANCH  24  25
ENDBRANCH  23  24
ENDBRANCH  21  23
ENDBRANCH   1  20
BRANCH   2  27
HETATM   27  O11   D T9001      -7.392  -0.700   5.156  1.00 31.09    -0.327 OA
HETATM   28  C12   D T9001      -7.514   0.416   4.270  1.00 29.66     0.181 C 
ENDBRANCH   2  27
TORSDOF 7
ENDMDL
MODEL 5
REMARK VINA RESULT:    -6.536      4.608      7.916
REMARK INTER + INTRA:         -10.249
REMARK INTER:                  -9.373
REMARK INTRA:                  -0.876
REMARK UNBOUND:                -1.039
REMARK  7 active torsions:
REMARK  status: ('A' for Active; 'I' for Inactive)
REMARK    1  A    between atoms: C1_1  and  N13_22 
REMARK    2  A    between atoms: C2_2  and  O11_20 
REMARK    3  A    between atoms: C10_10  and  N14_11 
REMARK    4  A    between atoms: N14_11  and  C15_12 
REMARK       I    between atoms: N13_22  and  C26_23 
REMARK    5  A    between atoms: C26_23  and  C24_24 
REMARK    6  A    between atoms: C24_24  and  C23_25 
REMARK    7  A    between atoms: C23_25  and  C25_26 
ROOT
HETATM    1  C1    D T9001       0.433  -3.969   6.767  1.00 30.38     0.107 A 
HETATM    2  C2    D T9001       1.579  -3.796   7.615  1.00 29.65     0.113 A 
HETATM    3  C3    D T9001       1.407  -3.169   8.890  1.00 28.21     0.045 A 
HETATM    4  C4    D T9001       0.149  -2.715   9.335  1.00 27.21     0.088 A 
HETATM    5  C5    D T9001      -0.999  -2.876   8.476  1.00 26.27     0.055 A 
HETATM    6  C6    D T9001      -0.837  -3.504   7.204  1.00 29.22     0.026 A 
HETATM    7  N7    D T9001       0.070  -2.140  10.561  1.00 25.99    -0.224 NA
HETATM    8  C8    D T9001      -1.147  -1.713  10.958  1.00 24.59     0.200 A 
HETATM    9  N9    D T9001      -2.290  -1.798  10.244  1.00 25.70    -0.205 NA
HETATM   10  C10   D T9001      -2.228  -2.380   8.994  1.00 27.48     0.166 A 
ENDROOT
BRANCH  10  11
HETATM   11  N14   D T9001      -3.421  -2.482   8.210  1.00 23.22    -0.227 NA
BRANCH  11  12
HETATM   12  C15   D T9001      -4.058  -1.437   7.494  1.00 24.25     0.084 A 
HETATM   13  C16   D T9001      -5.265  -1.654   6.752  1.00 25.06     0.033 A 
HETATM   14  C17   D T9001      -5.879  -0.613   6.042  1.00 28.28     0.087 A 
HETATM   15  C18   D T9001      -5.308   0.682   6.051  1.00 25.55     0.151 A 
HETATM   16 CL     D T9001      -7.325  -0.956   5.170  1.00 31.70    -0.080 Cl
HETATM   17  C19   D T9001      -4.114   0.933   6.776  1.00 24.70     0.032 A 
HETATM   18  F21   D T9001      -5.878   1.691   5.376  1.00 27.22    -0.203 F 
HETATM   19  C20   D T9001      -3.493  -0.126   7.496  1.00 24.32     0.021 A 
ENDBRANCH  11  12
ENDBRANCH  10  11
BRANCH   1  20
HETATM   20  N13   D T9001       0.624  -4.627   5.519  1.00 34.61    -0.210 NA
HETATM   21  C26   D T9001       0.292  -5.982   5.339  1.00 36.24     0.256 C 
HETATM   22  O27   D T9001      -0.183  -6.730   6.194  1.00 39.97    -0.270 OA
BRANCH  21  23
HETATM   23  C24   D T9001       0.626  -6.470   3.940  1.00 35.38     0.092 C 
BRANCH  23  24
HETATM   24  C23   D T9001      -0.635  -6.743   3.102  1.00 34.93     0.051 C 
BRANCH  24  25
HETATM   25  C25   D T9001      -0.240  -7.503   1.830  1.00 37.23     0.339 C 
HETATM   26  N33   D T9001       1.112  -8.153   1.990  1.00 41.10     0.618 N 
ENDBRANCH  24  25
ENDBRANCH  23  24
ENDBRANCH  21  23
ENDBRANCH   1  20
BRANCH   2  27
HETATM   27  O11   D T9001       2.779  -4.273   7.095  1.00 31.09    -0.327 OA
HETATM   28  C12   D T9001       3.920  -4.420   7.945  1.00 29.66     0.181 C 
ENDBRANCH   2  27
TORSDOF 7
ENDMDL
MODEL 6
REMARK VINA RESULT:    -6.518      4.327      6.896
REMARK INTER + INTRA:         -10.224
REMARK INTER:                  -9.244
REMARK INTRA:                  -0.981
REMARK UNBOUND:                -1.039
REMARK  7 active torsions:
REMARK  status: ('A' for Active; 'I' for Inactive)
REMARK    1  A    between atoms: C1_1  and  N13_22 
REMARK    2  A    between atoms: C2_2  and  O11_20 
REMARK    3  A    between atoms: C10_10  and  N14_11 
REMARK    4  A    between atoms: N14_11  and  C15_12 
REMARK       I    between atoms: N13_22  and  C26_23 
REMARK    5  A    between atoms: C26_23  and  C24_24 
REMARK    6  A    between atoms: C24_24  and  C23_25 
REMARK    7  A    between atoms: C23_25  and  C25_26 
ROOT
HETATM    1  C1    D T9001       0.354  -3.896   7.113  1.00 30.38     0.107 A 
HETATM    2  C2    D T9001       0.929  -3.706   8.415  1.00 29.65     0.113 A 
HETATM    3  C3    D T9001       0.181  -2.987   9.402  1.00 28.21     0.045 A 
HETATM    4  C4    D T9001      -1.098  -2.460   9.132  1.00 27.21     0.088 A 
HETATM    5  C5    D T9001      -1.668  -2.640   7.819  1.00 26.27     0.055 A 
HETATM    6  C6    D T9001      -0.931  -3.358   6.830  1.00 29.22     0.026 A 
HETATM    7  N7    D T9001      -1.744  -1.802  10.127  1.00 25.99    -0.224 NA
HETATM    8  C8    D T9001      -2.965  -1.306   9.837  1.00 24.59     0.200 A 
HETATM    9  N9    D T9001      -3.600  -1.400   8.649  1.00 25.70    -0.205 NA
HETATM   10  C10   D T9001      -2.957  -2.067   7.626  1.00 27.48     0.166 A 
ENDROOT
BRANCH  10  11
HETATM   11  N14   D T9001      -3.599  -2.181   6.352  1.00 23.22    -0.227 NA
BRANCH  11  12
HETATM   12  C15   D T9001      -4.994  -2.137   6.098  1.00 24.25     0.084 A 
HETATM   13  C16   D T9001      -5.653  -0.927   5.704  1.00 25.06     0.033 A 
HETATM   14  C17   D T9001      -7.034  -0.897   5.463  1.00 28.28     0.087 A 
HETATM   15  C18   D T9001      -7.802  -2.077   5.608  1.00 25.55     0.151 A 
HETATM   16 CL     D T9001      -7.753   0.598   4.999  1.00 31.70    -0.080 Cl
HETATM   17  C19   D T9001      -7.182  -3.293   5.995  1.00 24.70     0.032 A 
HETATM   18  F21   D T9001      -9.125  -2.069   5.385  1.00 27.22    -0.203 F 
HETATM   19  C20   D T9001      -5.780  -3.321   6.239  1.00 24.32     0.021 A 
ENDBRANCH  11  12
ENDBRANCH  10  11
BRANCH   1  20
HETATM   20  N13   D T9001       1.102  -4.644   6.160  1.00 34.61    -0.210 NA
HETATM   21  C26   D T9001       0.888  -6.020   5.968  1.00 36.24     0.256 C 
HETATM   22  O27   D T9001       0.067  -6.716   6.567  1.00 39.97    -0.270 OA
BRANCH  21  23
HETATM   23  C24   D T9001       1.834  -6.605   4.932  1.00 35.38     0.092 C 
BRANCH  23  24
HETATM   24  C23   D T9001       1.115  -7.550   3.954  1.00 34.93     0.051 C 
BRANCH  24  25
HETATM   25  C25   D T9001       0.044  -6.765   3.190  1.00 37.23     0.339 C 
HETATM   26  N33   D T9001      -1.317  -7.390   3.377  1.00 41.10     0.618 N 
ENDBRANCH  24  25
ENDBRANCH  23  24
ENDBRANCH  21  23
ENDBRANCH   1  20
BRANCH   2  27
HETATM   27  O11   D T9001       2.194  -4.258   8.591  1.00 31.09    -0.327 OA
HETATM   28  C12   D T9001       2.356  -5.443   9.376  1.00 29.66     0.181 C 
ENDBRANCH   2  27
TORSDOF 7
ENDMDL
MODEL 7
REMARK VINA RESULT:    -6.428      3.477      6.962
REMARK INTER + INTRA:         -10.097
REMARK INTER:                  -9.195
REMARK INTRA:                  -0.902
REMARK UNBOUND:                -1.039
REMARK  7 active torsions:
REMARK  status: ('A' for Active; 'I' for Inactive)
REMARK    1  A    between atoms: C1_1  and  N13_22 
REMARK    2  A    between atoms: C2_2  and  O11_20 
REMARK    3  A    between atoms: C10_10  and  N14_11 
REMARK    4  A    between atoms: N14_11  and  C15_12 
REMARK       I    between atoms: N13_22  and  C26_23 
REMARK    5  A    between atoms: C26_23  and  C24_24 
REMARK    6  A    between atoms: C24_24  and  C23_25 
REMARK    7  A    between atoms: C23_25  and  C25_26 
ROOT
HETATM    1  C1    D T9001      -2.514  -2.323   7.868  1.00 30.38     0.107 A 
HETATM    2  C2    D T9001      -2.023  -2.169   9.209  1.00 29.65     0.113 A 
HETATM    3  C3    D T9001      -0.644  -2.446   9.476  1.00 28.21     0.045 A 
HETATM    4  C4    D T9001       0.242  -2.868   8.464  1.00 27.21     0.088 A 
HETATM    5  C5    D T9001      -0.256  -3.037   7.121  1.00 26.27     0.055 A 
HETATM    6  C6    D T9001      -1.629  -2.759   6.844  1.00 29.22     0.026 A 
HETATM    7  N7    D T9001       1.536  -3.100   8.800  1.00 25.99    -0.224 NA
HETATM    8  C8    D T9001       2.359  -3.505   7.811  1.00 24.59     0.200 A 
HETATM    9  N9    D T9001       2.013  -3.708   6.522  1.00 25.70    -0.205 NA
HETATM   10  C10   D T9001       0.700  -3.477   6.163  1.00 27.48     0.166 A 
ENDROOT
BRANCH  10  11
HETATM   11  N14   D T9001       0.299  -3.687   4.805  1.00 23.22    -0.227 NA
BRANCH  11  12
HETATM   12  C15   D T9001      -0.553  -4.711   4.320  1.00 24.25     0.084 A 
HETATM   13  C16   D T9001      -1.885  -4.436   3.868  1.00 25.06     0.033 A 
HETATM   14  C17   D T9001      -2.719  -5.461   3.398  1.00 28.28     0.087 A 
HETATM   15  C18   D T9001      -2.248  -6.795   3.364  1.00 25.55     0.151 A 
HETATM   16 CL     D T9001      -4.309  -5.050   2.877  1.00 31.70    -0.080 Cl
HETATM   17  C19   D T9001      -0.935  -7.103   3.803  1.00 24.70     0.032 A 
HETATM   18  F21   D T9001      -3.031  -7.789   2.921  1.00 27.22    -0.203 F 
HETATM   19  C20   D T9001      -0.090  -6.061   4.279  1.00 24.32     0.021 A 
ENDBRANCH  11  12
ENDBRANCH  10  11
BRANCH   1  20
HETATM   20  N13   D T9001      -3.879  -2.008   7.621  1.00 34.61    -0.210 NA
HETATM   21  C26   D T9001      -4.270  -0.752   7.123  1.00 36.24     0.256 C 
HETATM   22  O27   D T9001      -3.517   0.184   6.850  1.00 39.97    -0.270 OA
BRANCH  21  23
HETATM   23  C24   D T9001      -5.779  -0.638   6.983  1.00 35.38     0.092 C 
BRANCH  23  24
HETATM   24  C23   D T9001      -6.305  -1.368   5.736  1.00 34.93     0.051 C 
BRANCH  24  25
HETATM   25  C25   D T9001      -7.340  -0.483   5.033  1.00 37.23     0.339 C 
HETATM   26  N33   D T9001      -6.706   0.793   4.533  1.00 41.10     0.618 N 
ENDBRANCH  24  25
ENDBRANCH  23  24
ENDBRANCH  21  23
ENDBRANCH   1  20
BRANCH   2  27
HETATM   27  O11   D T9001      -2.968  -1.751  10.141  1.00 31.09    -0.327 OA
HETATM   28  C12   D T9001      -2.924  -2.253  11.480  1.00 29.66     0.181 C 
ENDBRANCH   2  27
TORSDOF 7
ENDMDL
MODEL 8
REMARK VINA RESULT:    -6.337      5.105      8.097
REMARK INTER + INTRA:          -9.969
REMARK INTER:                  -8.881
REMARK INTRA:                  -1.088
REMARK UNBOUND:                -1.039
REMARK  7 active torsions:
REMARK  status: ('A' for Active; 'I' for Inactive)
REMARK    1  A    between atoms: C1_1  and  N13_22 
REMARK    2  A    between atoms: C2_2  and  O11_20 
REMARK    3  A    between atoms: C10_10  and  N14_11 
REMARK    4  A    between atoms: N14_11  and  C15_12 
REMARK       I    between atoms: N13_22  and  C26_23 
REMARK    5  A    between atoms: C26_23  and  C24_24 
REMARK    6  A    between atoms: C24_24  and  C23_25 
REMARK    7  A    between atoms: C23_25  and  C25_26 
ROOT
HETATM    1  C1    D T9001      -5.559  -8.163   2.296  1.00 30.38     0.107 A 
HETATM    2  C2    D T9001      -6.367  -9.323   2.043  1.00 29.65     0.113 A 
HETATM    3  C3    D T9001      -7.737  -9.143   1.670  1.00 28.21     0.045 A 
HETATM    4  C4    D T9001      -8.315  -7.863   1.548  1.00 27.21     0.088 A 
HETATM    5  C5    D T9001      -7.506  -6.699   1.816  1.00 26.27     0.055 A 
HETATM    6  C6    D T9001      -6.138  -6.870   2.185  1.00 29.22     0.026 A 
HETATM    7  N7    D T9001      -9.618  -7.780   1.179  1.00 25.99    -0.224 NA
HETATM    8  C8    D T9001     -10.144  -6.542   1.074  1.00 24.59     0.200 A 
HETATM    9  N9    D T9001      -9.495  -5.381   1.307  1.00 25.70    -0.205 NA
HETATM   10  C10   D T9001      -8.169  -5.447   1.683  1.00 27.48     0.166 A 
ENDROOT
BRANCH  10  11
HETATM   11  N14   D T9001      -7.453  -4.235   1.941  1.00 23.22    -0.227 NA
BRANCH  11  12
HETATM   12  C15   D T9001      -7.567  -3.410   3.090  1.00 24.25     0.084 A 
HETATM   13  C16   D T9001      -6.673  -3.535   4.202  1.00 25.06     0.033 A 
HETATM   14  C17   D T9001      -6.802  -2.718   5.334  1.00 28.28     0.087 A 
HETATM   15  C18   D T9001      -7.831  -1.747   5.390  1.00 25.55     0.151 A 
HETATM   16 CL     D T9001      -5.691  -2.933   6.633  1.00 31.70    -0.080 Cl
HETATM   17  C19   D T9001      -8.733  -1.596   4.307  1.00 24.70     0.032 A 
HETATM   18  F21   D T9001      -7.974  -0.958   6.466  1.00 27.22    -0.203 F 
HETATM   19  C20   D T9001      -8.600  -2.426   3.159  1.00 24.32     0.021 A 
ENDBRANCH  11  12
ENDBRANCH  10  11
BRANCH   1  20
HETATM   20  N13   D T9001      -4.191  -8.368   2.630  1.00 34.61    -0.210 NA
HETATM   21  C26   D T9001      -3.786  -8.657   3.946  1.00 36.24     0.256 C 
HETATM   22  O27   D T9001      -4.528  -8.766   4.923  1.00 39.97    -0.270 OA
BRANCH  21  23
HETATM   23  C24   D T9001      -2.277  -8.791   4.062  1.00 35.38     0.092 C 
BRANCH  23  24
HETATM   24  C23   D T9001      -1.534  -7.895   3.056  1.00 34.93     0.051 C 
BRANCH  24  25
HETATM   25  C25   D T9001      -1.151  -6.578   3.741  1.00 37.23     0.339 C 
HETATM   26  N33   D T9001      -0.893  -5.497   2.720  1.00 41.10     0.618 N 
ENDBRANCH  24  25
ENDBRANCH  23  24
ENDBRANCH  21  23
ENDBRANCH   1  20
BRANCH   2  27
HETATM   27  O11   D T9001      -5.714 -10.544   2.188  1.00 31.09    -0.327 OA
HETATM   28  C12   D T9001      -6.344 -11.613   2.900  1.00 29.66     0.181 C 
ENDBRANCH   2  27
TORSDOF 7
ENDMDL
MODEL 9
REMARK VINA RESULT:    -6.336      4.848      8.002
REMARK INTER + INTRA:          -9.967
REMARK INTER:                  -9.073
REMARK INTRA:                  -0.895
REMARK UNBOUND:                -1.039
REMARK  7 active torsions:
REMARK  status: ('A' for Active; 'I' for Inactive)
REMARK    1  A    between atoms: C1_1  and  N13_22 
REMARK    2  A    between atoms: C2_2  and  O11_20 
REMARK    3  A    between atoms: C10_10  and  N14_11 
REMARK    4  A    between atoms: N14_11  and  C15_12 
REMARK       I    between atoms: N13_22  and  C26_23 
REMARK    5  A    between atoms: C26_23  and  C24_24 
REMARK    6  A    between atoms: C24_24  and  C23_25 
REMARK    7  A    between atoms: C23_25  and  C25_26 
ROOT
HETATM    1  C1    D T9001       1.505  -3.255   7.854  1.00 30.38     0.107 A 
HETATM    2  C2    D T9001       2.331  -2.880   8.967  1.00 29.65     0.113 A 
HETATM    3  C3    D T9001       1.705  -2.405  10.164  1.00 28.21     0.045 A 
HETATM    4  C4    D T9001       0.304  -2.294  10.280  1.00 27.21     0.088 A 
HETATM    5  C5    D T9001      -0.524  -2.658   9.156  1.00 26.27     0.055 A 
HETATM    6  C6    D T9001       0.092  -3.135   7.960  1.00 29.22     0.026 A 
HETATM    7  N7    D T9001      -0.209  -1.845  11.453  1.00 25.99    -0.224 NA
HETATM    8  C8    D T9001      -1.552  -1.747  11.532  1.00 24.59     0.200 A 
HETATM    9  N9    D T9001      -2.430  -2.047  10.551  1.00 25.70    -0.205 NA
HETATM   10  C10   D T9001      -1.925  -2.504   9.351  1.00 27.48     0.166 A 
ENDROOT
BRANCH  10  11
HETATM   11  N14   D T9001      -2.829  -2.827   8.289  1.00 23.22    -0.227 NA
BRANCH  11  12
HETATM   12  C15   D T9001      -3.673  -1.927   7.590  1.00 24.25     0.084 A 
HETATM   13  C16   D T9001      -4.891  -2.359   6.970  1.00 25.06     0.033 A 
HETATM   14  C17   D T9001      -5.712  -1.460   6.276  1.00 28.28     0.087 A 
HETATM   15  C18   D T9001      -5.343  -0.097   6.180  1.00 25.55     0.151 A 
HETATM   16 CL     D T9001      -7.157  -2.058   5.554  1.00 31.70    -0.080 Cl
HETATM   17  C19   D T9001      -4.145   0.366   6.782  1.00 24.70     0.032 A 
HETATM   18  F21   D T9001      -6.113   0.779   5.517  1.00 27.22    -0.203 F 
HETATM   19  C20   D T9001      -3.313  -0.550   7.486  1.00 24.32     0.021 A 
ENDBRANCH  11  12
ENDBRANCH  10  11
BRANCH   1  20
HETATM   20  N13   D T9001       2.149  -3.757   6.689  1.00 34.61    -0.210 NA
HETATM   21  C26   D T9001       2.363  -5.134   6.497  1.00 36.24     0.256 C 
HETATM   22  O27   D T9001       2.035  -6.032   7.272  1.00 39.97    -0.270 OA
BRANCH  21  23
HETATM   23  C24   D T9001       3.107  -5.420   5.203  1.00 35.38     0.092 C 
BRANCH  23  24
HETATM   24  C23   D T9001       4.194  -6.493   5.381  1.00 34.93     0.051 C 
BRANCH  24  25
HETATM   25  C25   D T9001       5.550  -5.808   5.582  1.00 37.23     0.339 C 
HETATM   26  N33   D T9001       6.220  -5.541   4.256  1.00 41.10     0.618 N 
ENDBRANCH  24  25
ENDBRANCH  23  24
ENDBRANCH  21  23
ENDBRANCH   1  20
BRANCH   2  27
HETATM   27  O11   D T9001       3.701  -3.021   8.763  1.00 31.09    -0.327 OA
HETATM   28  C12   D T9001       4.613  -2.091   9.354  1.00 29.66     0.181 C 
ENDBRANCH   2  27
TORSDOF 7
ENDMDL
