MODEL 1
REMARK VINA RESULT:    -8.092      0.000      0.000
REMARK INTER + INTRA:         -12.468
REMARK INTER:                 -11.403
REMARK INTRA:                  -1.065
REMARK UNBOUND:                -1.065
REMARK  7 active torsions:
REMARK  status: ('A' for Active; 'I' for Inactive)
REMARK    1  A    between atoms: C1_1  and  N13_22 
REMARK    2  A    between atoms: C2_2  and  O11_20 
REMARK    3  A    between atoms: C10_10  and  N14_11 
REMARK    4  A    between atoms: N14_11  and  C15_12 
REMARK       I    between atoms: N13_22  and  C26_23 
REMARK    5  A    between atoms: C26_23  and  C24_24 
REMARK    6  A    between atoms: C24_24  and  C23_25 
REMARK    7  A    between atoms: C23_25  and  C25_26 
ROOT
HETATM    1  C1    D T9001       3.456  16.613  -2.381  1.00 30.38     0.107 A 
HETATM    2  C2    D T9001       4.571  17.157  -1.655  1.00 29.65     0.113 A 
HETATM    3  C3    D T9001       4.950  16.548  -0.416  1.00 28.21     0.045 A 
HETATM    4  C4    D T9001       4.262  15.436   0.112  1.00 27.21     0.088 A 
HETATM    5  C5    D T9001       3.133  14.902  -0.610  1.00 26.27     0.055 A 
HETATM    6  C6    D T9001       2.749  15.500  -1.849  1.00 29.22     0.026 A 
HETATM    7  N7    D T9001       4.692  14.915   1.287  1.00 25.99    -0.224 NA
HETATM    8  C8    D T9001       4.012  13.853   1.769  1.00 24.59     0.200 A 
HETATM    9  N9    D T9001       2.939  13.270   1.193  1.00 25.70    -0.205 NA
HETATM   10  C10   D T9001       2.488  13.788  -0.003  1.00 27.48     0.166 A 
ENDROOT
BRANCH  10  11
HETATM   11  N14   D T9001       1.350  13.197  -0.637  1.00 23.22    -0.227 NA
BRANCH  11  12
HETATM   12  C15   D T9001      -0.007  13.580  -0.479  1.00 24.25     0.084 A 
HETATM   13  C16   D T9001      -0.963  13.426  -1.534  1.00 25.06     0.033 A 
HETATM   14  C17   D T9001      -2.299  13.816  -1.367  1.00 28.28     0.087 A 
HETATM   15  C18   D T9001      -2.724  14.374  -0.138  1.00 25.55     0.151 A 
HETATM   16 CL     D T9001      -3.387  13.603  -2.685  1.00 31.70    -0.080 Cl
HETATM   17  C19   D T9001      -1.803  14.540   0.928  1.00 24.70     0.032 A 
HETATM   18  F21   D T9001      -3.997  14.756   0.042  1.00 27.22    -0.203 F 
HETATM   19  C20   D T9001      -0.448  14.142   0.756  1.00 24.32     0.021 A 
ENDBRANCH  11  12
ENDBRANCH  10  11
BRANCH   1  20
HETATM   20  N13   D T9001       3.120  17.212  -3.627  1.00 34.61    -0.210 NA
HETATM   21  C26   D T9001       2.128  18.202  -3.728  1.00 36.24     0.256 C 
HETATM   22  O27   D T9001       1.461  18.656  -2.797  1.00 39.97    -0.270 OA
BRANCH  21  23
HETATM   23  C24   D T9001       1.919  18.656  -5.164  1.00 35.38     0.092 C 
BRANCH  23  24
HETATM   24  C23   D T9001       3.178  18.457  -6.026  1.00 34.93     0.051 C 
BRANCH  24  25
HETATM   25  C25   D T9001       3.058  19.308  -7.295  1.00 37.23     0.339 C 
HETATM   26  N33   D T9001       1.643  19.801  -7.480  1.00 41.10     0.618 N 
ENDBRANCH  24  25
ENDBRANCH  23  24
ENDBRANCH  21  23
ENDBRANCH   1  20
BRANCH   2  27
HETATM   27  O11   D T9001       5.187  18.252  -2.251  1.00 31.09    -0.327 OA
HETATM   28  C12   D T9001       6.586  18.212  -2.548  1.00 29.66     0.181 C 
ENDBRANCH   2  27
TORSDOF 7
ENDMDL
MODEL 2
REMARK VINA RESULT:    -7.929      1.526      1.757
REMARK INTER + INTRA:         -12.238
REMARK INTER:                 -11.227
REMARK INTRA:                  -1.012
REMARK UNBOUND:                -1.065
REMARK  7 active torsions:
REMARK  status: ('A' for Active; 'I' for Inactive)
REMARK    1  A    between atoms: C1_1  and  N13_22 
REMARK    2  A    between atoms: C2_2  and  O11_20 
REMARK    3  A    between atoms: C10_10  and  N14_11 
REMARK    4  A    between atoms: N14_11  and  C15_12 
REMARK       I    between atoms: N13_22  and  C26_23 
REMARK    5  A    between atoms: C26_23  and  C24_24 
REMARK    6  A    between atoms: C24_24  and  C23_25 
REMARK    7  A    between atoms: C23_25  and  C25_26 
ROOT
HETATM    1  C1    D T9001       3.718  16.473  -2.381  1.00 30.38     0.107 A 
HETATM    2  C2    D T9001       4.815  16.989  -1.610  1.00 29.65     0.113 A 
HETATM    3  C3    D T9001       5.080  16.423  -0.322  1.00 28.21     0.045 A 
HETATM    4  C4    D T9001       4.299  15.377   0.210  1.00 27.21     0.088 A 
HETATM    5  C5    D T9001       3.188  14.870  -0.558  1.00 26.27     0.055 A 
HETATM    6  C6    D T9001       2.917  15.427  -1.845  1.00 29.22     0.026 A 
HETATM    7  N7    D T9001       4.625  14.891   1.433  1.00 25.99    -0.224 NA
HETATM    8  C8    D T9001       3.856  13.893   1.917  1.00 24.59     0.200 A 
HETATM    9  N9    D T9001       2.789  13.341   1.300  1.00 25.70    -0.205 NA
HETATM   10  C10   D T9001       2.443  13.825   0.056  1.00 27.48     0.166 A 
ENDROOT
BRANCH  10  11
HETATM   11  N14   D T9001       1.315  13.265  -0.623  1.00 23.22    -0.227 NA
BRANCH  11  12
HETATM   12  C15   D T9001      -0.045  13.635  -0.459  1.00 24.25     0.084 A 
HETATM   13  C16   D T9001      -1.008  13.453  -1.504  1.00 25.06     0.033 A 
HETATM   14  C17   D T9001      -2.348  13.829  -1.330  1.00 28.28     0.087 A 
HETATM   15  C18   D T9001      -2.769  14.400  -0.106  1.00 25.55     0.151 A 
HETATM   16 CL     D T9001      -3.444  13.583  -2.636  1.00 31.70    -0.080 Cl
HETATM   17  C19   D T9001      -1.841  14.593   0.950  1.00 24.70     0.032 A 
HETATM   18  F21   D T9001      -4.045  14.769   0.079  1.00 27.22    -0.203 F 
HETATM   19  C20   D T9001      -0.482  14.210   0.772  1.00 24.32     0.021 A 
ENDBRANCH  11  12
ENDBRANCH  10  11
BRANCH   1  20
HETATM   20  N13   D T9001       3.495  17.027  -3.672  1.00 34.61    -0.210 NA
HETATM   21  C26   D T9001       4.018  16.433  -4.833  1.00 36.24     0.256 C 
HETATM   22  O27   D T9001       4.698  15.408  -4.877  1.00 39.97    -0.270 OA
BRANCH  21  23
HETATM   23  C24   D T9001       3.682  17.231  -6.083  1.00 35.38     0.092 C 
BRANCH  23  24
HETATM   24  C23   D T9001       4.351  16.649  -7.341  1.00 34.93     0.051 C 
BRANCH  24  25
HETATM   25  C25   D T9001       5.370  17.659  -7.882  1.00 37.23     0.339 C 
HETATM   26  N33   D T9001       6.720  17.457  -7.237  1.00 41.10     0.618 N 
ENDBRANCH  24  25
ENDBRANCH  23  24
ENDBRANCH  21  23
ENDBRANCH   1  20
BRANCH   2  27
HETATM   27  O11   D T9001       5.529  18.020  -2.213  1.00 31.09    -0.327 OA
HETATM   28  C12   D T9001       6.934  17.879  -2.439  1.00 29.66     0.181 C 
ENDBRANCH   2  27
TORSDOF 7
ENDMDL
MODEL 3
REMARK VINA RESULT:    -7.870      3.641      6.243
REMARK INTER + INTRA:         -12.156
REMARK INTER:                 -11.580
REMARK INTRA:                  -0.576
REMARK UNBOUND:                -1.065
REMARK  7 active torsions:
REMARK  status: ('A' for Active; 'I' for Inactive)
REMARK    1  A    between atoms: C1_1  and  N13_22 
REMARK    2  A    between atoms: C2_2  and  O11_20 
REMARK    3  A    between atoms: C10_10  and  N14_11 
REMARK    4  A    between atoms: N14_11  and  C15_12 
REMARK       I    between atoms: N13_22  and  C26_23 
REMARK    5  A    between atoms: C26_23  and  C24_24 
REMARK    6  A    between atoms: C24_24  and  C23_25 
REMARK    7  A    between atoms: C23_25  and  C25_26 
ROOT
HETATM    1  C1    D T9001       1.445  16.174  -2.687  1.00 30.38     0.107 A 
HETATM    2  C2    D T9001       1.516  17.539  -3.127  1.00 29.65     0.113 A 
HETATM    3  C3    D T9001       2.779  18.214  -3.083  1.00 28.21     0.045 A 
HETATM    4  C4    D T9001       3.949  17.579  -2.620  1.00 27.21     0.088 A 
HETATM    5  C5    D T9001       3.873  16.213  -2.163  1.00 26.27     0.055 A 
HETATM    6  C6    D T9001       2.618  15.531  -2.206  1.00 29.22     0.026 A 
HETATM    7  N7    D T9001       5.106  18.287  -2.620  1.00 25.99    -0.224 NA
HETATM    8  C8    D T9001       6.208  17.653  -2.168  1.00 24.59     0.200 A 
HETATM    9  N9    D T9001       6.263  16.385  -1.708  1.00 25.70    -0.205 NA
HETATM   10  C10   D T9001       5.095  15.651  -1.701  1.00 27.48     0.166 A 
ENDROOT
BRANCH  10  11
HETATM   11  N14   D T9001       5.118  14.305  -1.215  1.00 23.22    -0.227 NA
BRANCH  11  12
HETATM   12  C15   D T9001       4.732  13.861   0.076  1.00 24.25     0.084 A 
HETATM   13  C16   D T9001       5.698  13.527   1.079  1.00 25.06     0.033 A 
HETATM   14  C17   D T9001       5.302  13.082   2.349  1.00 28.28     0.087 A 
HETATM   15  C18   D T9001       3.927  12.956   2.657  1.00 25.55     0.151 A 
HETATM   16 CL     D T9001       6.523  12.694   3.500  1.00 31.70    -0.080 Cl
HETATM   17  C19   D T9001       2.944  13.280   1.687  1.00 24.70     0.032 A 
HETATM   18  F21   D T9001       3.527  12.530   3.864  1.00 27.22    -0.203 F 
HETATM   19  C20   D T9001       3.348  13.732   0.399  1.00 24.32     0.021 A 
ENDBRANCH  11  12
ENDBRANCH  10  11
BRANCH   1  20
HETATM   20  N13   D T9001       0.187  15.514  -2.773  1.00 34.61    -0.210 NA
HETATM   21  C26   D T9001      -0.414  14.919  -1.650  1.00 36.24     0.256 C 
HETATM   22  O27   D T9001       0.047  14.899  -0.509  1.00 39.97    -0.270 OA
BRANCH  21  23
HETATM   23  C24   D T9001      -1.728  14.240  -2.000  1.00 35.38     0.092 C 
BRANCH  23  24
HETATM   24  C23   D T9001      -2.644  14.079  -0.774  1.00 34.93     0.051 C 
BRANCH  24  25
HETATM   25  C25   D T9001      -4.027  13.606  -1.238  1.00 37.23     0.339 C 
HETATM   26  N33   D T9001      -3.933  12.890  -2.563  1.00 41.10     0.618 N 
ENDBRANCH  24  25
ENDBRANCH  23  24
ENDBRANCH  21  23
ENDBRANCH   1  20
BRANCH   2  27
HETATM   27  O11   D T9001       0.313  18.084  -3.566  1.00 31.09    -0.327 OA
HETATM   28  C12   D T9001       0.307  19.041  -4.629  1.00 29.66     0.181 C 
ENDBRANCH   2  27
TORSDOF 7
ENDMDL
MODEL 4
REMARK VINA RESULT:    -7.819      4.588      6.883
REMARK INTER + INTRA:         -12.083
REMARK INTER:                 -11.038
REMARK INTRA:                  -1.045
REMARK UNBOUND:                -1.065
REMARK  7 active torsions:
REMARK  status: ('A' for Active; 'I' for Inactive)
REMARK    1  A    between atoms: C1_1  and  N13_22 
REMARK    2  A    between atoms: C2_2  and  O11_20 
REMARK    3  A    between atoms: C10_10  and  N14_11 
REMARK    4  A    between atoms: N14_11  and  C15_12 
REMARK       I    between atoms: N13_22  and  C26_23 
REMARK    5  A    between atoms: C26_23  and  C24_24 
REMARK    6  A    between atoms: C24_24  and  C23_25 
REMARK    7  A    between atoms: C23_25  and  C25_26 
ROOT
HETATM    1  C1    D T9001       1.509  14.469  -0.779  1.00 30.38     0.107 A 
HETATM    2  C2    D T9001       0.404  13.554  -0.839  1.00 29.65     0.113 A 
HETATM    3  C3    D T9001       0.323  12.504   0.132  1.00 28.21     0.045 A 
HETATM    4  C4    D T9001       1.294  12.343   1.141  1.00 27.21     0.088 A 
HETATM    5  C5    D T9001       2.412  13.254   1.191  1.00 26.27     0.055 A 
HETATM    6  C6    D T9001       2.500  14.305   0.227  1.00 29.22     0.026 A 
HETATM    7  N7    D T9001       1.137  11.330   2.028  1.00 25.99    -0.224 NA
HETATM    8  C8    D T9001       2.085  11.199   2.979  1.00 24.59     0.200 A 
HETATM    9  N9    D T9001       3.177  11.979   3.125  1.00 25.70    -0.205 NA
HETATM   10  C10   D T9001       3.353  13.015   2.231  1.00 27.48     0.166 A 
ENDROOT
BRANCH  10  11
HETATM   11  N14   D T9001       4.504  13.857   2.353  1.00 23.22    -0.227 NA
BRANCH  11  12
HETATM   12  C15   D T9001       5.835  13.536   1.983  1.00 24.25     0.084 A 
HETATM   13  C16   D T9001       6.839  13.240   2.960  1.00 25.06     0.033 A 
HETATM   14  C17   D T9001       8.154  12.932   2.581  1.00 28.28     0.087 A 
HETATM   15  C18   D T9001       8.507  12.909   1.211  1.00 25.55     0.151 A 
HETATM   16 CL     D T9001       9.306  12.592   3.815  1.00 31.70    -0.080 Cl
HETATM   17  C19   D T9001       7.536  13.197   0.217  1.00 24.70     0.032 A 
HETATM   18  F21   D T9001       9.759  12.620   0.826  1.00 27.22    -0.203 F 
HETATM   19  C20   D T9001       6.203  13.509   0.604  1.00 24.32     0.021 A 
ENDBRANCH  11  12
ENDBRANCH  10  11
BRANCH   1  20
HETATM   20  N13   D T9001       1.550  15.524  -1.733  1.00 34.61    -0.210 NA
HETATM   21  C26   D T9001       2.372  15.460  -2.872  1.00 36.24     0.256 C 
HETATM   22  O27   D T9001       3.119  14.529  -3.173  1.00 39.97    -0.270 OA
BRANCH  21  23
HETATM   23  C24   D T9001       2.276  16.721  -3.715  1.00 35.38     0.092 C 
BRANCH  23  24
HETATM   24  C23   D T9001       1.010  17.538  -3.398  1.00 34.93     0.051 C 
BRANCH  24  25
HETATM   25  C25   D T9001       1.401  19.003  -3.173  1.00 37.23     0.339 C 
HETATM   26  N33   D T9001       0.369  19.932  -3.765  1.00 41.10     0.618 N 
ENDBRANCH  24  25
ENDBRANCH  23  24
ENDBRANCH  21  23
ENDBRANCH   1  20
BRANCH   2  27
HETATM   27  O11   D T9001      -0.504  13.788  -1.867  1.00 31.09    -0.327 OA
HETATM   28  C12   D T9001      -1.906  13.838  -1.586  1.00 29.66     0.181 C 
ENDBRANCH   2  27
TORSDOF 7
ENDMDL
MODEL 5
REMARK VINA RESULT:    -7.785      2.352      5.731
REMARK INTER + INTRA:         -12.036
REMARK INTER:                 -11.510
REMARK INTRA:                  -0.526
REMARK UNBOUND:                -1.065
REMARK  7 active torsions:
REMARK  status: ('A' for Active; 'I' for Inactive)
REMARK    1  A    between atoms: C1_1  and  N13_22 
REMARK    2  A    between atoms: C2_2  and  O11_20 
REMARK    3  A    between atoms: C10_10  and  N14_11 
REMARK    4  A    between atoms: N14_11  and  C15_12 
REMARK       I    between atoms: N13_22  and  C26_23 
REMARK    5  A    between atoms: C26_23  and  C24_24 
REMARK    6  A    between atoms: C24_24  and  C23_25 
REMARK    7  A    between atoms: C23_25  and  C25_26 
ROOT
HETATM    1  C1    D T9001       4.665  14.708  -0.031  1.00 30.38     0.107 A 
HETATM    2  C2    D T9001       5.384  15.797  -0.632  1.00 29.65     0.113 A 
HETATM    3  C3    D T9001       4.727  16.594  -1.623  1.00 28.21     0.045 A 
HETATM    4  C4    D T9001       3.400  16.342  -2.026  1.00 27.21     0.088 A 
HETATM    5  C5    D T9001       2.684  15.238  -1.434  1.00 26.27     0.055 A 
HETATM    6  C6    D T9001       3.331  14.438  -0.442  1.00 29.22     0.026 A 
HETATM    7  N7    D T9001       2.849  17.151  -2.964  1.00 25.99    -0.224 NA
HETATM    8  C8    D T9001       1.578  16.882  -3.331  1.00 24.59     0.200 A 
HETATM    9  N9    D T9001       0.810  15.877  -2.858  1.00 25.70    -0.205 NA
HETATM   10  C10   D T9001       1.356  15.044  -1.904  1.00 27.48     0.166 A 
ENDROOT
BRANCH  10  11
HETATM   11  N14   D T9001       0.570  13.966  -1.386  1.00 23.22    -0.227 NA
BRANCH  11  12
HETATM   12  C15   D T9001      -0.822  13.983  -1.113  1.00 24.25     0.084 A 
HETATM   13  C16   D T9001      -1.782  13.499  -2.059  1.00 25.06     0.033 A 
HETATM   14  C17   D T9001      -3.156  13.529  -1.779  1.00 28.28     0.087 A 
HETATM   15  C18   D T9001      -3.615  14.043  -0.543  1.00 25.55     0.151 A 
HETATM   16 CL     D T9001      -4.249  12.934  -2.970  1.00 31.70    -0.080 Cl
HETATM   17  C19   D T9001      -2.690  14.529   0.417  1.00 24.70     0.032 A 
HETATM   18  F21   D T9001      -4.925  14.083  -0.256  1.00 27.22    -0.203 F 
HETATM   19  C20   D T9001      -1.297  14.498   0.131  1.00 24.32     0.021 A 
ENDBRANCH  11  12
ENDBRANCH  10  11
BRANCH   1  20
HETATM   20  N13   D T9001       5.326  13.951   0.976  1.00 34.61    -0.210 NA
HETATM   21  C26   D T9001       4.651  13.493   2.120  1.00 36.24     0.256 C 
HETATM   22  O27   D T9001       3.461  13.676   2.380  1.00 39.97    -0.270 OA
BRANCH  21  23
HETATM   23  C24   D T9001       5.577  12.747   3.069  1.00 35.38     0.092 C 
BRANCH  23  24
HETATM   24  C23   D T9001       7.014  13.298   3.030  1.00 34.93     0.051 C 
BRANCH  24  25
HETATM   25  C25   D T9001       7.966  12.183   2.581  1.00 37.23     0.339 C 
HETATM   26  N33   D T9001       7.202  11.048   1.944  1.00 41.10     0.618 N 
ENDBRANCH  24  25
ENDBRANCH  23  24
ENDBRANCH  21  23
ENDBRANCH   1  20
BRANCH   2  27
HETATM   27  O11   D T9001       6.686  15.970  -0.174  1.00 31.09    -0.327 OA
HETATM   28  C12   D T9001       7.610  16.761  -0.928  1.00 29.66     0.181 C 
ENDBRANCH   2  27
TORSDOF 7
ENDMDL
MODEL 6
REMARK VINA RESULT:    -7.489      3.800      7.876
REMARK INTER + INTRA:         -11.619
REMARK INTER:                 -10.988
REMARK INTRA:                  -0.631
REMARK UNBOUND:                -1.065
REMARK  7 active torsions:
REMARK  status: ('A' for Active; 'I' for Inactive)
REMARK    1  A    between atoms: C1_1  and  N13_22 
REMARK    2  A    between atoms: C2_2  and  O11_20 
REMARK    3  A    between atoms: C10_10  and  N14_11 
REMARK    4  A    between atoms: N14_11  and  C15_12 
REMARK       I    between atoms: N13_22  and  C26_23 
REMARK    5  A    between atoms: C26_23  and  C24_24 
REMARK    6  A    between atoms: C24_24  and  C23_25 
REMARK    7  A    between atoms: C23_25  and  C25_26 
ROOT
HETATM    1  C1    D T9001       3.724  13.981   1.255  1.00 30.38     0.107 A 
HETATM    2  C2    D T9001       2.750  13.044   1.741  1.00 29.65     0.113 A 
HETATM    3  C3    D T9001       1.532  12.872   1.009  1.00 28.21     0.045 A 
HETATM    4  C4    D T9001       1.260  13.594  -0.171  1.00 27.21     0.088 A 
HETATM    5  C5    D T9001       2.233  14.547  -0.649  1.00 26.27     0.055 A 
HETATM    6  C6    D T9001       3.452  14.723   0.073  1.00 29.22     0.026 A 
HETATM    7  N7    D T9001       0.086  13.364  -0.809  1.00 25.99    -0.224 NA
HETATM    8  C8    D T9001      -0.146  14.074  -1.933  1.00 24.59     0.200 A 
HETATM    9  N9    D T9001       0.678  14.996  -2.475  1.00 25.70    -0.205 NA
HETATM   10  C10   D T9001       1.877  15.243  -1.838  1.00 27.48     0.166 A 
ENDROOT
BRANCH  10  11
HETATM   11  N14   D T9001       2.771  16.218  -2.384  1.00 23.22    -0.227 NA
BRANCH  11  12
HETATM   12  C15   D T9001       2.499  17.124  -3.440  1.00 24.25     0.084 A 
HETATM   13  C16   D T9001       1.486  18.130  -3.330  1.00 25.06     0.033 A 
HETATM   14  C17   D T9001       1.221  19.015  -4.385  1.00 28.28     0.087 A 
HETATM   15  C18   D T9001       1.963  18.923  -5.587  1.00 25.55     0.151 A 
HETATM   16 CL     D T9001      -0.017  20.194  -4.177  1.00 31.70    -0.080 Cl
HETATM   17  C19   D T9001       2.974  17.939  -5.729  1.00 24.70     0.032 A 
HETATM   18  F21   D T9001       1.725  19.758  -6.609  1.00 27.22    -0.203 F 
HETATM   19  C20   D T9001       3.241  17.042  -4.657  1.00 24.32     0.021 A 
ENDBRANCH  11  12
ENDBRANCH  10  11
BRANCH   1  20
HETATM   20  N13   D T9001       4.942  14.109   1.980  1.00 34.61    -0.210 NA
HETATM   21  C26   D T9001       6.159  13.620   1.474  1.00 36.24     0.256 C 
HETATM   22  O27   D T9001       6.317  13.051   0.394  1.00 39.97    -0.270 OA
BRANCH  21  23
HETATM   23  C24   D T9001       7.308  13.835   2.446  1.00 35.38     0.092 C 
BRANCH  23  24
HETATM   24  C23   D T9001       7.254  12.859   3.635  1.00 34.93     0.051 C 
BRANCH  24  25
HETATM   25  C25   D T9001       8.670  12.665   4.190  1.00 37.23     0.339 C 
HETATM   26  N33   D T9001       8.910  11.222   4.559  1.00 41.10     0.618 N 
ENDBRANCH  24  25
ENDBRANCH  23  24
ENDBRANCH  21  23
ENDBRANCH   1  20
BRANCH   2  27
HETATM   27  O11   D T9001       3.102  12.378   2.911  1.00 31.09    -0.327 OA
HETATM   28  C12   D T9001       2.500  11.119   3.226  1.00 29.66     0.181 C 
ENDBRANCH   2  27
TORSDOF 7
ENDMDL
MODEL 7
REMARK VINA RESULT:    -7.454      4.301      8.280
REMARK INTER + INTRA:         -11.569
REMARK INTER:                 -10.706
REMARK INTRA:                  -0.863
REMARK UNBOUND:                -1.065
REMARK  7 active torsions:
REMARK  status: ('A' for Active; 'I' for Inactive)
REMARK    1  A    between atoms: C1_1  and  N13_22 
REMARK    2  A    between atoms: C2_2  and  O11_20 
REMARK    3  A    between atoms: C10_10  and  N14_11 
REMARK    4  A    between atoms: N14_11  and  C15_12 
REMARK       I    between atoms: N13_22  and  C26_23 
REMARK    5  A    between atoms: C26_23  and  C24_24 
REMARK    6  A    between atoms: C24_24  and  C23_25 
REMARK    7  A    between atoms: C23_25  and  C25_26 
ROOT
HETATM    1  C1    D T9001       3.687  13.965   1.223  1.00 30.38     0.107 A 
HETATM    2  C2    D T9001       2.637  13.073   1.627  1.00 29.65     0.113 A 
HETATM    3  C3    D T9001       1.462  12.977   0.814  1.00 28.21     0.045 A 
HETATM    4  C4    D T9001       1.306  13.730  -0.367  1.00 27.21     0.088 A 
HETATM    5  C5    D T9001       2.356  14.638  -0.764  1.00 26.27     0.055 A 
HETATM    6  C6    D T9001       3.532  14.739   0.040  1.00 29.22     0.026 A 
HETATM    7  N7    D T9001       0.167  13.572  -1.084  1.00 25.99    -0.224 NA
HETATM    8  C8    D T9001       0.046  14.310  -2.208  1.00 24.59     0.200 A 
HETATM    9  N9    D T9001       0.950  15.196  -2.678  1.00 25.70    -0.205 NA
HETATM   10  C10   D T9001       2.115  15.370  -1.960  1.00 27.48     0.166 A 
ENDROOT
BRANCH  10  11
HETATM   11  N14   D T9001       3.092  16.305  -2.428  1.00 23.22    -0.227 NA
BRANCH  11  12
HETATM   12  C15   D T9001       3.809  16.245  -3.650  1.00 24.25     0.084 A 
HETATM   13  C16   D T9001       3.389  16.976  -4.808  1.00 25.06     0.033 A 
HETATM   14  C17   D T9001       4.104  16.902  -6.012  1.00 28.28     0.087 A 
HETATM   15  C18   D T9001       5.262  16.094  -6.098  1.00 25.55     0.151 A 
HETATM   16 CL     D T9001       3.532  17.806  -7.362  1.00 31.70    -0.080 Cl
HETATM   17  C19   D T9001       5.706  15.358  -4.970  1.00 24.70     0.032 A 
HETATM   18  F21   D T9001       5.959  16.007  -7.241  1.00 27.22    -0.203 F 
HETATM   19  C20   D T9001       4.980  15.435  -3.749  1.00 24.32     0.021 A 
ENDBRANCH  11  12
ENDBRANCH  10  11
BRANCH   1  20
HETATM   20  N13   D T9001       4.860  14.018   2.027  1.00 34.61    -0.210 NA
HETATM   21  C26   D T9001       6.094  13.527   1.570  1.00 36.24     0.256 C 
HETATM   22  O27   D T9001       6.306  13.017   0.469  1.00 39.97    -0.270 OA
BRANCH  21  23
HETATM   23  C24   D T9001       7.184  13.654   2.622  1.00 35.38     0.092 C 
BRANCH  23  24
HETATM   24  C23   D T9001       7.074  12.569   3.708  1.00 34.93     0.051 C 
BRANCH  24  25
HETATM   25  C25   D T9001       8.401  11.807   3.792  1.00 37.23     0.339 C 
HETATM   26  N33   D T9001       8.859  11.681   5.225  1.00 41.10     0.618 N 
ENDBRANCH  24  25
ENDBRANCH  23  24
ENDBRANCH  21  23
ENDBRANCH   1  20
BRANCH   2  27
HETATM   27  O11   D T9001       2.876  12.372   2.805  1.00 31.09    -0.327 OA
HETATM   28  C12   D T9001       2.341  11.056   2.975  1.00 29.66     0.181 C 
ENDBRANCH   2  27
TORSDOF 7
ENDMDL
MODEL 8
REMARK VINA RESULT:    -7.179      4.451      6.721
REMARK INTER + INTRA:         -11.182
REMARK INTER:                 -10.073
REMARK INTRA:                  -1.108
REMARK UNBOUND:                -1.065
REMARK  7 active torsions:
REMARK  status: ('A' for Active; 'I' for Inactive)
REMARK    1  A    between atoms: C1_1  and  N13_22 
REMARK    2  A    between atoms: C2_2  and  O11_20 
REMARK    3  A    between atoms: C10_10  and  N14_11 
REMARK    4  A    between atoms: N14_11  and  C15_12 
REMARK       I    between atoms: N13_22  and  C26_23 
REMARK    5  A    between atoms: C26_23  and  C24_24 
REMARK    6  A    between atoms: C24_24  and  C23_25 
REMARK    7  A    between atoms: C23_25  and  C25_26 
ROOT
HETATM    1  C1    D T9001       2.465  14.761  -1.015  1.00 30.38     0.107 A 
HETATM    2  C2    D T9001       1.267  14.036  -1.336  1.00 29.65     0.113 A 
HETATM    3  C3    D T9001       0.835  12.993  -0.455  1.00 28.21     0.045 A 
HETATM    4  C4    D T9001       1.549  12.657   0.713  1.00 27.21     0.088 A 
HETATM    5  C5    D T9001       2.761  13.376   1.026  1.00 26.27     0.055 A 
HETATM    6  C6    D T9001       3.198  14.420   0.154  1.00 29.22     0.026 A 
HETATM    7  N7    D T9001       1.066  11.663   1.498  1.00 25.99    -0.224 NA
HETATM    8  C8    D T9001       1.773  11.362   2.607  1.00 24.59     0.200 A 
HETATM    9  N9    D T9001       2.921  11.954   3.002  1.00 25.70    -0.205 NA
HETATM   10  C10   D T9001       3.428  12.967   2.214  1.00 27.48     0.166 A 
ENDROOT
BRANCH  10  11
HETATM   11  N14   D T9001       4.645  13.612   2.601  1.00 23.22    -0.227 NA
BRANCH  11  12
HETATM   12  C15   D T9001       5.934  13.392   2.052  1.00 24.25     0.084 A 
HETATM   13  C16   D T9001       6.668  14.440   1.407  1.00 25.06     0.033 A 
HETATM   14  C17   D T9001       7.939  14.208   0.862  1.00 28.28     0.087 A 
HETATM   15  C18   D T9001       8.519  12.920   0.945  1.00 25.55     0.151 A 
HETATM   16 CL     D T9001       8.756  15.517   0.097  1.00 31.70    -0.080 Cl
HETATM   17  C19   D T9001       7.820  11.860   1.579  1.00 24.70     0.032 A 
HETATM   18  F21   D T9001       9.733  12.675   0.428  1.00 27.22    -0.203 F 
HETATM   19  C20   D T9001       6.531  12.098   2.131  1.00 24.32     0.021 A 
ENDBRANCH  11  12
ENDBRANCH  10  11
BRANCH   1  20
HETATM   20  N13   D T9001       2.855  15.816  -1.886  1.00 34.61    -0.210 NA
HETATM   21  C26   D T9001       3.966  15.698  -2.739  1.00 36.24     0.256 C 
HETATM   22  O27   D T9001       4.701  14.715  -2.838  1.00 39.97    -0.270 OA
BRANCH  21  23
HETATM   23  C24   D T9001       4.209  16.968  -3.539  1.00 35.38     0.092 C 
BRANCH  23  24
HETATM   24  C23   D T9001       5.087  17.976  -2.776  1.00 34.93     0.051 C 
BRANCH  24  25
HETATM   25  C25   D T9001       6.529  17.873  -3.288  1.00 37.23     0.339 C 
HETATM   26  N33   D T9001       7.510  18.279  -2.215  1.00 41.10     0.618 N 
ENDBRANCH  24  25
ENDBRANCH  23  24
ENDBRANCH  21  23
ENDBRANCH   1  20
BRANCH   2  27
HETATM   27  O11   D T9001       0.629  14.434  -2.506  1.00 31.09    -0.327 OA
HETATM   28  C12   D T9001      -0.577  15.200  -2.438  1.00 29.66     0.181 C 
ENDBRANCH   2  27
TORSDOF 7
ENDMDL
MODEL 9
REMARK VINA RESULT:    -7.128      3.917      5.681
REMARK INTER + INTRA:         -11.110
REMARK INTER:                 -10.218
REMARK INTRA:                  -0.893
REMARK UNBOUND:                -1.065
REMARK  7 active torsions:
REMARK  status: ('A' for Active; 'I' for Inactive)
REMARK    1  A    between atoms: C1_1  and  N13_22 
REMARK    2  A    between atoms: C2_2  and  O11_20 
REMARK    3  A    between atoms: C10_10  and  N14_11 
REMARK    4  A    between atoms: N14_11  and  C15_12 
REMARK       I    between atoms: N13_22  and  C26_23 
REMARK    5  A    between atoms: C26_23  and  C24_24 
REMARK    6  A    between atoms: C24_24  and  C23_25 
REMARK    7  A    between atoms: C23_25  and  C25_26 
ROOT
HETATM    1  C1    D T9001       2.838  17.351  -3.601  1.00 30.38     0.107 A 
HETATM    2  C2    D T9001       1.495  17.835  -3.765  1.00 29.65     0.113 A 
HETATM    3  C3    D T9001       0.412  17.058  -3.241  1.00 28.21     0.045 A 
HETATM    4  C4    D T9001       0.625  15.835  -2.572  1.00 27.21     0.088 A 
HETATM    5  C5    D T9001       1.972  15.343  -2.422  1.00 26.27     0.055 A 
HETATM    6  C6    D T9001       3.059  16.112  -2.939  1.00 29.22     0.026 A 
HETATM    7  N7    D T9001      -0.456  15.167  -2.098  1.00 25.99    -0.224 NA
HETATM    8  C8    D T9001      -0.220  13.999  -1.466  1.00 24.59     0.200 A 
HETATM    9  N9    D T9001       0.989  13.430  -1.270  1.00 25.70    -0.205 NA
HETATM   10  C10   D T9001       2.098  14.097  -1.747  1.00 27.48     0.166 A 
ENDROOT
BRANCH  10  11
HETATM   11  N14   D T9001       3.395  13.519  -1.560  1.00 23.22    -0.227 NA
BRANCH  11  12
HETATM   12  C15   D T9001       4.227  13.649  -0.419  1.00 24.25     0.084 A 
HETATM   13  C16   D T9001       5.655  13.664  -0.524  1.00 25.06     0.033 A 
HETATM   14  C17   D T9001       6.466  13.786   0.614  1.00 28.28     0.087 A 
HETATM   15  C18   D T9001       5.875  13.898   1.895  1.00 25.55     0.151 A 
HETATM   16 CL     D T9001       8.176  13.790   0.406  1.00 31.70    -0.080 Cl
HETATM   17  C19   D T9001       4.463  13.888   2.034  1.00 24.70     0.032 A 
HETATM   18  F21   D T9001       6.632  14.013   2.996  1.00 27.22    -0.203 F 
HETATM   19  C20   D T9001       3.642  13.765   0.878  1.00 24.32     0.021 A 
ENDBRANCH  11  12
ENDBRANCH  10  11
BRANCH   1  20
HETATM   20  N13   D T9001       3.900  18.156  -4.099  1.00 34.61    -0.210 NA
HETATM   21  C26   D T9001       4.432  17.966  -5.385  1.00 36.24     0.256 C 
HETATM   22  O27   D T9001       4.063  17.123  -6.203  1.00 39.97    -0.270 OA
BRANCH  21  23
HETATM   23  C24   D T9001       5.584  18.916  -5.672  1.00 35.38     0.092 C 
BRANCH  23  24
HETATM   24  C23   D T9001       6.671  18.264  -6.545  1.00 34.93     0.051 C 
BRANCH  24  25
HETATM   25  C25   D T9001       8.028  18.895  -6.211  1.00 37.23     0.339 C 
HETATM   26  N33   D T9001       8.660  19.495  -7.443  1.00 41.10     0.618 N 
ENDBRANCH  24  25
ENDBRANCH  23  24
ENDBRANCH  21  23
ENDBRANCH   1  20
BRANCH   2  27
HETATM   27  O11   D T9001       1.381  19.047  -4.438  1.00 31.09    -0.327 OA
HETATM   28  C12   D T9001       0.222  19.319  -5.231  1.00 29.66     0.181 C 
ENDBRANCH   2  27
TORSDOF 7
ENDMDL
