MODEL 1
REMARK VINA RESULT:    -7.475      0.000      0.000
REMARK INTER + INTRA:         -11.558
REMARK INTER:                 -10.534
REMARK INTRA:                  -1.025
REMARK UNBOUND:                -1.025
REMARK  7 active torsions:
REMARK  status: ('A' for Active; 'I' for Inactive)
REMARK    1  A    between atoms: C1_1  and  N13_22 
REMARK    2  A    between atoms: C2_2  and  O11_20 
REMARK    3  A    between atoms: C10_10  and  N14_11 
REMARK    4  A    between atoms: N14_11  and  C15_12 
REMARK       I    between atoms: N13_22  and  C26_23 
REMARK    5  A    between atoms: C26_23  and  C24_24 
REMARK    6  A    between atoms: C24_24  and  C23_25 
REMARK    7  A    between atoms: C23_25  and  C25_26 
ROOT
HETATM    1  C1    D T9001      11.841  13.389  -1.744  1.00 30.38     0.107 A 
HETATM    2  C2    D T9001      10.661  12.584  -1.889  1.00 29.65     0.113 A 
HETATM    3  C3    D T9001      10.485  11.454  -1.029  1.00 28.21     0.045 A 
HETATM    4  C4    D T9001      11.436  11.107  -0.048  1.00 27.21     0.088 A 
HETATM    5  C5    D T9001      12.628  11.909   0.088  1.00 26.27     0.055 A 
HETATM    6  C6    D T9001      12.810  13.040  -0.765  1.00 29.22     0.026 A 
HETATM    7  N7    D T9001      11.189  10.026   0.733  1.00 25.99    -0.224 NA
HETATM    8  C8    D T9001      12.118   9.718   1.660  1.00 24.59     0.200 A 
HETATM    9  N9    D T9001      13.274  10.382   1.878  1.00 25.70    -0.205 NA
HETATM   10  C10   D T9001      13.543  11.484   1.092  1.00 27.48     0.166 A 
ENDROOT
BRANCH  10  11
HETATM   11  N14   D T9001      14.761  12.206   1.293  1.00 23.22    -0.227 NA
BRANCH  11  12
HETATM   12  C15   D T9001      15.975  12.040   0.578  1.00 24.25     0.084 A 
HETATM   13  C16   D T9001      16.595  10.756   0.431  1.00 25.06     0.033 A 
HETATM   14  C17   D T9001      17.799  10.607  -0.272  1.00 28.28     0.087 A 
HETATM   15  C18   D T9001      18.423  11.738  -0.852  1.00 25.55     0.151 A 
HETATM   16 CL     D T9001      18.485   9.033  -0.401  1.00 31.70    -0.080 Cl
HETATM   17  C19   D T9001      17.836  13.023  -0.727  1.00 24.70     0.032 A 
HETATM   18  F21   D T9001      19.576  11.618  -1.526  1.00 27.22    -0.203 F 
HETATM   19  C20   D T9001      16.614  13.171  -0.013  1.00 24.32     0.021 A 
ENDBRANCH  11  12
ENDBRANCH  10  11
BRANCH   1  20
HETATM   20  N13   D T9001      11.975  14.529  -2.587  1.00 34.61    -0.210 NA
HETATM   21  C26   D T9001      12.875  14.549  -3.665  1.00 36.24     0.256 C 
HETATM   22  O27   D T9001      13.622  13.629  -4.001  1.00 39.97    -0.270 OA
BRANCH  21  23
HETATM   23  C24   D T9001      12.870  15.885  -4.389  1.00 35.38     0.092 C 
BRANCH  23  24
HETATM   24  C23   D T9001      11.457  16.303  -4.831  1.00 34.93     0.051 C 
BRANCH  24  25
HETATM   25  C25   D T9001      11.567  17.382  -5.916  1.00 37.23     0.339 C 
HETATM   26  N33   D T9001      10.200  17.821  -6.378  1.00 41.10     0.618 N 
ENDBRANCH  24  25
ENDBRANCH  23  24
ENDBRANCH  21  23
ENDBRANCH   1  20
BRANCH   2  27
HETATM   27  O11   D T9001       9.779  13.000  -2.883  1.00 31.09    -0.327 OA
HETATM   28  C12   D T9001       8.421  13.305  -2.553  1.00 29.66     0.181 C 
ENDBRANCH   2  27
TORSDOF 7
ENDMDL
MODEL 2
REMARK VINA RESULT:    -7.460      1.505      1.833
REMARK INTER + INTRA:         -11.538
REMARK INTER:                 -10.437
REMARK INTRA:                  -1.101
REMARK UNBOUND:                -1.025
REMARK  7 active torsions:
REMARK  status: ('A' for Active; 'I' for Inactive)
REMARK    1  A    between atoms: C1_1  and  N13_22 
REMARK    2  A    between atoms: C2_2  and  O11_20 
REMARK    3  A    between atoms: C10_10  and  N14_11 
REMARK    4  A    between atoms: N14_11  and  C15_12 
REMARK       I    between atoms: N13_22  and  C26_23 
REMARK    5  A    between atoms: C26_23  and  C24_24 
REMARK    6  A    between atoms: C24_24  and  C23_25 
REMARK    7  A    between atoms: C23_25  and  C25_26 
ROOT
HETATM    1  C1    D T9001      11.377  13.688  -2.019  1.00 30.38     0.107 A 
HETATM    2  C2    D T9001      10.154  12.937  -2.086  1.00 29.65     0.113 A 
HETATM    3  C3    D T9001       9.990  11.808  -1.221  1.00 28.21     0.045 A 
HETATM    4  C4    D T9001      10.991  11.410  -0.312  1.00 27.21     0.088 A 
HETATM    5  C5    D T9001      12.225  12.157  -0.257  1.00 26.27     0.055 A 
HETATM    6  C6    D T9001      12.396  13.287  -1.114  1.00 29.22     0.026 A 
HETATM    7  N7    D T9001      10.751  10.335   0.478  1.00 25.99    -0.224 NA
HETATM    8  C8    D T9001      11.729   9.977   1.335  1.00 24.59     0.200 A 
HETATM    9  N9    D T9001      12.926  10.587   1.474  1.00 25.70    -0.205 NA
HETATM   10  C10   D T9001      13.187  11.684   0.678  1.00 27.48     0.166 A 
ENDROOT
BRANCH  10  11
HETATM   11  N14   D T9001      14.448  12.349   0.796  1.00 23.22    -0.227 NA
BRANCH  11  12
HETATM   12  C15   D T9001      15.732  11.781   0.590  1.00 24.25     0.084 A 
HETATM   13  C16   D T9001      16.584  11.425   1.684  1.00 25.06     0.033 A 
HETATM   14  C17   D T9001      17.854  10.871   1.466  1.00 28.28     0.087 A 
HETATM   15  C18   D T9001      18.312  10.654   0.143  1.00 25.55     0.151 A 
HETATM   16 CL     D T9001      18.823  10.475   2.833  1.00 31.70    -0.080 Cl
HETATM   17  C19   D T9001      17.493  10.994  -0.963  1.00 24.70     0.032 A 
HETATM   18  F21   D T9001      19.524  10.128  -0.087  1.00 27.22    -0.203 F 
HETATM   19  C20   D T9001      16.205  11.556  -0.738  1.00 24.32     0.021 A 
ENDBRANCH  11  12
ENDBRANCH  10  11
BRANCH   1  20
HETATM   20  N13   D T9001      11.502  14.828  -2.863  1.00 34.61    -0.210 NA
HETATM   21  C26   D T9001      12.063  14.739  -4.148  1.00 36.24     0.256 C 
HETATM   22  O27   D T9001      12.494  13.715  -4.680  1.00 39.97    -0.270 OA
BRANCH  21  23
HETATM   23  C24   D T9001      12.129  16.091  -4.838  1.00 35.38     0.092 C 
BRANCH  23  24
HETATM   24  C23   D T9001      13.024  17.088  -4.083  1.00 34.93     0.051 C 
BRANCH  24  25
HETATM   25  C25   D T9001      14.493  16.699  -4.284  1.00 37.23     0.339 C 
HETATM   26  N33   D T9001      15.251  16.764  -2.982  1.00 41.10     0.618 N 
ENDBRANCH  24  25
ENDBRANCH  23  24
ENDBRANCH  21  23
ENDBRANCH   1  20
BRANCH   2  27
HETATM   27  O11   D T9001       9.225  13.400  -3.012  1.00 31.09    -0.327 OA
HETATM   28  C12   D T9001       7.827  13.348  -2.710  1.00 29.66     0.181 C 
ENDBRANCH   2  27
TORSDOF 7
ENDMDL
MODEL 3
REMARK VINA RESULT:    -7.331      4.116      7.879
REMARK INTER + INTRA:         -11.356
REMARK INTER:                 -10.561
REMARK INTRA:                  -0.795
REMARK UNBOUND:                -1.025
REMARK  7 active torsions:
REMARK  status: ('A' for Active; 'I' for Inactive)
REMARK    1  A    between atoms: C1_1  and  N13_22 
REMARK    2  A    between atoms: C2_2  and  O11_20 
REMARK    3  A    between atoms: C10_10  and  N14_11 
REMARK    4  A    between atoms: N14_11  and  C15_12 
REMARK       I    between atoms: N13_22  and  C26_23 
REMARK    5  A    between atoms: C26_23  and  C24_24 
REMARK    6  A    between atoms: C24_24  and  C23_25 
REMARK    7  A    between atoms: C23_25  and  C25_26 
ROOT
HETATM    1  C1    D T9001      13.730  12.454  -0.125  1.00 30.38     0.107 A 
HETATM    2  C2    D T9001      12.789  11.543   0.466  1.00 29.65     0.113 A 
HETATM    3  C3    D T9001      11.468  11.466  -0.080  1.00 28.21     0.045 A 
HETATM    4  C4    D T9001      11.064  12.258  -1.174  1.00 27.21     0.088 A 
HETATM    5  C5    D T9001      12.007  13.182  -1.757  1.00 26.27     0.055 A 
HETATM    6  C6    D T9001      13.328  13.264  -1.221  1.00 29.22     0.026 A 
HETATM    7  N7    D T9001       9.797  12.116  -1.637  1.00 25.99    -0.224 NA
HETATM    8  C8    D T9001       9.439  12.889  -2.682  1.00 24.59     0.200 A 
HETATM    9  N9    D T9001      10.224  13.795  -3.306  1.00 25.70    -0.205 NA
HETATM   10  C10   D T9001      11.516  13.952  -2.849  1.00 27.48     0.166 A 
ENDROOT
BRANCH  10  11
HETATM   11  N14   D T9001      12.372  14.907  -3.484  1.00 23.22    -0.227 NA
BRANCH  11  12
HETATM   12  C15   D T9001      11.979  16.125  -4.096  1.00 24.25     0.084 A 
HETATM   13  C16   D T9001      11.719  17.306  -3.328  1.00 25.06     0.033 A 
HETATM   14  C17   D T9001      11.325  18.502  -3.945  1.00 28.28     0.087 A 
HETATM   15  C18   D T9001      11.178  18.555  -5.353  1.00 25.55     0.151 A 
HETATM   16 CL     D T9001      11.024  19.877  -2.954  1.00 31.70    -0.080 Cl
HETATM   17  C19   D T9001      11.429  17.404  -6.143  1.00 24.70     0.032 A 
HETATM   18  F21   D T9001      10.799  19.688  -5.962  1.00 27.22    -0.203 F 
HETATM   19  C20   D T9001      11.829  16.193  -5.513  1.00 24.32     0.021 A 
ENDBRANCH  11  12
ENDBRANCH  10  11
BRANCH   1  20
HETATM   20  N13   D T9001      15.048  12.486   0.413  1.00 34.61    -0.210 NA
HETATM   21  C26   D T9001      16.145  11.951  -0.285  1.00 36.24     0.256 C 
HETATM   22  O27   D T9001      16.105  11.415  -1.394  1.00 39.97    -0.270 OA
BRANCH  21  23
HETATM   23  C24   D T9001      17.436  12.064   0.507  1.00 35.38     0.092 C 
BRANCH  23  24
HETATM   24  C23   D T9001      17.428  11.178   1.765  1.00 34.93     0.051 C 
BRANCH  24  25
HETATM   25  C25   D T9001      18.841  11.133   2.359  1.00 37.23     0.339 C 
HETATM   26  N33   D T9001      19.842  10.670   1.331  1.00 41.10     0.618 N 
ENDBRANCH  24  25
ENDBRANCH  23  24
ENDBRANCH  21  23
ENDBRANCH   1  20
BRANCH   2  27
HETATM   27  O11   D T9001      13.274  10.805   1.541  1.00 31.09    -0.327 OA
HETATM   28  C12   D T9001      12.618   9.595   1.932  1.00 29.66     0.181 C 
ENDBRANCH   2  27
TORSDOF 7
ENDMDL
MODEL 4
REMARK VINA RESULT:    -6.968      3.707      7.276
REMARK INTER + INTRA:         -10.844
REMARK INTER:                  -9.926
REMARK INTRA:                  -0.918
REMARK UNBOUND:                -1.025
REMARK  7 active torsions:
REMARK  status: ('A' for Active; 'I' for Inactive)
REMARK    1  A    between atoms: C1_1  and  N13_22 
REMARK    2  A    between atoms: C2_2  and  O11_20 
REMARK    3  A    between atoms: C10_10  and  N14_11 
REMARK    4  A    between atoms: N14_11  and  C15_12 
REMARK       I    between atoms: N13_22  and  C26_23 
REMARK    5  A    between atoms: C26_23  and  C24_24 
REMARK    6  A    between atoms: C24_24  and  C23_25 
REMARK    7  A    between atoms: C23_25  and  C25_26 
ROOT
HETATM    1  C1    D T9001      13.980  12.257   0.185  1.00 30.38     0.107 A 
HETATM    2  C2    D T9001      12.881  11.478   0.683  1.00 29.65     0.113 A 
HETATM    3  C3    D T9001      11.639  11.503  -0.028  1.00 28.21     0.045 A 
HETATM    4  C4    D T9001      11.463  12.270  -1.198  1.00 27.21     0.088 A 
HETATM    5  C5    D T9001      12.564  13.063  -1.689  1.00 26.27     0.055 A 
HETATM    6  C6    D T9001      13.808  13.042  -0.987  1.00 29.22     0.026 A 
HETATM    7  N7    D T9001      10.257  12.230  -1.817  1.00 25.99    -0.224 NA
HETATM    8  C8    D T9001      10.119  12.976  -2.931  1.00 24.59     0.200 A 
HETATM    9  N9    D T9001      11.068  13.764  -3.483  1.00 25.70    -0.205 NA
HETATM   10  C10   D T9001      12.301  13.817  -2.866  1.00 27.48     0.166 A 
ENDROOT
BRANCH  10  11
HETATM   11  N14   D T9001      13.326  14.646  -3.422  1.00 23.22    -0.227 NA
BRANCH  11  12
HETATM   12  C15   D T9001      14.007  14.447  -4.650  1.00 24.25     0.084 A 
HETATM   13  C16   D T9001      13.986  15.430  -5.692  1.00 25.06     0.033 A 
HETATM   14  C17   D T9001      14.658  15.218  -6.905  1.00 28.28     0.087 A 
HETATM   15  C18   D T9001      15.373  14.013  -7.115  1.00 25.55     0.151 A 
HETATM   16 CL     D T9001      14.581  16.444  -8.112  1.00 31.70    -0.080 Cl
HETATM   17  C19   D T9001      15.415  13.020  -6.103  1.00 24.70     0.032 A 
HETATM   18  F21   D T9001      16.019  13.790  -8.268  1.00 27.22    -0.203 F 
HETATM   19  C20   D T9001      14.733  13.239  -4.874  1.00 24.32     0.021 A 
ENDBRANCH  11  12
ENDBRANCH  10  11
BRANCH   1  20
HETATM   20  N13   D T9001      15.215  12.187   0.890  1.00 34.61    -0.210 NA
HETATM   21  C26   D T9001      16.321  11.488   0.376  1.00 36.24     0.256 C 
HETATM   22  O27   D T9001      16.359  10.881  -0.695  1.00 39.97    -0.270 OA
BRANCH  21  23
HETATM   23  C24   D T9001      17.508  11.520   1.325  1.00 35.38     0.092 C 
BRANCH  23  24
HETATM   24  C23   D T9001      17.347  10.531   2.493  1.00 34.93     0.051 C 
BRANCH  24  25
HETATM   25  C25   D T9001      18.717  10.286   3.137  1.00 37.23     0.339 C 
HETATM   26  N33   D T9001      18.566   9.630   4.488  1.00 41.10     0.618 N 
ENDBRANCH  24  25
ENDBRANCH  23  24
ENDBRANCH  21  23
ENDBRANCH   1  20
BRANCH   2  27
HETATM   27  O11   D T9001      13.145  10.755   1.843  1.00 31.09    -0.327 OA
HETATM   28  C12   D T9001      12.620   9.433   1.996  1.00 29.66     0.181 C 
ENDBRANCH   2  27
TORSDOF 7
ENDMDL
MODEL 5
REMARK VINA RESULT:    -6.872      2.368      2.723
REMARK INTER + INTRA:         -10.709
REMARK INTER:                  -9.871
REMARK INTRA:                  -0.838
REMARK UNBOUND:                -1.025
REMARK  7 active torsions:
REMARK  status: ('A' for Active; 'I' for Inactive)
REMARK    1  A    between atoms: C1_1  and  N13_22 
REMARK    2  A    between atoms: C2_2  and  O11_20 
REMARK    3  A    between atoms: C10_10  and  N14_11 
REMARK    4  A    between atoms: N14_11  and  C15_12 
REMARK       I    between atoms: N13_22  and  C26_23 
REMARK    5  A    between atoms: C26_23  and  C24_24 
REMARK    6  A    between atoms: C24_24  and  C23_25 
REMARK    7  A    between atoms: C23_25  and  C25_26 
ROOT
HETATM    1  C1    D T9001      13.095  13.385  -1.448  1.00 30.38     0.107 A 
HETATM    2  C2    D T9001      11.722  12.972  -1.357  1.00 29.65     0.113 A 
HETATM    3  C3    D T9001      11.362  11.984  -0.386  1.00 28.21     0.045 A 
HETATM    4  C4    D T9001      12.313  11.403   0.478  1.00 27.21     0.088 A 
HETATM    5  C5    D T9001      13.694  11.809   0.375  1.00 26.27     0.055 A 
HETATM    6  C6    D T9001      14.062  12.797  -0.589  1.00 29.22     0.026 A 
HETATM    7  N7    D T9001      11.886  10.481   1.376  1.00 25.99    -0.224 NA
HETATM    8  C8    D T9001      12.819   9.942   2.186  1.00 24.59     0.200 A 
HETATM    9  N9    D T9001      14.139  10.230   2.181  1.00 25.70    -0.205 NA
HETATM   10  C10   D T9001      14.590  11.167   1.274  1.00 27.48     0.166 A 
ENDROOT
BRANCH  10  11
HETATM   11  N14   D T9001      15.983  11.491   1.238  1.00 23.22    -0.227 NA
BRANCH  11  12
HETATM   12  C15   D T9001      17.069  10.600   1.436  1.00 24.25     0.084 A 
HETATM   13  C16   D T9001      17.825  10.589   2.653  1.00 25.06     0.033 A 
HETATM   14  C17   D T9001      18.901   9.708   2.833  1.00 28.28     0.087 A 
HETATM   15  C18   D T9001      19.255   8.806   1.799  1.00 25.55     0.151 A 
HETATM   16 CL     D T9001      19.765   9.759   4.321  1.00 31.70    -0.080 Cl
HETATM   17  C19   D T9001      18.526   8.789   0.583  1.00 24.70     0.032 A 
HETATM   18  F21   D T9001      20.282   7.957   1.950  1.00 27.22    -0.203 F 
HETATM   19  C20   D T9001      17.435   9.685   0.404  1.00 24.32     0.021 A 
ENDBRANCH  11  12
ENDBRANCH  10  11
BRANCH   1  20
HETATM   20  N13   D T9001      13.422  14.396  -2.396  1.00 34.61    -0.210 NA
HETATM   21  C26   D T9001      14.095  14.097  -3.593  1.00 36.24     0.256 C 
HETATM   22  O27   D T9001      14.467  12.980  -3.954  1.00 39.97    -0.270 OA
BRANCH  21  23
HETATM   23  C24   D T9001      14.370  15.342  -4.420  1.00 35.38     0.092 C 
BRANCH  23  24
HETATM   24  C23   D T9001      15.051  15.013  -5.759  1.00 34.93     0.051 C 
BRANCH  24  25
HETATM   25  C25   D T9001      13.986  14.930  -6.859  1.00 37.23     0.339 C 
HETATM   26  N33   D T9001      14.625  14.863  -8.224  1.00 41.10     0.618 N 
ENDBRANCH  24  25
ENDBRANCH  23  24
ENDBRANCH  21  23
ENDBRANCH   1  20
BRANCH   2  27
HETATM   27  O11   D T9001      10.855  13.597  -2.249  1.00 31.09    -0.327 OA
HETATM   28  C12   D T9001       9.603  12.987  -2.575  1.00 29.66     0.181 C 
ENDBRANCH   2  27
TORSDOF 7
ENDMDL
MODEL 6
REMARK VINA RESULT:    -6.616      4.335      8.676
REMARK INTER + INTRA:         -10.349
REMARK INTER:                  -9.353
REMARK INTRA:                  -0.996
REMARK UNBOUND:                -1.025
REMARK  7 active torsions:
REMARK  status: ('A' for Active; 'I' for Inactive)
REMARK    1  A    between atoms: C1_1  and  N13_22 
REMARK    2  A    between atoms: C2_2  and  O11_20 
REMARK    3  A    between atoms: C10_10  and  N14_11 
REMARK    4  A    between atoms: N14_11  and  C15_12 
REMARK       I    between atoms: N13_22  and  C26_23 
REMARK    5  A    between atoms: C26_23  and  C24_24 
REMARK    6  A    between atoms: C24_24  and  C23_25 
REMARK    7  A    between atoms: C23_25  and  C25_26 
ROOT
HETATM    1  C1    D T9001      14.643  13.519  -2.239  1.00 30.38     0.107 A 
HETATM    2  C2    D T9001      15.933  13.103  -2.714  1.00 29.65     0.113 A 
HETATM    3  C3    D T9001      16.293  13.382  -4.071  1.00 28.21     0.045 A 
HETATM    4  C4    D T9001      15.418  14.047  -4.954  1.00 27.21     0.088 A 
HETATM    5  C5    D T9001      14.116  14.451  -4.480  1.00 26.27     0.055 A 
HETATM    6  C6    D T9001      13.750  14.180  -3.127  1.00 29.22     0.026 A 
HETATM    7  N7    D T9001      15.840  14.281  -6.221  1.00 25.99    -0.224 NA
HETATM    8  C8    D T9001      14.981  14.917  -7.043  1.00 24.59     0.200 A 
HETATM    9  N9    D T9001      13.737  15.336  -6.722  1.00 25.70    -0.205 NA
HETATM   10  C10   D T9001      13.291  15.106  -5.437  1.00 27.48     0.166 A 
ENDROOT
BRANCH  10  11
HETATM   11  N14   D T9001      11.977  15.531  -5.066  1.00 23.22    -0.227 NA
BRANCH  11  12
HETATM   12  C15   D T9001      11.525  16.869  -4.926  1.00 24.25     0.084 A 
HETATM   13  C16   D T9001      11.631  17.576  -3.685  1.00 25.06     0.033 A 
HETATM   14  C17   D T9001      11.174  18.895  -3.558  1.00 28.28     0.087 A 
HETATM   15  C18   D T9001      10.594  19.552  -4.672  1.00 25.55     0.151 A 
HETATM   16 CL     D T9001      11.331  19.677  -2.032  1.00 31.70    -0.080 Cl
HETATM   17  C19   D T9001      10.474  18.881  -5.916  1.00 24.70     0.032 A 
HETATM   18  F21   D T9001      10.147  20.812  -4.571  1.00 27.22    -0.203 F 
HETATM   19  C20   D T9001      10.940  17.543  -6.040  1.00 24.32     0.021 A 
ENDBRANCH  11  12
ENDBRANCH  10  11
BRANCH   1  20
HETATM   20  N13   D T9001      14.323  13.262  -0.876  1.00 34.61    -0.210 NA
HETATM   21  C26   D T9001      13.416  12.255  -0.506  1.00 36.24     0.256 C 
HETATM   22  O27   D T9001      12.816  11.503  -1.276  1.00 39.97    -0.270 OA
BRANCH  21  23
HETATM   23  C24   D T9001      13.204  12.200   0.998  1.00 35.38     0.092 C 
BRANCH  23  24
HETATM   24  C23   D T9001      13.233  10.761   1.539  1.00 34.93     0.051 C 
BRANCH  24  25
HETATM   25  C25   D T9001      14.521  10.551   2.345  1.00 37.23     0.339 C 
HETATM   26  N33   D T9001      15.738  10.736   1.472  1.00 41.10     0.618 N 
ENDBRANCH  24  25
ENDBRANCH  23  24
ENDBRANCH  21  23
ENDBRANCH   1  20
BRANCH   2  27
HETATM   27  O11   D T9001      16.728  12.452  -1.774  1.00 31.09    -0.327 OA
HETATM   28  C12   D T9001      17.021  11.060  -1.926  1.00 29.66     0.181 C 
ENDBRANCH   2  27
TORSDOF 7
ENDMDL
MODEL 7
REMARK VINA RESULT:    -6.431      5.131      9.639
REMARK INTER + INTRA:         -10.088
REMARK INTER:                  -9.156
REMARK INTRA:                  -0.932
REMARK UNBOUND:                -1.025
REMARK  7 active torsions:
REMARK  status: ('A' for Active; 'I' for Inactive)
REMARK    1  A    between atoms: C1_1  and  N13_22 
REMARK    2  A    between atoms: C2_2  and  O11_20 
REMARK    3  A    between atoms: C10_10  and  N14_11 
REMARK    4  A    between atoms: N14_11  and  C15_12 
REMARK       I    between atoms: N13_22  and  C26_23 
REMARK    5  A    between atoms: C26_23  and  C24_24 
REMARK    6  A    between atoms: C24_24  and  C23_25 
REMARK    7  A    between atoms: C23_25  and  C25_26 
ROOT
HETATM    1  C1    D T9001      18.863  10.234   1.642  1.00 30.38     0.107 A 
HETATM    2  C2    D T9001      19.898  10.230   0.647  1.00 29.65     0.113 A 
HETATM    3  C3    D T9001      19.748  11.060  -0.510  1.00 28.21     0.045 A 
HETATM    4  C4    D T9001      18.615  11.876  -0.702  1.00 27.21     0.088 A 
HETATM    5  C5    D T9001      17.569  11.869   0.292  1.00 26.27     0.055 A 
HETATM    6  C6    D T9001      17.712  11.046   1.450  1.00 29.22     0.026 A 
HETATM    7  N7    D T9001      18.556  12.640  -1.821  1.00 25.99    -0.224 NA
HETATM    8  C8    D T9001      17.459  13.408  -1.978  1.00 24.59     0.200 A 
HETATM    9  N9    D T9001      16.411  13.481  -1.127  1.00 25.70    -0.205 NA
HETATM   10  C10   D T9001      16.455  12.710   0.017  1.00 27.48     0.166 A 
ENDROOT
BRANCH  10  11
HETATM   11  N14   D T9001      15.360  12.760   0.936  1.00 23.22    -0.227 NA
BRANCH  11  12
HETATM   12  C15   D T9001      14.096  12.134   0.786  1.00 24.25     0.084 A 
HETATM   13  C16   D T9001      13.169  12.536  -0.230  1.00 25.06     0.033 A 
HETATM   14  C17   D T9001      11.920  11.912  -0.362  1.00 28.28     0.087 A 
HETATM   15  C18   D T9001      11.556  10.865   0.519  1.00 25.55     0.151 A 
HETATM   16 CL     D T9001      10.858  12.456  -1.604  1.00 31.70    -0.080 Cl
HETATM   17  C19   D T9001      12.451  10.442   1.535  1.00 24.70     0.032 A 
HETATM   18  F21   D T9001      10.365  10.258   0.412  1.00 27.22    -0.203 F 
HETATM   19  C20   D T9001      13.718  11.076   1.666  1.00 24.32     0.021 A 
ENDBRANCH  11  12
ENDBRANCH  10  11
BRANCH   1  20
HETATM   20  N13   D T9001      19.052   9.429   2.800  1.00 34.61    -0.210 NA
HETATM   21  C26   D T9001      19.759   9.898   3.920  1.00 36.24     0.256 C 
HETATM   22  O27   D T9001      20.276  11.010   4.035  1.00 39.97    -0.270 OA
BRANCH  21  23
HETATM   23  C24   D T9001      19.865   8.845   5.011  1.00 35.38     0.092 C 
BRANCH  23  24
HETATM   24  C23   D T9001      18.661   8.874   5.967  1.00 34.93     0.051 C 
BRANCH  24  25
HETATM   25  C25   D T9001      18.833  10.030   6.960  1.00 37.23     0.339 C 
HETATM   26  N33   D T9001      18.377   9.628   8.340  1.00 41.10     0.618 N 
ENDBRANCH  24  25
ENDBRANCH  23  24
ENDBRANCH  21  23
ENDBRANCH   1  20
BRANCH   2  27
HETATM   27  O11   D T9001      20.977   9.394   0.919  1.00 31.09    -0.327 OA
HETATM   28  C12   D T9001      22.254   9.954   1.238  1.00 29.66     0.181 C 
ENDBRANCH   2  27
TORSDOF 7
ENDMDL
MODEL 8
REMARK VINA RESULT:    -6.372      2.947      3.819
REMARK INTER + INTRA:         -10.004
REMARK INTER:                  -9.625
REMARK INTRA:                  -0.379
REMARK UNBOUND:                -1.025
REMARK  7 active torsions:
REMARK  status: ('A' for Active; 'I' for Inactive)
REMARK    1  A    between atoms: C1_1  and  N13_22 
REMARK    2  A    between atoms: C2_2  and  O11_20 
REMARK    3  A    between atoms: C10_10  and  N14_11 
REMARK    4  A    between atoms: N14_11  and  C15_12 
REMARK       I    between atoms: N13_22  and  C26_23 
REMARK    5  A    between atoms: C26_23  and  C24_24 
REMARK    6  A    between atoms: C24_24  and  C23_25 
REMARK    7  A    between atoms: C23_25  and  C25_26 
ROOT
HETATM    1  C1    D T9001      14.065  14.322  -4.236  1.00 30.38     0.107 A 
HETATM    2  C2    D T9001      12.706  14.786  -4.242  1.00 29.65     0.113 A 
HETATM    3  C3    D T9001      11.861  14.463  -3.133  1.00 28.21     0.045 A 
HETATM    4  C4    D T9001      12.322  13.701  -2.039  1.00 27.21     0.088 A 
HETATM    5  C5    D T9001      13.684  13.224  -2.041  1.00 26.27     0.055 A 
HETATM    6  C6    D T9001      14.534  13.544  -3.143  1.00 29.22     0.026 A 
HETATM    7  N7    D T9001      11.459  13.448  -1.024  1.00 25.99    -0.224 NA
HETATM    8  C8    D T9001      11.928  12.715   0.006  1.00 24.59     0.200 A 
HETATM    9  N9    D T9001      13.175  12.205   0.117  1.00 25.70    -0.205 NA
HETATM   10  C10   D T9001      14.066  12.453  -0.908  1.00 27.48     0.166 A 
ENDROOT
BRANCH  10  11
HETATM   11  N14   D T9001      15.392  11.923  -0.825  1.00 23.22    -0.227 NA
BRANCH  11  12
HETATM   12  C15   D T9001      16.092  11.566   0.356  1.00 24.25     0.084 A 
HETATM   13  C16   D T9001      17.440  11.989   0.592  1.00 25.06     0.033 A 
HETATM   14  C17   D T9001      18.123  11.623   1.761  1.00 28.28     0.087 A 
HETATM   15  C18   D T9001      17.479  10.819   2.733  1.00 25.55     0.151 A 
HETATM   16 CL     D T9001      19.744  12.166   1.969  1.00 31.70    -0.080 Cl
HETATM   17  C19   D T9001      16.144  10.384   2.531  1.00 24.70     0.032 A 
HETATM   18  F21   D T9001      18.115  10.455   3.856  1.00 27.22    -0.203 F 
HETATM   19  C20   D T9001      15.454  10.758   1.345  1.00 24.32     0.021 A 
ENDBRANCH  11  12
ENDBRANCH  10  11
BRANCH   1  20
HETATM   20  N13   D T9001      14.895  14.687  -5.333  1.00 34.61    -0.210 NA
HETATM   21  C26   D T9001      15.339  13.740  -6.272  1.00 36.24     0.256 C 
HETATM   22  O27   D T9001      15.077  12.536  -6.265  1.00 39.97    -0.270 OA
BRANCH  21  23
HETATM   23  C24   D T9001      16.245  14.359  -7.323  1.00 35.38     0.092 C 
BRANCH  23  24
HETATM   24  C23   D T9001      15.689  14.186  -8.747  1.00 34.93     0.051 C 
BRANCH  24  25
HETATM   25  C25   D T9001      14.835  15.408  -9.106  1.00 37.23     0.339 C 
HETATM   26  N33   D T9001      13.366  15.065  -9.074  1.00 41.10     0.618 N 
ENDBRANCH  24  25
ENDBRANCH  23  24
ENDBRANCH  21  23
ENDBRANCH   1  20
BRANCH   2  27
HETATM   27  O11   D T9001      12.338  15.527  -5.361  1.00 31.09    -0.327 OA
HETATM   28  C12   D T9001      11.449  16.639  -5.222  1.00 29.66     0.181 C 
ENDBRANCH   2  27
TORSDOF 7
ENDMDL
MODEL 9
REMARK VINA RESULT:    -6.333      3.682      4.988
REMARK INTER + INTRA:          -9.950
REMARK INTER:                  -8.906
REMARK INTRA:                  -1.044
REMARK UNBOUND:                -1.025
REMARK  7 active torsions:
REMARK  status: ('A' for Active; 'I' for Inactive)
REMARK    1  A    between atoms: C1_1  and  N13_22 
REMARK    2  A    between atoms: C2_2  and  O11_20 
REMARK    3  A    between atoms: C10_10  and  N14_11 
REMARK    4  A    between atoms: N14_11  and  C15_12 
REMARK       I    between atoms: N13_22  and  C26_23 
REMARK    5  A    between atoms: C26_23  and  C24_24 
REMARK    6  A    between atoms: C24_24  and  C23_25 
REMARK    7  A    between atoms: C23_25  and  C25_26 
ROOT
HETATM    1  C1    D T9001      14.954  14.464  -5.134  1.00 30.38     0.107 A 
HETATM    2  C2    D T9001      13.741  14.436  -5.903  1.00 29.65     0.113 A 
HETATM    3  C3    D T9001      12.503  14.181  -5.232  1.00 28.21     0.045 A 
HETATM    4  C4    D T9001      12.440  13.953  -3.842  1.00 27.21     0.088 A 
HETATM    5  C5    D T9001      13.660  13.966  -3.073  1.00 26.27     0.055 A 
HETATM    6  C6    D T9001      14.900  14.223  -3.734  1.00 29.22     0.026 A 
HETATM    7  N7    D T9001      11.225  13.728  -3.283  1.00 25.99    -0.224 NA
HETATM    8  C8    D T9001      11.197  13.511  -1.952  1.00 24.59     0.200 A 
HETATM    9  N9    D T9001      12.267  13.489  -1.128  1.00 25.70    -0.205 NA
HETATM   10  C10   D T9001      13.511  13.715  -1.680  1.00 27.48     0.166 A 
ENDROOT
BRANCH  10  11
HETATM   11  N14   D T9001      14.666  13.694  -0.836  1.00 23.22    -0.227 NA
BRANCH  11  12
HETATM   12  C15   D T9001      15.335  12.545  -0.341  1.00 24.25     0.084 A 
HETATM   13  C16   D T9001      14.986  11.950   0.915  1.00 25.06     0.033 A 
HETATM   14  C17   D T9001      15.661  10.819   1.395  1.00 28.28     0.087 A 
HETATM   15  C18   D T9001      16.708  10.244   0.634  1.00 25.55     0.151 A 
HETATM   16 CL     D T9001      15.188  10.165   2.917  1.00 31.70    -0.080 Cl
HETATM   17  C19   D T9001      17.078  10.807  -0.614  1.00 24.70     0.032 A 
HETATM   18  F21   D T9001      17.368   9.164   1.078  1.00 27.22    -0.203 F 
HETATM   19  C20   D T9001      16.391  11.955  -1.099  1.00 24.32     0.021 A 
ENDBRANCH  11  12
ENDBRANCH  10  11
BRANCH   1  20
HETATM   20  N13   D T9001      16.167  14.755  -5.818  1.00 34.61    -0.210 NA
HETATM   21  C26   D T9001      16.988  13.738  -6.334  1.00 36.24     0.256 C 
HETATM   22  O27   D T9001      16.772  12.528  -6.263  1.00 39.97    -0.270 OA
BRANCH  21  23
HETATM   23  C24   D T9001      18.246  14.293  -6.982  1.00 35.38     0.092 C 
BRANCH  23  24
HETATM   24  C23   D T9001      18.306  13.992  -8.489  1.00 34.93     0.051 C 
BRANCH  24  25
HETATM   25  C25   D T9001      17.278  14.864  -9.219  1.00 37.23     0.339 C 
HETATM   26  N33   D T9001      16.833  14.211 -10.504  1.00 41.10     0.618 N 
ENDBRANCH  24  25
ENDBRANCH  23  24
ENDBRANCH  21  23
ENDBRANCH   1  20
BRANCH   2  27
HETATM   27  O11   D T9001      13.899  14.670  -7.266  1.00 31.09    -0.327 OA
HETATM   28  C12   D T9001      13.466  15.909  -7.834  1.00 29.66     0.181 C 
ENDBRANCH   2  27
TORSDOF 7
ENDMDL
