MODEL 1
REMARK VINA RESULT:    -7.666      0.000      0.000
REMARK INTER + INTRA:         -11.679
REMARK INTER:                 -10.802
REMARK INTRA:                  -0.877
REMARK UNBOUND:                -0.877
REMARK  7 active torsions:
REMARK  status: ('A' for Active; 'I' for Inactive)
REMARK    1  A    between atoms: C1_1  and  N13_22 
REMARK    2  A    between atoms: C2_2  and  O11_20 
REMARK    3  A    between atoms: C10_10  and  N14_11 
REMARK    4  A    between atoms: N14_11  and  C15_12 
REMARK       I    between atoms: N13_22  and  C26_23 
REMARK    5  A    between atoms: C26_23  and  C24_24 
REMARK    6  A    between atoms: C24_24  and  C23_25 
REMARK    7  A    between atoms: C23_25  and  C25_26 
ROOT
HETATM    1  C1    D T9001     -11.586   2.691  -5.228  1.00 30.38     0.107 A 
HETATM    2  C2    D T9001     -10.230   3.151  -5.342  1.00 29.65     0.113 A 
HETATM    3  C3    D T9001      -9.841   4.335  -4.638  1.00 28.21     0.045 A 
HETATM    4  C4    D T9001     -10.747   5.062  -3.839  1.00 27.21     0.088 A 
HETATM    5  C5    D T9001     -12.113   4.607  -3.739  1.00 26.27     0.055 A 
HETATM    6  C6    D T9001     -12.510   3.426  -4.435  1.00 29.22     0.026 A 
HETATM    7  N7    D T9001     -10.295   6.167  -3.197  1.00 25.99    -0.224 NA
HETATM    8  C8    D T9001     -11.187   6.844  -2.445  1.00 24.59     0.200 A 
HETATM    9  N9    D T9001     -12.489   6.525  -2.278  1.00 25.70    -0.205 NA
HETATM   10  C10   D T9001     -12.967   5.404  -2.924  1.00 27.48     0.166 A 
ENDROOT
BRANCH  10  11
HETATM   11  N14   D T9001     -14.343   5.042  -2.773  1.00 23.22    -0.227 NA
BRANCH  11  12
HETATM   12  C15   D T9001     -14.995   4.669  -1.571  1.00 24.25     0.084 A 
HETATM   13  C16   D T9001     -16.109   5.407  -1.054  1.00 25.06     0.033 A 
HETATM   14  C17   D T9001     -16.741   5.031   0.140  1.00 28.28     0.087 A 
HETATM   15  C18   D T9001     -16.278   3.902   0.858  1.00 25.55     0.151 A 
HETATM   16 CL     D T9001     -18.069   5.973   0.698  1.00 31.70    -0.080 Cl
HETATM   17  C19   D T9001     -15.179   3.147   0.375  1.00 24.70     0.032 A 
HETATM   18  F21   D T9001     -16.866   3.526   2.003  1.00 27.22    -0.203 F 
HETATM   19  C20   D T9001     -14.540   3.531  -0.837  1.00 24.32     0.021 A 
ENDBRANCH  11  12
ENDBRANCH  10  11
BRANCH   1  20
HETATM   20  N13   D T9001     -11.940   1.493  -5.909  1.00 34.61    -0.210 NA
HETATM   21  C26   D T9001     -12.828   1.496  -6.999  1.00 36.24     0.256 C 
HETATM   22  O27   D T9001     -13.381   2.487  -7.479  1.00 39.97    -0.270 OA
BRANCH  21  23
HETATM   23  C24   D T9001     -13.083   0.096  -7.532  1.00 35.38     0.092 C 
BRANCH  23  24
HETATM   24  C23   D T9001     -11.862  -0.475  -8.273  1.00 34.93     0.051 C 
BRANCH  24  25
HETATM   25  C25   D T9001     -12.303  -1.676  -9.119  1.00 37.23     0.339 C 
HETATM   26  N33   D T9001     -13.798  -1.668  -9.328  1.00 41.10     0.618 N 
ENDBRANCH  24  25
ENDBRANCH  23  24
ENDBRANCH  21  23
ENDBRANCH   1  20
BRANCH   2  27
HETATM   27  O11   D T9001      -9.406   2.373  -6.150  1.00 31.09    -0.327 OA
HETATM   28  C12   D T9001      -8.070   2.079  -5.737  1.00 29.66     0.181 C 
ENDBRANCH   2  27
TORSDOF 7
ENDMDL
MODEL 2
REMARK VINA RESULT:    -7.606      4.785      8.132
REMARK INTER + INTRA:         -11.595
REMARK INTER:                 -11.011
REMARK INTRA:                  -0.584
REMARK UNBOUND:                -0.877
REMARK  7 active torsions:
REMARK  status: ('A' for Active; 'I' for Inactive)
REMARK    1  A    between atoms: C1_1  and  N13_22 
REMARK    2  A    between atoms: C2_2  and  O11_20 
REMARK    3  A    between atoms: C10_10  and  N14_11 
REMARK    4  A    between atoms: N14_11  and  C15_12 
REMARK       I    between atoms: N13_22  and  C26_23 
REMARK    5  A    between atoms: C26_23  and  C24_24 
REMARK    6  A    between atoms: C24_24  and  C23_25 
REMARK    7  A    between atoms: C23_25  and  C25_26 
ROOT
HETATM    1  C1    D T9001     -14.857   3.056  -1.354  1.00 30.38     0.107 A 
HETATM    2  C2    D T9001     -14.517   4.019  -0.343  1.00 29.65     0.113 A 
HETATM    3  C3    D T9001     -13.468   4.956  -0.608  1.00 28.21     0.045 A 
HETATM    4  C4    D T9001     -12.760   4.961  -1.827  1.00 27.21     0.088 A 
HETATM    5  C5    D T9001     -13.092   3.984  -2.834  1.00 26.27     0.055 A 
HETATM    6  C6    D T9001     -14.139   3.047  -2.581  1.00 29.22     0.026 A 
HETATM    7  N7    D T9001     -11.787   5.890  -2.001  1.00 25.99    -0.224 NA
HETATM    8  C8    D T9001     -11.124   5.866  -3.175  1.00 24.59     0.200 A 
HETATM    9  N9    D T9001     -11.337   5.000  -4.190  1.00 25.70    -0.205 NA
HETATM   10  C10   D T9001     -12.322   4.048  -4.030  1.00 27.48     0.166 A 
ENDROOT
BRANCH  10  11
HETATM   11  N14   D T9001     -12.569   3.113  -5.084  1.00 23.22    -0.227 NA
BRANCH  11  12
HETATM   12  C15   D T9001     -11.597   2.439  -5.866  1.00 24.25     0.084 A 
HETATM   13  C16   D T9001     -10.200   2.503  -5.555  1.00 25.06     0.033 A 
HETATM   14  C17   D T9001      -9.248   1.837  -6.342  1.00 28.28     0.087 A 
HETATM   15  C18   D T9001      -9.664   1.085  -7.466  1.00 25.55     0.151 A 
HETATM   16 CL     D T9001      -7.587   1.968  -5.907  1.00 31.70    -0.080 Cl
HETATM   17  C19   D T9001     -11.039   0.998  -7.801  1.00 24.70     0.032 A 
HETATM   18  F21   D T9001      -8.771   0.442  -8.233  1.00 27.22    -0.203 F 
HETATM   19  C20   D T9001     -12.003   1.675  -7.002  1.00 24.32     0.021 A 
ENDBRANCH  11  12
ENDBRANCH  10  11
BRANCH   1  20
HETATM   20  N13   D T9001     -15.927   2.158  -1.081  1.00 34.61    -0.210 NA
HETATM   21  C26   D T9001     -17.258   2.474  -1.401  1.00 36.24     0.256 C 
HETATM   22  O27   D T9001     -17.647   3.515  -1.934  1.00 39.97    -0.270 OA
BRANCH  21  23
HETATM   23  C24   D T9001     -18.224   1.380  -0.976  1.00 35.38     0.092 C 
BRANCH  23  24
HETATM   24  C23   D T9001     -19.536   1.949  -0.411  1.00 34.93     0.051 C 
BRANCH  24  25
HETATM   25  C25   D T9001     -19.319   2.360   1.051  1.00 37.23     0.339 C 
HETATM   26  N33   D T9001     -20.148   1.507   1.979  1.00 41.10     0.618 N 
ENDBRANCH  24  25
ENDBRANCH  23  24
ENDBRANCH  21  23
ENDBRANCH   1  20
BRANCH   2  27
HETATM   27  O11   D T9001     -15.266   3.940   0.827  1.00 31.09    -0.327 OA
HETATM   28  C12   D T9001     -16.151   5.004   1.184  1.00 29.66     0.181 C 
ENDBRANCH   2  27
TORSDOF 7
ENDMDL
MODEL 3
REMARK VINA RESULT:    -7.596      1.319      1.362
REMARK INTER + INTRA:         -11.582
REMARK INTER:                 -10.541
REMARK INTRA:                  -1.040
REMARK UNBOUND:                -0.877
REMARK  7 active torsions:
REMARK  status: ('A' for Active; 'I' for Inactive)
REMARK    1  A    between atoms: C1_1  and  N13_22 
REMARK    2  A    between atoms: C2_2  and  O11_20 
REMARK    3  A    between atoms: C10_10  and  N14_11 
REMARK    4  A    between atoms: N14_11  and  C15_12 
REMARK       I    between atoms: N13_22  and  C26_23 
REMARK    5  A    between atoms: C26_23  and  C24_24 
REMARK    6  A    between atoms: C24_24  and  C23_25 
REMARK    7  A    between atoms: C23_25  and  C25_26 
ROOT
HETATM    1  C1    D T9001     -12.157   2.707  -5.367  1.00 30.38     0.107 A 
HETATM    2  C2    D T9001     -10.748   2.840  -5.615  1.00 29.65     0.113 A 
HETATM    3  C3    D T9001     -10.023   3.874  -4.942  1.00 28.21     0.045 A 
HETATM    4  C4    D T9001     -10.649   4.765  -4.046  1.00 27.21     0.088 A 
HETATM    5  C5    D T9001     -12.067   4.640  -3.811  1.00 26.27     0.055 A 
HETATM    6  C6    D T9001     -12.798   3.610  -4.475  1.00 29.22     0.026 A 
HETATM    7  N7    D T9001      -9.888   5.711  -3.443  1.00 25.99    -0.224 NA
HETATM    8  C8    D T9001     -10.516   6.551  -2.595  1.00 24.59     0.200 A 
HETATM    9  N9    D T9001     -11.834   6.541  -2.299  1.00 25.70    -0.205 NA
HETATM   10  C10   D T9001     -12.624   5.586  -2.904  1.00 27.48     0.166 A 
ENDROOT
BRANCH  10  11
HETATM   11  N14   D T9001     -14.025   5.551  -2.615  1.00 23.22    -0.227 NA
BRANCH  11  12
HETATM   12  C15   D T9001     -14.635   5.082  -1.425  1.00 24.25     0.084 A 
HETATM   13  C16   D T9001     -15.162   5.980  -0.441  1.00 25.06     0.033 A 
HETATM   14  C17   D T9001     -15.757   5.503   0.737  1.00 28.28     0.087 A 
HETATM   15  C18   D T9001     -15.844   4.109   0.967  1.00 25.55     0.151 A 
HETATM   16 CL     D T9001     -16.361   6.646   1.874  1.00 31.70    -0.080 Cl
HETATM   17  C19   D T9001     -15.335   3.192   0.013  1.00 24.70     0.032 A 
HETATM   18  F21   D T9001     -16.407   3.631   2.087  1.00 27.22    -0.203 F 
HETATM   19  C20   D T9001     -14.732   3.679  -1.180  1.00 24.32     0.021 A 
ENDBRANCH  11  12
ENDBRANCH  10  11
BRANCH   1  20
HETATM   20  N13   D T9001     -12.848   1.649  -6.021  1.00 34.61    -0.210 NA
HETATM   21  C26   D T9001     -13.398   0.571  -5.306  1.00 36.24     0.256 C 
HETATM   22  O27   D T9001     -13.355   0.417  -4.084  1.00 39.97    -0.270 OA
BRANCH  21  23
HETATM   23  C24   D T9001     -14.048  -0.451  -6.223  1.00 35.38     0.092 C 
BRANCH  23  24
HETATM   24  C23   D T9001     -13.521  -0.356  -7.666  1.00 34.93     0.051 C 
BRANCH  24  25
HETATM   25  C25   D T9001     -12.366  -1.348  -7.845  1.00 37.23     0.339 C 
HETATM   26  N33   D T9001     -11.159  -0.668  -8.445  1.00 41.10     0.618 N 
ENDBRANCH  24  25
ENDBRANCH  23  24
ENDBRANCH  21  23
ENDBRANCH   1  20
BRANCH   2  27
HETATM   27  O11   D T9001     -10.214   1.920  -6.512  1.00 31.09    -0.327 OA
HETATM   28  C12   D T9001      -8.822   1.599  -6.466  1.00 29.66     0.181 C 
ENDBRANCH   2  27
TORSDOF 7
ENDMDL
MODEL 4
REMARK VINA RESULT:    -7.481      4.216      7.566
REMARK INTER + INTRA:         -11.420
REMARK INTER:                 -10.338
REMARK INTRA:                  -1.081
REMARK UNBOUND:                -0.877
REMARK  7 active torsions:
REMARK  status: ('A' for Active; 'I' for Inactive)
REMARK    1  A    between atoms: C1_1  and  N13_22 
REMARK    2  A    between atoms: C2_2  and  O11_20 
REMARK    3  A    between atoms: C10_10  and  N14_11 
REMARK    4  A    between atoms: N14_11  and  C15_12 
REMARK       I    between atoms: N13_22  and  C26_23 
REMARK    5  A    between atoms: C26_23  and  C24_24 
REMARK    6  A    between atoms: C24_24  and  C23_25 
REMARK    7  A    between atoms: C23_25  and  C25_26 
ROOT
HETATM    1  C1    D T9001     -12.973   4.062  -4.035  1.00 30.38     0.107 A 
HETATM    2  C2    D T9001     -11.758   4.668  -3.566  1.00 29.65     0.113 A 
HETATM    3  C3    D T9001     -10.521   4.300  -4.184  1.00 28.21     0.045 A 
HETATM    4  C4    D T9001     -10.459   3.362  -5.235  1.00 27.21     0.088 A 
HETATM    5  C5    D T9001     -11.679   2.743  -5.694  1.00 26.27     0.055 A 
HETATM    6  C6    D T9001     -12.919   3.105  -5.086  1.00 29.22     0.026 A 
HETATM    7  N7    D T9001      -9.247   3.077  -5.772  1.00 25.99    -0.224 NA
HETATM    8  C8    D T9001      -9.221   2.172  -6.772  1.00 24.59     0.200 A 
HETATM    9  N9    D T9001     -10.288   1.521  -7.283  1.00 25.70    -0.205 NA
HETATM   10  C10   D T9001     -11.529   1.798  -6.748  1.00 27.48     0.166 A 
ENDROOT
BRANCH  10  11
HETATM   11  N14   D T9001     -12.680   1.121  -7.263  1.00 23.22    -0.227 NA
BRANCH  11  12
HETATM   12  C15   D T9001     -13.066  -0.218  -7.000  1.00 24.25     0.084 A 
HETATM   13  C16   D T9001     -12.695  -1.295  -7.868  1.00 25.06     0.033 A 
HETATM   14  C17   D T9001     -13.089  -2.615  -7.599  1.00 28.28     0.087 A 
HETATM   15  C18   D T9001     -13.867  -2.899  -6.452  1.00 25.55     0.151 A 
HETATM   16 CL     D T9001     -12.608  -3.854  -8.694  1.00 31.70    -0.080 Cl
HETATM   17  C19   D T9001     -14.251  -1.856  -5.571  1.00 24.70     0.032 A 
HETATM   18  F21   D T9001     -14.257  -4.152  -6.178  1.00 27.22    -0.203 F 
HETATM   19  C20   D T9001     -13.850  -0.519  -5.845  1.00 24.32     0.021 A 
ENDBRANCH  11  12
ENDBRANCH  10  11
BRANCH   1  20
HETATM   20  N13   D T9001     -14.194   4.470  -3.428  1.00 34.61    -0.210 NA
HETATM   21  C26   D T9001     -14.827   3.692  -2.443  1.00 36.24     0.256 C 
HETATM   22  O27   D T9001     -14.422   2.615  -2.001  1.00 39.97    -0.270 OA
BRANCH  21  23
HETATM   23  C24   D T9001     -16.135   4.311  -1.979  1.00 35.38     0.092 C 
BRANCH  23  24
HETATM   24  C23   D T9001     -16.449   3.973  -0.511  1.00 34.93     0.051 C 
BRANCH  24  25
HETATM   25  C25   D T9001     -17.702   3.091  -0.456  1.00 37.23     0.339 C 
HETATM   26  N33   D T9001     -17.330   1.629  -0.415  1.00 41.10     0.618 N 
ENDBRANCH  24  25
ENDBRANCH  23  24
ENDBRANCH  21  23
ENDBRANCH   1  20
BRANCH   2  27
HETATM   27  O11   D T9001     -11.913   5.580  -2.527  1.00 31.09    -0.327 OA
HETATM   28  C12   D T9001     -11.491   6.936  -2.696  1.00 29.66     0.181 C 
ENDBRANCH   2  27
TORSDOF 7
ENDMDL
MODEL 5
REMARK VINA RESULT:    -7.101      1.777      1.972
REMARK INTER + INTRA:         -10.884
REMARK INTER:                  -9.928
REMARK INTRA:                  -0.956
REMARK UNBOUND:                -0.877
REMARK  7 active torsions:
REMARK  status: ('A' for Active; 'I' for Inactive)
REMARK    1  A    between atoms: C1_1  and  N13_22 
REMARK    2  A    between atoms: C2_2  and  O11_20 
REMARK    3  A    between atoms: C10_10  and  N14_11 
REMARK    4  A    between atoms: N14_11  and  C15_12 
REMARK       I    between atoms: N13_22  and  C26_23 
REMARK    5  A    between atoms: C26_23  and  C24_24 
REMARK    6  A    between atoms: C24_24  and  C23_25 
REMARK    7  A    between atoms: C23_25  and  C25_26 
ROOT
HETATM    1  C1    D T9001     -11.688   2.668  -5.621  1.00 30.38     0.107 A 
HETATM    2  C2    D T9001     -10.261   2.836  -5.647  1.00 29.65     0.113 A 
HETATM    3  C3    D T9001      -9.674   3.876  -4.858  1.00 28.21     0.045 A 
HETATM    4  C4    D T9001     -10.452   4.738  -4.059  1.00 27.21     0.088 A 
HETATM    5  C5    D T9001     -11.885   4.579  -4.046  1.00 26.27     0.055 A 
HETATM    6  C6    D T9001     -12.481   3.543  -4.828  1.00 29.22     0.026 A 
HETATM    7  N7    D T9001      -9.815   5.691  -3.334  1.00 25.99    -0.224 NA
HETATM    8  C8    D T9001     -10.587   6.504  -2.584  1.00 24.59     0.200 A 
HETATM    9  N9    D T9001     -11.934   6.460  -2.494  1.00 25.70    -0.205 NA
HETATM   10  C10   D T9001     -12.599   5.498  -3.225  1.00 27.48     0.166 A 
ENDROOT
BRANCH  10  11
HETATM   11  N14   D T9001     -14.026   5.427  -3.157  1.00 23.22    -0.227 NA
BRANCH  11  12
HETATM   12  C15   D T9001     -14.795   4.506  -2.402  1.00 24.25     0.084 A 
HETATM   13  C16   D T9001     -16.136   4.162  -2.769  1.00 25.06     0.033 A 
HETATM   14  C17   D T9001     -16.888   3.254  -2.009  1.00 28.28     0.087 A 
HETATM   15  C18   D T9001     -16.322   2.660  -0.856  1.00 25.55     0.151 A 
HETATM   16 CL     D T9001     -18.495   2.896  -2.512  1.00 31.70    -0.080 Cl
HETATM   17  C19   D T9001     -14.996   2.977  -0.465  1.00 24.70     0.032 A 
HETATM   18  F21   D T9001     -17.024   1.791  -0.114  1.00 27.22    -0.203 F 
HETATM   19  C20   D T9001     -14.235   3.898  -1.237  1.00 24.32     0.021 A 
ENDBRANCH  11  12
ENDBRANCH  10  11
BRANCH   1  20
HETATM   20  N13   D T9001     -12.245   1.606  -6.387  1.00 34.61    -0.210 NA
HETATM   21  C26   D T9001     -12.986   0.572  -5.788  1.00 36.24     0.256 C 
HETATM   22  O27   D T9001     -13.237   0.464  -4.587  1.00 39.97    -0.270 OA
BRANCH  21  23
HETATM   23  C24   D T9001     -13.439  -0.466  -6.801  1.00 35.38     0.092 C 
BRANCH  23  24
HETATM   24  C23   D T9001     -14.303  -1.566  -6.160  1.00 34.93     0.051 C 
BRANCH  24  25
HETATM   25  C25   D T9001     -15.782  -1.175  -6.274  1.00 37.23     0.339 C 
HETATM   26  N33   D T9001     -16.443  -1.899  -7.421  1.00 41.10     0.618 N 
ENDBRANCH  24  25
ENDBRANCH  23  24
ENDBRANCH  21  23
ENDBRANCH   1  20
BRANCH   2  27
HETATM   27  O11   D T9001      -9.574   1.942  -6.463  1.00 31.09    -0.327 OA
HETATM   28  C12   D T9001      -8.193   1.665  -6.217  1.00 29.66     0.181 C 
ENDBRANCH   2  27
TORSDOF 7
ENDMDL
MODEL 6
REMARK VINA RESULT:    -7.060      4.675      7.965
REMARK INTER + INTRA:         -10.826
REMARK INTER:                 -10.745
REMARK INTRA:                  -0.081
REMARK UNBOUND:                -0.877
REMARK  7 active torsions:
REMARK  status: ('A' for Active; 'I' for Inactive)
REMARK    1  A    between atoms: C1_1  and  N13_22 
REMARK    2  A    between atoms: C2_2  and  O11_20 
REMARK    3  A    between atoms: C10_10  and  N14_11 
REMARK    4  A    between atoms: N14_11  and  C15_12 
REMARK       I    between atoms: N13_22  and  C26_23 
REMARK    5  A    between atoms: C26_23  and  C24_24 
REMARK    6  A    between atoms: C24_24  and  C23_25 
REMARK    7  A    between atoms: C23_25  and  C25_26 
ROOT
HETATM    1  C1    D T9001     -14.795   4.811  -2.078  1.00 30.38     0.107 A 
HETATM    2  C2    D T9001     -14.267   5.829  -1.212  1.00 29.65     0.113 A 
HETATM    3  C3    D T9001     -12.926   6.284  -1.420  1.00 28.21     0.045 A 
HETATM    4  C4    D T9001     -12.110   5.764  -2.444  1.00 27.21     0.088 A 
HETATM    5  C5    D T9001     -12.636   4.730  -3.302  1.00 26.27     0.055 A 
HETATM    6  C6    D T9001     -13.973   4.271  -3.105  1.00 29.22     0.026 A 
HETATM    7  N7    D T9001     -10.854   6.258  -2.579  1.00 25.99    -0.224 NA
HETATM    8  C8    D T9001     -10.096   5.736  -3.565  1.00 24.59     0.200 A 
HETATM    9  N9    D T9001     -10.470   4.764  -4.425  1.00 25.70    -0.205 NA
HETATM   10  C10   D T9001     -11.744   4.249  -4.303  1.00 27.48     0.166 A 
ENDROOT
BRANCH  10  11
HETATM   11  N14   D T9001     -12.170   3.215  -5.194  1.00 23.22    -0.227 NA
BRANCH  11  12
HETATM   12  C15   D T9001     -11.340   2.389  -5.995  1.00 24.25     0.084 A 
HETATM   13  C16   D T9001     -11.883   1.384  -6.859  1.00 25.06     0.033 A 
HETATM   14  C17   D T9001     -11.050   0.570  -7.641  1.00 28.28     0.087 A 
HETATM   15  C18   D T9001      -9.646   0.735  -7.583  1.00 25.55     0.151 A 
HETATM   16 CL     D T9001     -11.778  -0.620  -8.651  1.00 31.70    -0.080 Cl
HETATM   17  C19   D T9001      -9.075   1.722  -6.740  1.00 24.70     0.032 A 
HETATM   18  F21   D T9001      -8.831  -0.034  -8.320  1.00 27.22    -0.203 F 
HETATM   19  C20   D T9001      -9.922   2.547  -5.948  1.00 24.32     0.021 A 
ENDBRANCH  11  12
ENDBRANCH  10  11
BRANCH   1  20
HETATM   20  N13   D T9001     -16.142   4.399  -1.873  1.00 34.61    -0.210 NA
HETATM   21  C26   D T9001     -16.460   3.261  -1.112  1.00 36.24     0.256 C 
HETATM   22  O27   D T9001     -15.654   2.517  -0.551  1.00 39.97    -0.270 OA
BRANCH  21  23
HETATM   23  C24   D T9001     -17.957   3.001  -1.072  1.00 35.38     0.092 C 
BRANCH  23  24
HETATM   24  C23   D T9001     -18.287   1.499  -1.118  1.00 34.93     0.051 C 
BRANCH  24  25
HETATM   25  C25   D T9001     -19.141   1.134   0.102  1.00 37.23     0.339 C 
HETATM   26  N33   D T9001     -19.773   2.365   0.705  1.00 41.10     0.618 N 
ENDBRANCH  24  25
ENDBRANCH  23  24
ENDBRANCH  21  23
ENDBRANCH   1  20
BRANCH   2  27
HETATM   27  O11   D T9001     -15.142   6.283  -0.230  1.00 31.09    -0.327 OA
HETATM   28  C12   D T9001     -14.907   7.539   0.412  1.00 29.66     0.181 C 
ENDBRANCH   2  27
TORSDOF 7
ENDMDL
MODEL 7
REMARK VINA RESULT:    -7.010      3.058      4.488
REMARK INTER + INTRA:         -10.756
REMARK INTER:                  -9.732
REMARK INTRA:                  -1.024
REMARK UNBOUND:                -0.877
REMARK  7 active torsions:
REMARK  status: ('A' for Active; 'I' for Inactive)
REMARK    1  A    between atoms: C1_1  and  N13_22 
REMARK    2  A    between atoms: C2_2  and  O11_20 
REMARK    3  A    between atoms: C10_10  and  N14_11 
REMARK    4  A    between atoms: N14_11  and  C15_12 
REMARK       I    between atoms: N13_22  and  C26_23 
REMARK    5  A    between atoms: C26_23  and  C24_24 
REMARK    6  A    between atoms: C24_24  and  C23_25 
REMARK    7  A    between atoms: C23_25  and  C25_26 
ROOT
HETATM    1  C1    D T9001     -14.223   4.020  -2.887  1.00 30.38     0.107 A 
HETATM    2  C2    D T9001     -13.130   4.828  -2.422  1.00 29.65     0.113 A 
HETATM    3  C3    D T9001     -13.359   5.747  -1.349  1.00 28.21     0.045 A 
HETATM    4  C4    D T9001     -14.622   5.884  -0.738  1.00 27.21     0.088 A 
HETATM    5  C5    D T9001     -15.722   5.083  -1.217  1.00 26.27     0.055 A 
HETATM    6  C6    D T9001     -15.504   4.161  -2.285  1.00 29.22     0.026 A 
HETATM    7  N7    D T9001     -14.751   6.771   0.280  1.00 25.99    -0.224 NA
HETATM    8  C8    D T9001     -15.972   6.882   0.841  1.00 24.59     0.200 A 
HETATM    9  N9    D T9001     -17.078   6.196   0.478  1.00 25.70    -0.205 NA
HETATM   10  C10   D T9001     -16.966   5.291  -0.556  1.00 27.48     0.166 A 
ENDROOT
BRANCH  10  11
HETATM   11  N14   D T9001     -18.120   4.552  -0.968  1.00 23.22    -0.227 NA
BRANCH  11  12
HETATM   12  C15   D T9001     -18.644   3.386  -0.356  1.00 24.25     0.084 A 
HETATM   13  C16   D T9001     -19.156   3.399   0.982  1.00 25.06     0.033 A 
HETATM   14  C17   D T9001     -19.666   2.236   1.579  1.00 28.28     0.087 A 
HETATM   15  C18   D T9001     -19.681   1.021   0.854  1.00 25.55     0.151 A 
HETATM   16 CL     D T9001     -20.257   2.332   3.193  1.00 31.70    -0.080 Cl
HETATM   17  C19   D T9001     -19.185   0.972  -0.474  1.00 24.70     0.032 A 
HETATM   18  F21   D T9001     -20.162  -0.103   1.405  1.00 27.22    -0.203 F 
HETATM   19  C20   D T9001     -18.668   2.153  -1.076  1.00 24.32     0.021 A 
ENDBRANCH  11  12
ENDBRANCH  10  11
BRANCH   1  20
HETATM   20  N13   D T9001     -13.963   3.089  -3.932  1.00 34.61    -0.210 NA
HETATM   21  C26   D T9001     -13.765   1.722  -3.672  1.00 36.24     0.256 C 
HETATM   22  O27   D T9001     -13.795   1.185  -2.563  1.00 39.97    -0.270 OA
BRANCH  21  23
HETATM   23  C24   D T9001     -13.461   0.938  -4.938  1.00 35.38     0.092 C 
BRANCH  23  24
HETATM   24  C23   D T9001     -14.118   1.563  -6.181  1.00 34.93     0.051 C 
BRANCH  24  25
HETATM   25  C25   D T9001     -13.023   2.015  -7.154  1.00 37.23     0.339 C 
HETATM   26  N33   D T9001     -11.979   0.938  -7.328  1.00 41.10     0.618 N 
ENDBRANCH  24  25
ENDBRANCH  23  24
ENDBRANCH  21  23
ENDBRANCH   1  20
BRANCH   2  27
HETATM   27  O11   D T9001     -11.922   4.628  -3.083  1.00 31.09    -0.327 OA
HETATM   28  C12   D T9001     -10.811   5.489  -2.821  1.00 29.66     0.181 C 
ENDBRANCH   2  27
TORSDOF 7
ENDMDL
MODEL 8
REMARK VINA RESULT:    -6.886      4.195      7.818
REMARK INTER + INTRA:         -10.580
REMARK INTER:                  -9.701
REMARK INTRA:                  -0.879
REMARK UNBOUND:                -0.877
REMARK  7 active torsions:
REMARK  status: ('A' for Active; 'I' for Inactive)
REMARK    1  A    between atoms: C1_1  and  N13_22 
REMARK    2  A    between atoms: C2_2  and  O11_20 
REMARK    3  A    between atoms: C10_10  and  N14_11 
REMARK    4  A    between atoms: N14_11  and  C15_12 
REMARK       I    between atoms: N13_22  and  C26_23 
REMARK    5  A    between atoms: C26_23  and  C24_24 
REMARK    6  A    between atoms: C24_24  and  C23_25 
REMARK    7  A    between atoms: C23_25  and  C25_26 
ROOT
HETATM    1  C1    D T9001     -14.535   4.607  -2.661  1.00 30.38     0.107 A 
HETATM    2  C2    D T9001     -13.646   5.249  -1.733  1.00 29.65     0.113 A 
HETATM    3  C3    D T9001     -12.245   5.268  -2.020  1.00 28.21     0.045 A 
HETATM    4  C4    D T9001     -11.711   4.676  -3.183  1.00 27.21     0.088 A 
HETATM    5  C5    D T9001     -12.603   4.018  -4.106  1.00 26.27     0.055 A 
HETATM    6  C6    D T9001     -14.004   3.996  -3.830  1.00 29.22     0.026 A 
HETATM    7  N7    D T9001     -10.372   4.748  -3.384  1.00 25.99    -0.224 NA
HETATM    8  C8    D T9001      -9.892   4.168  -4.503  1.00 24.59     0.200 A 
HETATM    9  N9    D T9001     -10.621   3.518  -5.437  1.00 25.70    -0.205 NA
HETATM   10  C10   D T9001     -11.984   3.434  -5.248  1.00 27.48     0.166 A 
ENDROOT
BRANCH  10  11
HETATM   11  N14   D T9001     -12.784   2.748  -6.215  1.00 23.22    -0.227 NA
BRANCH  11  12
HETATM   12  C15   D T9001     -12.685   1.383  -6.584  1.00 24.25     0.084 A 
HETATM   13  C16   D T9001     -13.499   0.375  -5.974  1.00 25.06     0.033 A 
HETATM   14  C17   D T9001     -13.386  -0.974  -6.343  1.00 28.28     0.087 A 
HETATM   15  C18   D T9001     -12.455  -1.357  -7.338  1.00 25.55     0.151 A 
HETATM   16 CL     D T9001     -14.395  -2.128  -5.559  1.00 31.70    -0.080 Cl
HETATM   17  C19   D T9001     -11.635  -0.384  -7.964  1.00 24.70     0.032 A 
HETATM   18  F21   D T9001     -12.329  -2.641  -7.704  1.00 27.22    -0.203 F 
HETATM   19  C20   D T9001     -11.751   0.983  -7.587  1.00 24.32     0.021 A 
ENDBRANCH  11  12
ENDBRANCH  10  11
BRANCH   1  20
HETATM   20  N13   D T9001     -15.928   4.631  -2.371  1.00 34.61    -0.210 NA
HETATM   21  C26   D T9001     -16.564   3.568  -1.706  1.00 36.24     0.256 C 
HETATM   22  O27   D T9001     -16.021   2.536  -1.307  1.00 39.97    -0.270 OA
BRANCH  21  23
HETATM   23  C24   D T9001     -18.057   3.805  -1.548  1.00 35.38     0.092 C 
BRANCH  23  24
HETATM   24  C23   D T9001     -18.418   4.327  -0.147  1.00 34.93     0.051 C 
BRANCH  24  25
HETATM   25  C25   D T9001     -19.930   4.185   0.068  1.00 37.23     0.339 C 
HETATM   26  N33   D T9001     -20.227   3.545   1.402  1.00 41.10     0.618 N 
ENDBRANCH  24  25
ENDBRANCH  23  24
ENDBRANCH  21  23
ENDBRANCH   1  20
BRANCH   2  27
HETATM   27  O11   D T9001     -14.259   5.805  -0.613  1.00 31.09    -0.327 OA
HETATM   28  C12   D T9001     -14.215   7.218  -0.401  1.00 29.66     0.181 C 
ENDBRANCH   2  27
TORSDOF 7
ENDMDL
MODEL 9
REMARK VINA RESULT:    -6.803      4.438      8.160
REMARK INTER + INTRA:         -10.463
REMARK INTER:                  -9.575
REMARK INTRA:                  -0.888
REMARK UNBOUND:                -0.877
REMARK  7 active torsions:
REMARK  status: ('A' for Active; 'I' for Inactive)
REMARK    1  A    between atoms: C1_1  and  N13_22 
REMARK    2  A    between atoms: C2_2  and  O11_20 
REMARK    3  A    between atoms: C10_10  and  N14_11 
REMARK    4  A    between atoms: N14_11  and  C15_12 
REMARK       I    between atoms: N13_22  and  C26_23 
REMARK    5  A    between atoms: C26_23  and  C24_24 
REMARK    6  A    between atoms: C24_24  and  C23_25 
REMARK    7  A    between atoms: C23_25  and  C25_26 
ROOT
HETATM    1  C1    D T9001     -12.476   3.089  -4.501  1.00 30.38     0.107 A 
HETATM    2  C2    D T9001     -11.150   3.641  -4.505  1.00 29.65     0.113 A 
HETATM    3  C3    D T9001     -10.201   3.149  -5.457  1.00 28.21     0.045 A 
HETATM    4  C4    D T9001     -10.527   2.141  -6.386  1.00 27.21     0.088 A 
HETATM    5  C5    D T9001     -11.855   1.576  -6.369  1.00 26.27     0.055 A 
HETATM    6  C6    D T9001     -12.810   2.062  -5.426  1.00 29.22     0.026 A 
HETATM    7  N7    D T9001      -9.572   1.738  -7.260  1.00 25.99    -0.224 NA
HETATM    8  C8    D T9001      -9.914   0.769  -8.133  1.00 24.59     0.200 A 
HETATM    9  N9    D T9001     -11.117   0.158  -8.212  1.00 25.70    -0.205 NA
HETATM   10  C10   D T9001     -12.100   0.554  -7.330  1.00 27.48     0.166 A 
ENDROOT
BRANCH  10  11
HETATM   11  N14   D T9001     -13.383  -0.076  -7.384  1.00 23.22    -0.227 NA
BRANCH  11  12
HETATM   12  C15   D T9001     -13.645  -1.469  -7.392  1.00 24.25     0.084 A 
HETATM   13  C16   D T9001     -13.694  -2.222  -8.610  1.00 25.06     0.033 A 
HETATM   14  C17   D T9001     -13.961  -3.599  -8.604  1.00 28.28     0.087 A 
HETATM   15  C18   D T9001     -14.188  -4.268  -7.378  1.00 25.55     0.151 A 
HETATM   16 CL     D T9001     -14.009  -4.432 -10.110  1.00 31.70    -0.080 Cl
HETATM   17  C19   D T9001     -14.145  -3.554  -6.153  1.00 24.70     0.032 A 
HETATM   18  F21   D T9001     -14.447  -5.584  -7.350  1.00 27.22    -0.203 F 
HETATM   19  C20   D T9001     -13.874  -2.157  -6.162  1.00 24.32     0.021 A 
ENDBRANCH  11  12
ENDBRANCH  10  11
BRANCH   1  20
HETATM   20  N13   D T9001     -13.412   3.620  -3.569  1.00 34.61    -0.210 NA
HETATM   21  C26   D T9001     -14.371   4.576  -3.946  1.00 36.24     0.256 C 
HETATM   22  O27   D T9001     -14.516   5.049  -5.075  1.00 39.97    -0.270 OA
BRANCH  21  23
HETATM   23  C24   D T9001     -15.227   5.020  -2.772  1.00 35.38     0.092 C 
BRANCH  23  24
HETATM   24  C23   D T9001     -15.097   4.074  -1.566  1.00 34.93     0.051 C 
BRANCH  24  25
HETATM   25  C25   D T9001     -15.706   4.746  -0.330  1.00 37.23     0.339 C 
HETATM   26  N33   D T9001     -14.663   5.536   0.423  1.00 41.10     0.618 N 
ENDBRANCH  24  25
ENDBRANCH  23  24
ENDBRANCH  21  23
ENDBRANCH   1  20
BRANCH   2  27
HETATM   27  O11   D T9001     -10.916   4.630  -3.555  1.00 31.09    -0.327 OA
HETATM   28  C12   D T9001     -10.101   5.759  -3.881  1.00 29.66     0.181 C 
ENDBRANCH   2  27
TORSDOF 7
ENDMDL
