MODEL 1
REMARK VINA RESULT:    -7.776      0.000      0.000
REMARK INTER + INTRA:         -11.985
REMARK INTER:                 -10.958
REMARK INTRA:                  -1.027
REMARK UNBOUND:                -1.027
REMARK  7 active torsions:
REMARK  status: ('A' for Active; 'I' for Inactive)
REMARK    1  A    between atoms: C1_1  and  N13_22 
REMARK    2  A    between atoms: C2_2  and  O11_20 
REMARK    3  A    between atoms: C10_10  and  N14_11 
REMARK    4  A    between atoms: N14_11  and  C15_12 
REMARK       I    between atoms: N13_22  and  C26_23 
REMARK    5  A    between atoms: C26_23  and  C24_24 
REMARK    6  A    between atoms: C24_24  and  C23_25 
REMARK    7  A    between atoms: C23_25  and  C25_26 
ROOT
HETATM    1  C1    D T9001      -8.189   1.826  -1.236  1.00 30.38     0.107 A 
HETATM    2  C2    D T9001      -7.586   1.128  -0.135  1.00 29.65     0.113 A 
HETATM    3  C3    D T9001      -7.355   1.836   1.087  1.00 28.21     0.045 A 
HETATM    4  C4    D T9001      -7.698   3.195   1.241  1.00 27.21     0.088 A 
HETATM    5  C5    D T9001      -8.290   3.899   0.129  1.00 26.27     0.055 A 
HETATM    6  C6    D T9001      -8.528   3.199  -1.094  1.00 29.22     0.026 A 
HETATM    7  N7    D T9001      -7.454   3.789   2.435  1.00 25.99    -0.224 NA
HETATM    8  C8    D T9001      -7.790   5.090   2.549  1.00 24.59     0.200 A 
HETATM    9  N9    D T9001      -8.341   5.856   1.584  1.00 25.70    -0.205 NA
HETATM   10  C10   D T9001      -8.596   5.269   0.362  1.00 27.48     0.166 A 
ENDROOT
BRANCH  10  11
HETATM   11  N14   D T9001      -9.174   6.054  -0.686  1.00 23.22    -0.227 NA
BRANCH  11  12
HETATM   12  C15   D T9001      -8.479   6.843  -1.638  1.00 24.25     0.084 A 
HETATM   13  C16   D T9001      -8.112   6.327  -2.923  1.00 25.06     0.033 A 
HETATM   14  C17   D T9001      -7.418   7.117  -3.852  1.00 28.28     0.087 A 
HETATM   15  C18   D T9001      -7.070   8.450  -3.525  1.00 25.55     0.151 A 
HETATM   16 CL     D T9001      -7.006   6.423  -5.373  1.00 31.70    -0.080 Cl
HETATM   17  C19   D T9001      -7.420   8.992  -2.262  1.00 24.70     0.032 A 
HETATM   18  F21   D T9001      -6.404   9.221  -4.398  1.00 27.22    -0.203 F 
HETATM   19  C20   D T9001      -8.123   8.189  -1.322  1.00 24.32     0.021 A 
ENDBRANCH  11  12
ENDBRANCH  10  11
BRANCH   1  20
HETATM   20  N13   D T9001      -8.443   1.092  -2.429  1.00 34.61    -0.210 NA
HETATM   21  C26   D T9001      -9.728   0.625  -2.752  1.00 36.24     0.256 C 
HETATM   22  O27   D T9001     -10.747   0.788  -2.079  1.00 39.97    -0.270 OA
BRANCH  21  23
HETATM   23  C24   D T9001      -9.739  -0.168  -4.049  1.00 35.38     0.092 C 
BRANCH  23  24
HETATM   24  C23   D T9001      -8.952   0.536  -5.169  1.00 34.93     0.051 C 
BRANCH  24  25
HETATM   25  C25   D T9001      -9.311  -0.104  -6.515  1.00 37.23     0.339 C 
HETATM   26  N33   D T9001      -9.771  -1.528  -6.327  1.00 41.10     0.618 N 
ENDBRANCH  24  25
ENDBRANCH  23  24
ENDBRANCH  21  23
ENDBRANCH   1  20
BRANCH   2  27
HETATM   27  O11   D T9001      -7.280  -0.208  -0.377  1.00 31.09    -0.327 OA
HETATM   28  C12   D T9001      -7.145  -1.120   0.717  1.00 29.66     0.181 C 
ENDBRANCH   2  27
TORSDOF 7
ENDMDL
MODEL 2
REMARK VINA RESULT:    -7.483      2.078      2.432
REMARK INTER + INTRA:         -11.572
REMARK INTER:                 -10.872
REMARK INTRA:                  -0.699
REMARK UNBOUND:                -1.027
REMARK  7 active torsions:
REMARK  status: ('A' for Active; 'I' for Inactive)
REMARK    1  A    between atoms: C1_1  and  N13_22 
REMARK    2  A    between atoms: C2_2  and  O11_20 
REMARK    3  A    between atoms: C10_10  and  N14_11 
REMARK    4  A    between atoms: N14_11  and  C15_12 
REMARK       I    between atoms: N13_22  and  C26_23 
REMARK    5  A    between atoms: C26_23  and  C24_24 
REMARK    6  A    between atoms: C24_24  and  C23_25 
REMARK    7  A    between atoms: C23_25  and  C25_26 
ROOT
HETATM    1  C1    D T9001      -8.557   1.954  -0.988  1.00 30.38     0.107 A 
HETATM    2  C2    D T9001      -7.818   1.190  -0.021  1.00 29.65     0.113 A 
HETATM    3  C3    D T9001      -7.335   1.850   1.154  1.00 28.21     0.045 A 
HETATM    4  C4    D T9001      -7.560   3.222   1.388  1.00 27.21     0.088 A 
HETATM    5  C5    D T9001      -8.289   3.990   0.408  1.00 26.27     0.055 A 
HETATM    6  C6    D T9001      -8.778   3.340  -0.766  1.00 29.22     0.026 A 
HETATM    7  N7    D T9001      -7.075   3.767   2.532  1.00 25.99    -0.224 NA
HETATM    8  C8    D T9001      -7.303   5.082   2.725  1.00 24.59     0.200 A 
HETATM    9  N9    D T9001      -7.963   5.906   1.883  1.00 25.70    -0.205 NA
HETATM   10  C10   D T9001      -8.461   5.369   0.714  1.00 27.48     0.166 A 
ENDROOT
BRANCH  10  11
HETATM   11  N14   D T9001      -9.161   6.216  -0.204  1.00 23.22    -0.227 NA
BRANCH  11  12
HETATM   12  C15   D T9001      -8.822   7.548  -0.556  1.00 24.25     0.084 A 
HETATM   13  C16   D T9001      -9.164   8.660   0.278  1.00 25.06     0.033 A 
HETATM   14  C17   D T9001      -8.830   9.973  -0.086  1.00 28.28     0.087 A 
HETATM   15  C18   D T9001      -8.141  10.214  -1.299  1.00 25.55     0.151 A 
HETATM   16 CL     D T9001      -9.281  11.257   0.968  1.00 31.70    -0.080 Cl
HETATM   17  C19   D T9001      -7.786   9.136  -2.148  1.00 24.70     0.032 A 
HETATM   18  F21   D T9001      -7.814  11.463  -1.667  1.00 27.22    -0.203 F 
HETATM   19  C20   D T9001      -8.126   7.806  -1.776  1.00 24.32     0.021 A 
ENDBRANCH  11  12
ENDBRANCH  10  11
BRANCH   1  20
HETATM   20  N13   D T9001      -9.058   1.269  -2.132  1.00 34.61    -0.210 NA
HETATM   21  C26   D T9001      -8.660   1.614  -3.434  1.00 36.24     0.256 C 
HETATM   22  O27   D T9001      -7.863   2.504  -3.735  1.00 39.97    -0.270 OA
BRANCH  21  23
HETATM   23  C24   D T9001      -9.363   0.773  -4.488  1.00 35.38     0.092 C 
BRANCH  23  24
HETATM   24  C23   D T9001     -10.121  -0.417  -3.874  1.00 34.93     0.051 C 
BRANCH  24  25
HETATM   25  C25   D T9001     -10.247  -1.528  -4.922  1.00 37.23     0.339 C 
HETATM   26  N33   D T9001      -9.646  -1.099  -6.237  1.00 41.10     0.618 N 
ENDBRANCH  24  25
ENDBRANCH  23  24
ENDBRANCH  21  23
ENDBRANCH   1  20
BRANCH   2  27
HETATM   27  O11   D T9001      -7.643  -0.154  -0.335  1.00 31.09    -0.327 OA
HETATM   28  C12   D T9001      -7.145  -1.060   0.653  1.00 29.66     0.181 C 
ENDBRANCH   2  27
TORSDOF 7
ENDMDL
MODEL 3
REMARK VINA RESULT:    -7.442      3.988      6.545
REMARK INTER + INTRA:         -11.514
REMARK INTER:                 -10.358
REMARK INTRA:                  -1.156
REMARK UNBOUND:                -1.027
REMARK  7 active torsions:
REMARK  status: ('A' for Active; 'I' for Inactive)
REMARK    1  A    between atoms: C1_1  and  N13_22 
REMARK    2  A    between atoms: C2_2  and  O11_20 
REMARK    3  A    between atoms: C10_10  and  N14_11 
REMARK    4  A    between atoms: N14_11  and  C15_12 
REMARK       I    between atoms: N13_22  and  C26_23 
REMARK    5  A    between atoms: C26_23  and  C24_24 
REMARK    6  A    between atoms: C24_24  and  C23_25 
REMARK    7  A    between atoms: C23_25  and  C25_26 
ROOT
HETATM    1  C1    D T9001      -7.634   7.363  -3.490  1.00 30.38     0.107 A 
HETATM    2  C2    D T9001      -7.159   8.712  -3.359  1.00 29.65     0.113 A 
HETATM    3  C3    D T9001      -7.215   9.340  -2.073  1.00 28.21     0.045 A 
HETATM    4  C4    D T9001      -7.723   8.678  -0.938  1.00 27.21     0.088 A 
HETATM    5  C5    D T9001      -8.214   7.328  -1.075  1.00 26.27     0.055 A 
HETATM    6  C6    D T9001      -8.159   6.691  -2.352  1.00 29.22     0.026 A 
HETATM    7  N7    D T9001      -7.732   9.342   0.244  1.00 25.99    -0.224 NA
HETATM    8  C8    D T9001      -8.228   8.683   1.311  1.00 24.59     0.200 A 
HETATM    9  N9    D T9001      -8.721   7.426   1.309  1.00 25.70    -0.205 NA
HETATM   10  C10   D T9001      -8.722   6.735   0.115  1.00 27.48     0.166 A 
ENDROOT
BRANCH  10  11
HETATM   11  N14   D T9001      -9.244   5.403   0.077  1.00 23.22    -0.227 NA
BRANCH  11  12
HETATM   12  C15   D T9001      -8.543   4.208   0.379  1.00 24.25     0.084 A 
HETATM   13  C16   D T9001      -8.525   3.094  -0.522  1.00 25.06     0.033 A 
HETATM   14  C17   D T9001      -7.833   1.915  -0.207  1.00 28.28     0.087 A 
HETATM   15  C18   D T9001      -7.135   1.813   1.020  1.00 25.55     0.151 A 
HETATM   16 CL     D T9001      -7.865   0.618  -1.339  1.00 31.70    -0.080 Cl
HETATM   17  C19   D T9001      -7.131   2.897   1.933  1.00 24.70     0.032 A 
HETATM   18  F21   D T9001      -6.469   0.693   1.341  1.00 27.22    -0.203 F 
HETATM   19  C20   D T9001      -7.833   4.091   1.612  1.00 24.32     0.021 A 
ENDBRANCH  11  12
ENDBRANCH  10  11
BRANCH   1  20
HETATM   20  N13   D T9001      -7.536   6.745  -4.769  1.00 34.61    -0.210 NA
HETATM   21  C26   D T9001      -8.631   6.684  -5.647  1.00 36.24     0.256 C 
HETATM   22  O27   D T9001      -9.756   7.138  -5.433  1.00 39.97    -0.270 OA
BRANCH  21  23
HETATM   23  C24   D T9001      -8.294   5.940  -6.929  1.00 35.38     0.092 C 
BRANCH  23  24
HETATM   24  C23   D T9001      -6.951   5.194  -6.835  1.00 34.93     0.051 C 
BRANCH  24  25
HETATM   25  C25   D T9001      -7.217   3.686  -6.764  1.00 37.23     0.339 C 
HETATM   26  N33   D T9001      -6.525   3.073  -5.572  1.00 41.10     0.618 N 
ENDBRANCH  24  25
ENDBRANCH  23  24
ENDBRANCH  21  23
ENDBRANCH   1  20
BRANCH   2  27
HETATM   27  O11   D T9001      -6.677   9.287  -4.530  1.00 31.09    -0.327 OA
HETATM   28  C12   D T9001      -6.979  10.652  -4.834  1.00 29.66     0.181 C 
ENDBRANCH   2  27
TORSDOF 7
ENDMDL
MODEL 4
REMARK VINA RESULT:    -7.205      3.360      5.440
REMARK INTER + INTRA:         -11.180
REMARK INTER:                 -10.372
REMARK INTRA:                  -0.808
REMARK UNBOUND:                -1.027
REMARK  7 active torsions:
REMARK  status: ('A' for Active; 'I' for Inactive)
REMARK    1  A    between atoms: C1_1  and  N13_22 
REMARK    2  A    between atoms: C2_2  and  O11_20 
REMARK    3  A    between atoms: C10_10  and  N14_11 
REMARK    4  A    between atoms: N14_11  and  C15_12 
REMARK       I    between atoms: N13_22  and  C26_23 
REMARK    5  A    between atoms: C26_23  and  C24_24 
REMARK    6  A    between atoms: C24_24  and  C23_25 
REMARK    7  A    between atoms: C23_25  and  C25_26 
ROOT
HETATM    1  C1    D T9001      -9.047   2.317  -4.933  1.00 30.38     0.107 A 
HETATM    2  C2    D T9001      -8.205   2.529  -6.077  1.00 29.65     0.113 A 
HETATM    3  C3    D T9001      -7.447   3.741  -6.159  1.00 28.21     0.045 A 
HETATM    4  C4    D T9001      -7.505   4.729  -5.156  1.00 27.21     0.088 A 
HETATM    5  C5    D T9001      -8.363   4.521  -4.015  1.00 26.27     0.055 A 
HETATM    6  C6    D T9001      -9.120   3.313  -3.922  1.00 29.22     0.026 A 
HETATM    7  N7    D T9001      -6.748   5.844  -5.308  1.00 25.99    -0.224 NA
HETATM    8  C8    D T9001      -6.828   6.773  -4.333  1.00 24.59     0.200 A 
HETATM    9  N9    D T9001      -7.596   6.698  -3.225  1.00 25.70    -0.205 NA
HETATM   10  C10   D T9001      -8.373   5.571  -3.055  1.00 27.48     0.166 A 
ENDROOT
BRANCH  10  11
HETATM   11  N14   D T9001      -9.204   5.462  -1.894  1.00 23.22    -0.227 NA
BRANCH  11  12
HETATM   12  C15   D T9001      -8.783   5.156  -0.575  1.00 24.25     0.084 A 
HETATM   13  C16   D T9001      -8.630   6.171   0.424  1.00 25.06     0.033 A 
HETATM   14  C17   D T9001      -8.206   5.855   1.724  1.00 28.28     0.087 A 
HETATM   15  C18   D T9001      -7.922   4.510   2.065  1.00 25.55     0.151 A 
HETATM   16 CL     D T9001      -8.041   7.132   2.866  1.00 31.70    -0.080 Cl
HETATM   17  C19   D T9001      -8.063   3.481   1.101  1.00 24.70     0.032 A 
HETATM   18  F21   D T9001      -7.512   4.187   3.301  1.00 27.22    -0.203 F 
HETATM   19  C20   D T9001      -8.494   3.804  -0.216  1.00 24.32     0.021 A 
ENDBRANCH  11  12
ENDBRANCH  10  11
BRANCH   1  20
HETATM   20  N13   D T9001      -9.763   1.089  -4.854  1.00 34.61    -0.210 NA
HETATM   21  C26   D T9001      -9.618   0.216  -3.763  1.00 36.24     0.256 C 
HETATM   22  O27   D T9001      -8.894   0.397  -2.783  1.00 39.97    -0.270 OA
BRANCH  21  23
HETATM   23  C24   D T9001     -10.449  -1.046  -3.926  1.00 35.38     0.092 C 
BRANCH  23  24
HETATM   24  C23   D T9001     -10.063  -1.839  -5.187  1.00 34.93     0.051 C 
BRANCH  24  25
HETATM   25  C25   D T9001     -10.304  -3.332  -4.937  1.00 37.23     0.339 C 
HETATM   26  N33   D T9001      -9.258  -4.169  -5.630  1.00 41.10     0.618 N 
ENDBRANCH  24  25
ENDBRANCH  23  24
ENDBRANCH  21  23
ENDBRANCH   1  20
BRANCH   2  27
HETATM   27  O11   D T9001      -8.211   1.503  -7.016  1.00 31.09    -0.327 OA
HETATM   28  C12   D T9001      -8.758   1.728  -8.319  1.00 29.66     0.181 C 
ENDBRANCH   2  27
TORSDOF 7
ENDMDL
MODEL 5
REMARK VINA RESULT:    -7.050      3.814      7.915
REMARK INTER + INTRA:         -10.961
REMARK INTER:                  -9.871
REMARK INTRA:                  -1.090
REMARK UNBOUND:                -1.027
REMARK  7 active torsions:
REMARK  status: ('A' for Active; 'I' for Inactive)
REMARK    1  A    between atoms: C1_1  and  N13_22 
REMARK    2  A    between atoms: C2_2  and  O11_20 
REMARK    3  A    between atoms: C10_10  and  N14_11 
REMARK    4  A    between atoms: N14_11  and  C15_12 
REMARK       I    between atoms: N13_22  and  C26_23 
REMARK    5  A    between atoms: C26_23  and  C24_24 
REMARK    6  A    between atoms: C24_24  and  C23_25 
REMARK    7  A    between atoms: C23_25  and  C25_26 
ROOT
HETATM    1  C1    D T9001      -7.453   4.639  -5.025  1.00 30.38     0.107 A 
HETATM    2  C2    D T9001      -7.165   4.240  -6.374  1.00 29.65     0.113 A 
HETATM    3  C3    D T9001      -7.588   2.944  -6.814  1.00 28.21     0.045 A 
HETATM    4  C4    D T9001      -8.272   2.052  -5.964  1.00 27.21     0.088 A 
HETATM    5  C5    D T9001      -8.546   2.449  -4.604  1.00 26.27     0.055 A 
HETATM    6  C6    D T9001      -8.132   3.741  -4.158  1.00 29.22     0.026 A 
HETATM    7  N7    D T9001      -8.644   0.847  -6.463  1.00 25.99    -0.224 NA
HETATM    8  C8    D T9001      -9.294   0.014  -5.624  1.00 24.59     0.200 A 
HETATM    9  N9    D T9001      -9.602   0.266  -4.334  1.00 25.70    -0.205 NA
HETATM   10  C10   D T9001      -9.229   1.487  -3.810  1.00 27.48     0.166 A 
ENDROOT
BRANCH  10  11
HETATM   11  N14   D T9001      -9.534   1.784  -2.443  1.00 23.22    -0.227 NA
BRANCH  11  12
HETATM   12  C15   D T9001      -8.697   1.566  -1.319  1.00 24.25     0.084 A 
HETATM   13  C16   D T9001      -8.500   2.572  -0.318  1.00 25.06     0.033 A 
HETATM   14  C17   D T9001      -7.663   2.345   0.785  1.00 28.28     0.087 A 
HETATM   15  C18   D T9001      -6.997   1.104   0.922  1.00 25.55     0.151 A 
HETATM   16 CL     D T9001      -7.473   3.605   1.943  1.00 31.70    -0.080 Cl
HETATM   17  C19   D T9001      -7.171   0.087  -0.051  1.00 24.70     0.032 A 
HETATM   18  F21   D T9001      -6.190   0.868   1.968  1.00 27.22    -0.203 F 
HETATM   19  C20   D T9001      -8.020   0.319  -1.168  1.00 24.32     0.021 A 
ENDBRANCH  11  12
ENDBRANCH  10  11
BRANCH   1  20
HETATM   20  N13   D T9001      -7.056   5.945  -4.620  1.00 34.61    -0.210 NA
HETATM   21  C26   D T9001      -7.966   7.015  -4.575  1.00 36.24     0.256 C 
HETATM   22  O27   D T9001      -9.163   6.959  -4.861  1.00 39.97    -0.270 OA
BRANCH  21  23
HETATM   23  C24   D T9001      -7.299   8.315  -4.157  1.00 35.38     0.092 C 
BRANCH  23  24
HETATM   24  C23   D T9001      -8.085   9.044  -3.053  1.00 34.93     0.051 C 
BRANCH  24  25
HETATM   25  C25   D T9001      -7.184   9.217  -1.824  1.00 37.23     0.339 C 
HETATM   26  N33   D T9001      -7.871   8.715  -0.579  1.00 41.10     0.618 N 
ENDBRANCH  24  25
ENDBRANCH  23  24
ENDBRANCH  21  23
ENDBRANCH   1  20
BRANCH   2  27
HETATM   27  O11   D T9001      -6.486   5.182  -7.139  1.00 31.09    -0.327 OA
HETATM   28  C12   D T9001      -7.124   5.776  -8.275  1.00 29.66     0.181 C 
ENDBRANCH   2  27
TORSDOF 7
ENDMDL
MODEL 6
REMARK VINA RESULT:    -7.024      3.505      5.985
REMARK INTER + INTRA:         -10.926
REMARK INTER:                  -9.690
REMARK INTRA:                  -1.236
REMARK UNBOUND:                -1.027
REMARK  7 active torsions:
REMARK  status: ('A' for Active; 'I' for Inactive)
REMARK    1  A    between atoms: C1_1  and  N13_22 
REMARK    2  A    between atoms: C2_2  and  O11_20 
REMARK    3  A    between atoms: C10_10  and  N14_11 
REMARK    4  A    between atoms: N14_11  and  C15_12 
REMARK       I    between atoms: N13_22  and  C26_23 
REMARK    5  A    between atoms: C26_23  and  C24_24 
REMARK    6  A    between atoms: C24_24  and  C23_25 
REMARK    7  A    between atoms: C23_25  and  C25_26 
ROOT
HETATM    1  C1    D T9001      -8.454   5.587  -4.787  1.00 30.38     0.107 A 
HETATM    2  C2    D T9001      -7.848   6.700  -5.462  1.00 29.65     0.113 A 
HETATM    3  C3    D T9001      -7.501   7.863  -4.700  1.00 28.21     0.045 A 
HETATM    4  C4    D T9001      -7.740   7.947  -3.314  1.00 27.21     0.088 A 
HETATM    5  C5    D T9001      -8.363   6.833  -2.640  1.00 26.27     0.055 A 
HETATM    6  C6    D T9001      -8.708   5.668  -3.391  1.00 29.22     0.026 A 
HETATM    7  N7    D T9001      -7.373   9.080  -2.666  1.00 25.99    -0.224 NA
HETATM    8  C8    D T9001      -7.618   9.132  -1.340  1.00 24.59     0.200 A 
HETATM    9  N9    D T9001      -8.199   8.162  -0.602  1.00 25.70    -0.205 NA
HETATM   10  C10   D T9001      -8.580   7.003  -1.244  1.00 27.48     0.166 A 
ENDROOT
BRANCH  10  11
HETATM   11  N14   D T9001      -9.204   5.957  -0.492  1.00 23.22    -0.227 NA
BRANCH  11  12
HETATM   12  C15   D T9001      -8.552   4.942   0.253  1.00 24.25     0.084 A 
HETATM   13  C16   D T9001      -8.279   3.652  -0.306  1.00 25.06     0.033 A 
HETATM   14  C17   D T9001      -7.639   2.654   0.445  1.00 28.28     0.087 A 
HETATM   15  C18   D T9001      -7.252   2.916   1.781  1.00 25.55     0.151 A 
HETATM   16 CL     D T9001      -7.351   1.127  -0.297  1.00 31.70    -0.080 Cl
HETATM   17  C19   D T9001      -7.507   4.183   2.365  1.00 24.70     0.032 A 
HETATM   18  F21   D T9001      -6.642   1.975   2.517  1.00 27.22    -0.203 F 
HETATM   19  C20   D T9001      -8.155   5.193   1.602  1.00 24.32     0.021 A 
ENDBRANCH  11  12
ENDBRANCH  10  11
BRANCH   1  20
HETATM   20  N13   D T9001      -8.757   4.428  -5.557  1.00 34.61    -0.210 NA
HETATM   21  C26   D T9001      -7.840   3.373  -5.698  1.00 36.24     0.256 C 
HETATM   22  O27   D T9001      -6.717   3.318  -5.194  1.00 39.97    -0.270 OA
BRANCH  21  23
HETATM   23  C24   D T9001      -8.371   2.271  -6.601  1.00 35.38     0.092 C 
BRANCH  23  24
HETATM   24  C23   D T9001      -8.358   0.896  -5.911  1.00 34.93     0.051 C 
BRANCH  24  25
HETATM   25  C25   D T9001      -9.408   0.883  -4.794  1.00 37.23     0.339 C 
HETATM   26  N33   D T9001      -8.751   0.784  -3.440  1.00 41.10     0.618 N 
ENDBRANCH  24  25
ENDBRANCH  23  24
ENDBRANCH  21  23
ENDBRANCH   1  20
BRANCH   2  27
HETATM   27  O11   D T9001      -7.652   6.530  -6.829  1.00 31.09    -0.327 OA
HETATM   28  C12   D T9001      -8.333   7.376  -7.760  1.00 29.66     0.181 C 
ENDBRANCH   2  27
TORSDOF 7
ENDMDL
MODEL 7
REMARK VINA RESULT:    -6.959      3.808      7.296
REMARK INTER + INTRA:         -10.834
REMARK INTER:                  -9.922
REMARK INTRA:                  -0.912
REMARK UNBOUND:                -1.027
REMARK  7 active torsions:
REMARK  status: ('A' for Active; 'I' for Inactive)
REMARK    1  A    between atoms: C1_1  and  N13_22 
REMARK    2  A    between atoms: C2_2  and  O11_20 
REMARK    3  A    between atoms: C10_10  and  N14_11 
REMARK    4  A    between atoms: N14_11  and  C15_12 
REMARK       I    between atoms: N13_22  and  C26_23 
REMARK    5  A    between atoms: C26_23  and  C24_24 
REMARK    6  A    between atoms: C24_24  and  C23_25 
REMARK    7  A    between atoms: C23_25  and  C25_26 
ROOT
HETATM    1  C1    D T9001      -8.994   6.363  -0.024  1.00 30.38     0.107 A 
HETATM    2  C2    D T9001      -8.629   5.880   1.279  1.00 29.65     0.113 A 
HETATM    3  C3    D T9001      -8.289   4.498   1.431  1.00 28.21     0.045 A 
HETATM    4  C4    D T9001      -8.303   3.599   0.345  1.00 27.21     0.088 A 
HETATM    5  C5    D T9001      -8.684   4.083  -0.960  1.00 26.27     0.055 A 
HETATM    6  C6    D T9001      -9.022   5.461  -1.123  1.00 29.22     0.026 A 
HETATM    7  N7    D T9001      -7.958   2.308   0.574  1.00 25.99    -0.224 NA
HETATM    8  C8    D T9001      -7.985   1.472  -0.484  1.00 24.59     0.200 A 
HETATM    9  N9    D T9001      -8.329   1.802  -1.747  1.00 25.70    -0.205 NA
HETATM   10  C10   D T9001      -8.685   3.111  -1.998  1.00 27.48     0.166 A 
ENDROOT
BRANCH  10  11
HETATM   11  N14   D T9001      -9.061   3.492  -3.326  1.00 23.22    -0.227 NA
BRANCH  11  12
HETATM   12  C15   D T9001      -8.350   3.218  -4.522  1.00 24.25     0.084 A 
HETATM   13  C16   D T9001      -8.565   2.017  -5.271  1.00 25.06     0.033 A 
HETATM   14  C17   D T9001      -7.848   1.756  -6.449  1.00 28.28     0.087 A 
HETATM   15  C18   D T9001      -6.893   2.691  -6.915  1.00 25.55     0.151 A 
HETATM   16 CL     D T9001      -8.160   0.286  -7.290  1.00 31.70    -0.080 Cl
HETATM   17  C19   D T9001      -6.656   3.890  -6.198  1.00 24.70     0.032 A 
HETATM   18  F21   D T9001      -6.195   2.459  -8.037  1.00 27.22    -0.203 F 
HETATM   19  C20   D T9001      -7.384   4.153  -5.004  1.00 24.32     0.021 A 
ENDBRANCH  11  12
ENDBRANCH  10  11
BRANCH   1  20
HETATM   20  N13   D T9001      -9.293   7.748  -0.159  1.00 34.61    -0.210 NA
HETATM   21  C26   D T9001      -8.325   8.678  -0.573  1.00 36.24     0.256 C 
HETATM   22  O27   D T9001      -7.155   8.423  -0.862  1.00 39.97    -0.270 OA
BRANCH  21  23
HETATM   23  C24   D T9001      -8.869  10.097  -0.599  1.00 35.38     0.092 C 
BRANCH  23  24
HETATM   24  C23   D T9001      -9.309  10.578   0.795  1.00 34.93     0.051 C 
BRANCH  24  25
HETATM   25  C25   D T9001      -9.748  12.044   0.707  1.00 37.23     0.339 C 
HETATM   26  N33   D T9001      -8.595  12.969   1.006  1.00 41.10     0.618 N 
ENDBRANCH  24  25
ENDBRANCH  23  24
ENDBRANCH  21  23
ENDBRANCH   1  20
BRANCH   2  27
HETATM   27  O11   D T9001      -8.644   6.835   2.290  1.00 31.09    -0.327 OA
HETATM   28  C12   D T9001      -7.448   7.123   3.020  1.00 29.66     0.181 C 
ENDBRANCH   2  27
TORSDOF 7
ENDMDL
MODEL 8
REMARK VINA RESULT:    -6.854      4.247      6.713
REMARK INTER + INTRA:         -10.686
REMARK INTER:                  -9.648
REMARK INTRA:                  -1.038
REMARK UNBOUND:                -1.027
REMARK  7 active torsions:
REMARK  status: ('A' for Active; 'I' for Inactive)
REMARK    1  A    between atoms: C1_1  and  N13_22 
REMARK    2  A    between atoms: C2_2  and  O11_20 
REMARK    3  A    between atoms: C10_10  and  N14_11 
REMARK    4  A    between atoms: N14_11  and  C15_12 
REMARK       I    between atoms: N13_22  and  C26_23 
REMARK    5  A    between atoms: C26_23  and  C24_24 
REMARK    6  A    between atoms: C24_24  and  C23_25 
REMARK    7  A    between atoms: C23_25  and  C25_26 
ROOT
HETATM    1  C1    D T9001      -7.454   1.772  -6.615  1.00 30.38     0.107 A 
HETATM    2  C2    D T9001      -6.817   2.733  -7.472  1.00 29.65     0.113 A 
HETATM    3  C3    D T9001      -6.693   4.085  -7.019  1.00 28.21     0.045 A 
HETATM    4  C4    D T9001      -7.178   4.501  -5.763  1.00 27.21     0.088 A 
HETATM    5  C5    D T9001      -7.831   3.538  -4.909  1.00 26.27     0.055 A 
HETATM    6  C6    D T9001      -7.956   2.185  -5.351  1.00 29.22     0.026 A 
HETATM    7  N7    D T9001      -7.012   5.799  -5.406  1.00 25.99    -0.224 NA
HETATM    8  C8    D T9001      -7.490   6.166  -4.200  1.00 24.59     0.200 A 
HETATM    9  N9    D T9001      -8.123   5.363  -3.318  1.00 25.70    -0.205 NA
HETATM   10  C10   D T9001      -8.303   4.040  -3.665  1.00 27.48     0.166 A 
ENDROOT
BRANCH  10  11
HETATM   11  N14   D T9001      -8.976   3.163  -2.756  1.00 23.22    -0.227 NA
BRANCH  11  12
HETATM   12  C15   D T9001      -8.398   2.463  -1.666  1.00 24.25     0.084 A 
HETATM   13  C16   D T9001      -8.135   3.102  -0.411  1.00 25.06     0.033 A 
HETATM   14  C17   D T9001      -7.556   2.399   0.656  1.00 28.28     0.087 A 
HETATM   15  C18   D T9001      -7.221   1.032   0.501  1.00 25.55     0.151 A 
HETATM   16 CL     D T9001      -7.266   3.240   2.130  1.00 31.70    -0.080 Cl
HETATM   17  C19   D T9001      -7.469   0.369  -0.727  1.00 24.70     0.032 A 
HETATM   18  F21   D T9001      -6.664   0.343   1.509  1.00 27.22    -0.203 F 
HETATM   19  C20   D T9001      -8.056   1.084  -1.807  1.00 24.32     0.021 A 
ENDBRANCH  11  12
ENDBRANCH  10  11
BRANCH   1  20
HETATM   20  N13   D T9001      -7.533   0.426  -7.071  1.00 34.61    -0.210 NA
HETATM   21  C26   D T9001      -8.700  -0.088  -7.662  1.00 36.24     0.256 C 
HETATM   22  O27   D T9001      -9.747   0.533  -7.854  1.00 39.97    -0.270 OA
BRANCH  21  23
HETATM   23  C24   D T9001      -8.558  -1.557  -8.026  1.00 35.38     0.092 C 
BRANCH  23  24
HETATM   24  C23   D T9001      -7.270  -1.839  -8.817  1.00 34.93     0.051 C 
BRANCH  24  25
HETATM   25  C25   D T9001      -7.566  -2.875  -9.908  1.00 37.23     0.339 C 
HETATM   26  N33   D T9001      -6.316  -3.212 -10.683  1.00 41.10     0.618 N 
ENDBRANCH  24  25
ENDBRANCH  23  24
ENDBRANCH  21  23
ENDBRANCH   1  20
BRANCH   2  27
HETATM   27  O11   D T9001      -6.370   2.235  -8.692  1.00 31.09    -0.327 OA
HETATM   28  C12   D T9001      -6.985   2.668  -9.910  1.00 29.66     0.181 C 
ENDBRANCH   2  27
TORSDOF 7
ENDMDL
MODEL 9
REMARK VINA RESULT:    -6.846      3.816      5.989
REMARK INTER + INTRA:         -10.674
REMARK INTER:                  -9.792
REMARK INTRA:                  -0.882
REMARK UNBOUND:                -1.027
REMARK  7 active torsions:
REMARK  status: ('A' for Active; 'I' for Inactive)
REMARK    1  A    between atoms: C1_1  and  N13_22 
REMARK    2  A    between atoms: C2_2  and  O11_20 
REMARK    3  A    between atoms: C10_10  and  N14_11 
REMARK    4  A    between atoms: N14_11  and  C15_12 
REMARK       I    between atoms: N13_22  and  C26_23 
REMARK    5  A    between atoms: C26_23  and  C24_24 
REMARK    6  A    between atoms: C24_24  and  C23_25 
REMARK    7  A    between atoms: C23_25  and  C25_26 
ROOT
HETATM    1  C1    D T9001      -7.866   1.935  -6.037  1.00 30.38     0.107 A 
HETATM    2  C2    D T9001      -7.112   2.636  -7.039  1.00 29.65     0.113 A 
HETATM    3  C3    D T9001      -6.756   4.002  -6.804  1.00 28.21     0.045 A 
HETATM    4  C4    D T9001      -7.123   4.679  -5.623  1.00 27.21     0.088 A 
HETATM    5  C5    D T9001      -7.894   3.978  -4.624  1.00 26.27     0.055 A 
HETATM    6  C6    D T9001      -8.251   2.613  -4.848  1.00 29.22     0.026 A 
HETATM    7  N7    D T9001      -6.737   5.970  -5.475  1.00 25.99    -0.224 NA
HETATM    8  C8    D T9001      -7.108   6.591  -4.336  1.00 24.59     0.200 A 
HETATM    9  N9    D T9001      -7.832   6.048  -3.335  1.00 25.70    -0.205 NA
HETATM   10  C10   D T9001      -8.234   4.735  -3.469  1.00 27.48     0.166 A 
ENDROOT
BRANCH  10  11
HETATM   11  N14   D T9001      -9.009   4.130  -2.428  1.00 23.22    -0.227 NA
BRANCH  11  12
HETATM   12  C15   D T9001      -8.598   3.897  -1.090  1.00 24.25     0.084 A 
HETATM   13  C16   D T9001      -8.039   2.644  -0.679  1.00 25.06     0.033 A 
HETATM   14  C17   D T9001      -7.644   2.425   0.649  1.00 28.28     0.087 A 
HETATM   15  C18   D T9001      -7.794   3.455   1.609  1.00 25.55     0.151 A 
HETATM   16 CL     D T9001      -6.987   0.889   1.067  1.00 31.70    -0.080 Cl
HETATM   17  C19   D T9001      -8.342   4.707   1.235  1.00 24.70     0.032 A 
HETATM   18  F21   D T9001      -7.425   3.264   2.885  1.00 27.22    -0.203 F 
HETATM   19  C20   D T9001      -8.742   4.927  -0.112  1.00 24.32     0.021 A 
ENDBRANCH  11  12
ENDBRANCH  10  11
BRANCH   1  20
HETATM   20  N13   D T9001      -8.178   0.567  -6.277  1.00 34.61    -0.210 NA
HETATM   21  C26   D T9001      -9.293   0.186  -7.042  1.00 36.24     0.256 C 
HETATM   22  O27   D T9001     -10.097   0.949  -7.579  1.00 39.97    -0.270 OA
BRANCH  21  23
HETATM   23  C24   D T9001      -9.443  -1.325  -7.120  1.00 35.38     0.092 C 
BRANCH  23  24
HETATM   24  C23   D T9001     -10.024  -1.921  -5.825  1.00 34.93     0.051 C 
BRANCH  24  25
HETATM   25  C25   D T9001      -9.828  -3.441  -5.838  1.00 37.23     0.339 C 
HETATM   26  N33   D T9001     -10.239  -4.047  -4.520  1.00 41.10     0.618 N 
ENDBRANCH  24  25
ENDBRANCH  23  24
ENDBRANCH  21  23
ENDBRANCH   1  20
BRANCH   2  27
HETATM   27  O11   D T9001      -6.795   1.891  -8.171  1.00 31.09    -0.327 OA
HETATM   28  C12   D T9001      -7.307   2.278  -9.449  1.00 29.66     0.181 C 
ENDBRANCH   2  27
TORSDOF 7
ENDMDL
