MODEL 1
REMARK VINA RESULT:    -7.522      0.000      0.000
REMARK INTER + INTRA:         -11.519
REMARK INTER:                 -10.600
REMARK INTRA:                  -0.919
REMARK UNBOUND:                -0.919
REMARK  7 active torsions:
REMARK  status: ('A' for Active; 'I' for Inactive)
REMARK    1  A    between atoms: C1_1  and  N13_22 
REMARK    2  A    between atoms: C2_2  and  O11_20 
REMARK    3  A    between atoms: C10_10  and  N14_11 
REMARK    4  A    between atoms: N14_11  and  C15_12 
REMARK       I    between atoms: N13_22  and  C26_23 
REMARK    5  A    between atoms: C26_23  and  C24_24 
REMARK    6  A    between atoms: C24_24  and  C23_25 
REMARK    7  A    between atoms: C23_25  and  C25_26 
ROOT
HETATM    1  C1    D T9001       8.298  11.834   5.199  1.00 30.38     0.107 A 
HETATM    2  C2    D T9001       9.728  11.868   5.072  1.00 29.65     0.113 A 
HETATM    3  C3    D T9001      10.512  10.945   5.836  1.00 28.21     0.045 A 
HETATM    4  C4    D T9001       9.921  10.009   6.710  1.00 27.21     0.088 A 
HETATM    5  C5    D T9001       8.486   9.985   6.848  1.00 26.27     0.055 A 
HETATM    6  C6    D T9001       7.696  10.900   6.087  1.00 29.22     0.026 A 
HETATM    7  N7    D T9001      10.735   9.164   7.390  1.00 25.99    -0.224 NA
HETATM    8  C8    D T9001      10.143   8.282   8.220  1.00 24.59     0.200 A 
HETATM    9  N9    D T9001       8.815   8.168   8.441  1.00 25.70    -0.205 NA
HETATM   10  C10   D T9001       7.971   9.020   7.758  1.00 27.48     0.166 A 
ENDROOT
BRANCH  10  11
HETATM   11  N14   D T9001       6.560   8.929   7.973  1.00 23.22    -0.227 NA
BRANCH  11  12
HETATM   12  C15   D T9001       5.610   8.303   7.125  1.00 24.25     0.084 A 
HETATM   13  C16   D T9001       4.958   9.014   6.068  1.00 25.06     0.033 A 
HETATM   14  C17   D T9001       4.014   8.385   5.242  1.00 28.28     0.087 A 
HETATM   15  C18   D T9001       3.695   7.021   5.448  1.00 25.55     0.151 A 
HETATM   16 CL     D T9001       3.268   9.309   3.996  1.00 31.70    -0.080 Cl
HETATM   17  C19   D T9001       4.323   6.287   6.485  1.00 24.70     0.032 A 
HETATM   18  F21   D T9001       2.794   6.401   4.672  1.00 27.22    -0.203 F 
HETATM   19  C20   D T9001       5.280   6.928   7.321  1.00 24.32     0.021 A 
ENDBRANCH  11  12
ENDBRANCH  10  11
BRANCH   1  20
HETATM   20  N13   D T9001       7.539  12.737   4.403  1.00 34.61    -0.210 NA
HETATM   21  C26   D T9001       7.168  12.427   3.083  1.00 36.24     0.256 C 
HETATM   22  O27   D T9001       7.435  11.386   2.481  1.00 39.97    -0.270 OA
BRANCH  21  23
HETATM   23  C24   D T9001       6.402  13.562   2.424  1.00 35.38     0.092 C 
BRANCH  23  24
HETATM   24  C23   D T9001       5.275  13.051   1.509  1.00 34.93     0.051 C 
BRANCH  24  25
HETATM   25  C25   D T9001       4.069  12.659   2.369  1.00 37.23     0.339 C 
HETATM   26  N33   D T9001       3.403  13.882   2.952  1.00 41.10     0.618 N 
ENDBRANCH  24  25
ENDBRANCH  23  24
ENDBRANCH  21  23
ENDBRANCH   1  20
BRANCH   2  27
HETATM   27  O11   D T9001      10.222  12.824   4.190  1.00 31.09    -0.327 OA
HETATM   28  C12   D T9001      11.180  13.786   4.640  1.00 29.66     0.181 C 
ENDBRANCH   2  27
TORSDOF 7
ENDMDL
MODEL 2
REMARK VINA RESULT:    -7.283      3.647      5.709
REMARK INTER + INTRA:         -11.183
REMARK INTER:                 -10.223
REMARK INTRA:                  -0.960
REMARK UNBOUND:                -0.919
REMARK  7 active torsions:
REMARK  status: ('A' for Active; 'I' for Inactive)
REMARK    1  A    between atoms: C1_1  and  N13_22 
REMARK    2  A    between atoms: C2_2  and  O11_20 
REMARK    3  A    between atoms: C10_10  and  N14_11 
REMARK    4  A    between atoms: N14_11  and  C15_12 
REMARK       I    between atoms: N13_22  and  C26_23 
REMARK    5  A    between atoms: C26_23  and  C24_24 
REMARK    6  A    between atoms: C24_24  and  C23_25 
REMARK    7  A    between atoms: C23_25  and  C25_26 
ROOT
HETATM    1  C1    D T9001       6.048  10.610   5.013  1.00 30.38     0.107 A 
HETATM    2  C2    D T9001       4.899   9.864   4.578  1.00 29.65     0.113 A 
HETATM    3  C3    D T9001       4.549   8.664   5.274  1.00 28.21     0.045 A 
HETATM    4  C4    D T9001       5.299   8.191   6.371  1.00 27.21     0.088 A 
HETATM    5  C5    D T9001       6.461   8.932   6.799  1.00 26.27     0.055 A 
HETATM    6  C6    D T9001       6.815  10.132   6.111  1.00 29.22     0.026 A 
HETATM    7  N7    D T9001       4.893   7.051   6.981  1.00 25.99    -0.224 NA
HETATM    8  C8    D T9001       5.632   6.621   8.025  1.00 24.59     0.200 A 
HETATM    9  N9    D T9001       6.741   7.219   8.512  1.00 25.70    -0.205 NA
HETATM   10  C10   D T9001       7.168   8.381   7.903  1.00 27.48     0.166 A 
ENDROOT
BRANCH  10  11
HETATM   11  N14   D T9001       8.342   9.037   8.392  1.00 23.22    -0.227 NA
BRANCH  11  12
HETATM   12  C15   D T9001       9.587   8.431   8.702  1.00 24.25     0.084 A 
HETATM   13  C16   D T9001       9.966   8.131  10.049  1.00 25.06     0.033 A 
HETATM   14  C17   D T9001      11.204   7.539  10.342  1.00 28.28     0.087 A 
HETATM   15  C18   D T9001      12.102   7.226   9.295  1.00 25.55     0.151 A 
HETATM   16 CL     D T9001      11.589   7.214  11.989  1.00 31.70    -0.080 Cl
HETATM   17  C19   D T9001      11.758   7.509   7.948  1.00 24.70     0.032 A 
HETATM   18  F21   D T9001      13.291   6.663   9.552  1.00 27.22    -0.203 F 
HETATM   19  C20   D T9001      10.501   8.110   7.654  1.00 24.32     0.021 A 
ENDBRANCH  11  12
ENDBRANCH  10  11
BRANCH   1  20
HETATM   20  N13   D T9001       6.355  11.818   4.327  1.00 34.61    -0.210 NA
HETATM   21  C26   D T9001       7.462  11.919   3.466  1.00 36.24     0.256 C 
HETATM   22  O27   D T9001       8.261  11.019   3.207  1.00 39.97    -0.270 OA
BRANCH  21  23
HETATM   23  C24   D T9001       7.608  13.316   2.886  1.00 35.38     0.092 C 
BRANCH  23  24
HETATM   24  C23   D T9001       7.667  13.305   1.349  1.00 34.93     0.051 C 
BRANCH  24  25
HETATM   25  C25   D T9001       6.371  12.696   0.801  1.00 37.23     0.339 C 
HETATM   26  N33   D T9001       5.168  13.473   1.276  1.00 41.10     0.618 N 
ENDBRANCH  24  25
ENDBRANCH  23  24
ENDBRANCH  21  23
ENDBRANCH   1  20
BRANCH   2  27
HETATM   27  O11   D T9001       4.222  10.404   3.488  1.00 31.09    -0.327 OA
HETATM   28  C12   D T9001       2.792  10.376   3.450  1.00 29.66     0.181 C 
ENDBRANCH   2  27
TORSDOF 7
ENDMDL
MODEL 3
REMARK VINA RESULT:    -7.282      3.575      7.666
REMARK INTER + INTRA:         -11.181
REMARK INTER:                 -10.388
REMARK INTRA:                  -0.793
REMARK UNBOUND:                -0.919
REMARK  7 active torsions:
REMARK  status: ('A' for Active; 'I' for Inactive)
REMARK    1  A    between atoms: C1_1  and  N13_22 
REMARK    2  A    between atoms: C2_2  and  O11_20 
REMARK    3  A    between atoms: C10_10  and  N14_11 
REMARK    4  A    between atoms: N14_11  and  C15_12 
REMARK       I    between atoms: N13_22  and  C26_23 
REMARK    5  A    between atoms: C26_23  and  C24_24 
REMARK    6  A    between atoms: C24_24  and  C23_25 
REMARK    7  A    between atoms: C23_25  and  C25_26 
ROOT
HETATM    1  C1    D T9001       6.672   9.852   5.866  1.00 30.38     0.107 A 
HETATM    2  C2    D T9001       5.641   8.897   6.167  1.00 29.65     0.113 A 
HETATM    3  C3    D T9001       4.447   8.897   5.377  1.00 28.21     0.045 A 
HETATM    4  C4    D T9001       4.253   9.806   4.317  1.00 27.21     0.088 A 
HETATM    5  C5    D T9001       5.281  10.774   4.025  1.00 26.27     0.055 A 
HETATM    6  C6    D T9001       6.477  10.779   4.806  1.00 29.22     0.026 A 
HETATM    7  N7    D T9001       3.097   9.732   3.613  1.00 25.99    -0.224 NA
HETATM    8  C8    D T9001       2.938  10.616   2.607  1.00 24.59     0.200 A 
HETATM    9  N9    D T9001       3.820  11.572   2.243  1.00 25.70    -0.205 NA
HETATM   10  C10   D T9001       5.002  11.662   2.949  1.00 27.48     0.166 A 
ENDROOT
BRANCH  10  11
HETATM   11  N14   D T9001       5.956  12.666   2.592  1.00 23.22    -0.227 NA
BRANCH  11  12
HETATM   12  C15   D T9001       6.748  12.706   1.416  1.00 24.25     0.084 A 
HETATM   13  C16   D T9001       6.340  13.436   0.255  1.00 25.06     0.033 A 
HETATM   14  C17   D T9001       7.130  13.460  -0.905  1.00 28.28     0.087 A 
HETATM   15  C18   D T9001       8.356  12.754  -0.938  1.00 25.55     0.151 A 
HETATM   16 CL     D T9001       6.568  14.357  -2.263  1.00 31.70    -0.080 Cl
HETATM   17  C19   D T9001       8.791  12.021   0.196  1.00 24.70     0.032 A 
HETATM   18  F21   D T9001       9.125  12.760  -2.036  1.00 27.22    -0.203 F 
HETATM   19  C20   D T9001       7.988  11.998   1.370  1.00 24.32     0.021 A 
ENDBRANCH  11  12
ENDBRANCH  10  11
BRANCH   1  20
HETATM   20  N13   D T9001       7.863   9.809   6.642  1.00 34.61    -0.210 NA
HETATM   21  C26   D T9001       9.135   9.760   6.044  1.00 36.24     0.256 C 
HETATM   22  O27   D T9001       9.365   9.753   4.834  1.00 39.97    -0.270 OA
BRANCH  21  23
HETATM   23  C24   D T9001      10.248   9.677   7.075  1.00 35.38     0.092 C 
BRANCH  23  24
HETATM   24  C23   D T9001       9.750   9.142   8.428  1.00 34.93     0.051 C 
BRANCH  24  25
HETATM   25  C25   D T9001      10.584   7.918   8.823  1.00 37.23     0.339 C 
HETATM   26  N33   D T9001      10.892   7.065   7.617  1.00 41.10     0.618 N 
ENDBRANCH  24  25
ENDBRANCH  23  24
ENDBRANCH  21  23
ENDBRANCH   1  20
BRANCH   2  27
HETATM   27  O11   D T9001       5.918   8.042   7.229  1.00 31.09    -0.327 OA
HETATM   28  C12   D T9001       5.281   6.763   7.303  1.00 29.66     0.181 C 
ENDBRANCH   2  27
TORSDOF 7
ENDMDL
MODEL 4
REMARK VINA RESULT:    -7.164      3.331      5.471
REMARK INTER + INTRA:         -11.014
REMARK INTER:                  -9.992
REMARK INTRA:                  -1.022
REMARK UNBOUND:                -0.919
REMARK  7 active torsions:
REMARK  status: ('A' for Active; 'I' for Inactive)
REMARK    1  A    between atoms: C1_1  and  N13_22 
REMARK    2  A    between atoms: C2_2  and  O11_20 
REMARK    3  A    between atoms: C10_10  and  N14_11 
REMARK    4  A    between atoms: N14_11  and  C15_12 
REMARK       I    between atoms: N13_22  and  C26_23 
REMARK    5  A    between atoms: C26_23  and  C24_24 
REMARK    6  A    between atoms: C24_24  and  C23_25 
REMARK    7  A    between atoms: C23_25  and  C25_26 
ROOT
HETATM    1  C1    D T9001       6.014  10.549   5.049  1.00 30.38     0.107 A 
HETATM    2  C2    D T9001       4.866   9.815   4.594  1.00 29.65     0.113 A 
HETATM    3  C3    D T9001       4.511   8.602   5.266  1.00 28.21     0.045 A 
HETATM    4  C4    D T9001       5.255   8.106   6.356  1.00 27.21     0.088 A 
HETATM    5  C5    D T9001       6.417   8.835   6.802  1.00 26.27     0.055 A 
HETATM    6  C6    D T9001       6.777  10.048   6.139  1.00 29.22     0.026 A 
HETATM    7  N7    D T9001       4.845   6.954   6.942  1.00 25.99    -0.224 NA
HETATM    8  C8    D T9001       5.579   6.503   7.979  1.00 24.59     0.200 A 
HETATM    9  N9    D T9001       6.688   7.088   8.482  1.00 25.70    -0.205 NA
HETATM   10  C10   D T9001       7.120   8.261   7.897  1.00 27.48     0.166 A 
ENDROOT
BRANCH  10  11
HETATM   11  N14   D T9001       8.293   8.904   8.403  1.00 23.22    -0.227 NA
BRANCH  11  12
HETATM   12  C15   D T9001       9.598   8.848   7.849  1.00 24.25     0.084 A 
HETATM   13  C16   D T9001      10.266  10.021   7.370  1.00 25.06     0.033 A 
HETATM   14  C17   D T9001      11.553   9.950   6.817  1.00 28.28     0.087 A 
HETATM   15  C18   D T9001      12.215   8.702   6.728  1.00 25.55     0.151 A 
HETATM   16 CL     D T9001      12.287  11.404   6.257  1.00 31.70    -0.080 Cl
HETATM   17  C19   D T9001      11.583   7.521   7.194  1.00 24.70     0.032 A 
HETATM   18  F21   D T9001      13.445   8.612   6.201  1.00 27.22    -0.203 F 
HETATM   19  C20   D T9001      10.277   7.596   7.755  1.00 24.32     0.021 A 
ENDBRANCH  11  12
ENDBRANCH  10  11
BRANCH   1  20
HETATM   20  N13   D T9001       6.327  11.770   4.388  1.00 34.61    -0.210 NA
HETATM   21  C26   D T9001       7.435  11.884   3.530  1.00 36.24     0.256 C 
HETATM   22  O27   D T9001       8.231  10.986   3.252  1.00 39.97    -0.270 OA
BRANCH  21  23
HETATM   23  C24   D T9001       7.587  13.293   2.979  1.00 35.38     0.092 C 
BRANCH  23  24
HETATM   24  C23   D T9001       7.953  13.297   1.485  1.00 34.93     0.051 C 
BRANCH  24  25
HETATM   25  C25   D T9001       6.761  12.775   0.674  1.00 37.23     0.339 C 
HETATM   26  N33   D T9001       6.863  13.206  -0.769  1.00 41.10     0.618 N 
ENDBRANCH  24  25
ENDBRANCH  23  24
ENDBRANCH  21  23
ENDBRANCH   1  20
BRANCH   2  27
HETATM   27  O11   D T9001       4.193  10.378   3.514  1.00 31.09    -0.327 OA
HETATM   28  C12   D T9001       2.763  10.375   3.481  1.00 29.66     0.181 C 
ENDBRANCH   2  27
TORSDOF 7
ENDMDL
MODEL 5
REMARK VINA RESULT:    -6.921      3.661      5.809
REMARK INTER + INTRA:         -10.672
REMARK INTER:                  -9.823
REMARK INTRA:                  -0.849
REMARK UNBOUND:                -0.919
REMARK  7 active torsions:
REMARK  status: ('A' for Active; 'I' for Inactive)
REMARK    1  A    between atoms: C1_1  and  N13_22 
REMARK    2  A    between atoms: C2_2  and  O11_20 
REMARK    3  A    between atoms: C10_10  and  N14_11 
REMARK    4  A    between atoms: N14_11  and  C15_12 
REMARK       I    between atoms: N13_22  and  C26_23 
REMARK    5  A    between atoms: C26_23  and  C24_24 
REMARK    6  A    between atoms: C24_24  and  C23_25 
REMARK    7  A    between atoms: C23_25  and  C25_26 
ROOT
HETATM    1  C1    D T9001       6.488  11.328   4.247  1.00 30.38     0.107 A 
HETATM    2  C2    D T9001       5.225  10.764   3.854  1.00 29.65     0.113 A 
HETATM    3  C3    D T9001       4.679   9.688   4.625  1.00 28.21     0.045 A 
HETATM    4  C4    D T9001       5.344   9.165   5.753  1.00 27.21     0.088 A 
HETATM    5  C5    D T9001       6.618   9.721   6.137  1.00 26.27     0.055 A 
HETATM    6  C6    D T9001       7.169  10.797   5.376  1.00 29.22     0.026 A 
HETATM    7  N7    D T9001       4.753   8.152   6.433  1.00 25.99    -0.224 NA
HETATM    8  C8    D T9001       5.414   7.670   7.505  1.00 24.59     0.200 A 
HETATM    9  N9    D T9001       6.612   8.098   7.958  1.00 25.70    -0.205 NA
HETATM   10  C10   D T9001       7.229   9.129   7.278  1.00 27.48     0.166 A 
ENDROOT
BRANCH  10  11
HETATM   11  N14   D T9001       8.500   9.603   7.729  1.00 23.22    -0.227 NA
BRANCH  11  12
HETATM   12  C15   D T9001       9.586   8.815   8.190  1.00 24.25     0.084 A 
HETATM   13  C16   D T9001       9.786   8.545   9.582  1.00 25.06     0.033 A 
HETATM   14  C17   D T9001      10.869   7.770  10.025  1.00 28.28     0.087 A 
HETATM   15  C18   D T9001      11.786   7.239   9.087  1.00 25.55     0.151 A 
HETATM   16 CL     D T9001      11.044   7.495  11.716  1.00 31.70    -0.080 Cl
HETATM   17  C19   D T9001      11.618   7.487   7.701  1.00 24.70     0.032 A 
HETATM   18  F21   D T9001      12.830   6.499   9.489  1.00 27.22    -0.203 F 
HETATM   19  C20   D T9001      10.519   8.272   7.255  1.00 24.32     0.021 A 
ENDBRANCH  11  12
ENDBRANCH  10  11
BRANCH   1  20
HETATM   20  N13   D T9001       6.993  12.419   3.486  1.00 34.61    -0.210 NA
HETATM   21  C26   D T9001       7.934  12.232   2.459  1.00 36.24     0.256 C 
HETATM   22  O27   D T9001       8.412  11.154   2.103  1.00 39.97    -0.270 OA
BRANCH  21  23
HETATM   23  C24   D T9001       8.354  13.547   1.823  1.00 35.38     0.092 C 
BRANCH  23  24
HETATM   24  C23   D T9001       9.882  13.671   1.697  1.00 34.93     0.051 C 
BRANCH  24  25
HETATM   25  C25   D T9001      10.284  13.463   0.232  1.00 37.23     0.339 C 
HETATM   26  N33   D T9001      10.567  14.785  -0.441  1.00 41.10     0.618 N 
ENDBRANCH  24  25
ENDBRANCH  23  24
ENDBRANCH  21  23
ENDBRANCH   1  20
BRANCH   2  27
HETATM   27  O11   D T9001       4.643  11.342   2.730  1.00 31.09    -0.327 OA
HETATM   28  C12   D T9001       3.382  10.865   2.252  1.00 29.66     0.181 C 
ENDBRANCH   2  27
TORSDOF 7
ENDMDL
MODEL 6
REMARK VINA RESULT:    -6.672      3.204      5.834
REMARK INTER + INTRA:         -10.321
REMARK INTER:                 -10.060
REMARK INTRA:                  -0.261
REMARK UNBOUND:                -0.919
REMARK  7 active torsions:
REMARK  status: ('A' for Active; 'I' for Inactive)
REMARK    1  A    between atoms: C1_1  and  N13_22 
REMARK    2  A    between atoms: C2_2  and  O11_20 
REMARK    3  A    between atoms: C10_10  and  N14_11 
REMARK    4  A    between atoms: N14_11  and  C15_12 
REMARK       I    between atoms: N13_22  and  C26_23 
REMARK    5  A    between atoms: C26_23  and  C24_24 
REMARK    6  A    between atoms: C24_24  and  C23_25 
REMARK    7  A    between atoms: C23_25  and  C25_26 
ROOT
HETATM    1  C1    D T9001       7.875  13.315   1.601  1.00 30.38     0.107 A 
HETATM    2  C2    D T9001       6.928  13.615   0.563  1.00 29.65     0.113 A 
HETATM    3  C3    D T9001       5.601  13.089   0.665  1.00 28.21     0.045 A 
HETATM    4  C4    D T9001       5.198  12.284   1.750  1.00 27.21     0.088 A 
HETATM    5  C5    D T9001       6.153  11.970   2.784  1.00 26.27     0.055 A 
HETATM    6  C6    D T9001       7.479  12.494   2.692  1.00 29.22     0.026 A 
HETATM    7  N7    D T9001       3.920  11.833   1.774  1.00 25.99    -0.224 NA
HETATM    8  C8    D T9001       3.564  11.063   2.823  1.00 24.59     0.200 A 
HETATM    9  N9    D T9001       4.367  10.693   3.845  1.00 25.70    -0.205 NA
HETATM   10  C10   D T9001       5.671  11.143   3.836  1.00 27.48     0.166 A 
ENDROOT
BRANCH  10  11
HETATM   11  N14   D T9001       6.548  10.766   4.902  1.00 23.22    -0.227 NA
BRANCH  11  12
HETATM   12  C15   D T9001       6.345   9.723   5.841  1.00 24.25     0.084 A 
HETATM   13  C16   D T9001       5.354   8.709   5.641  1.00 25.06     0.033 A 
HETATM   14  C17   D T9001       5.158   7.687   6.582  1.00 28.28     0.087 A 
HETATM   15  C18   D T9001       5.949   7.647   7.755  1.00 25.55     0.151 A 
HETATM   16 CL     D T9001       3.943   6.507   6.271  1.00 31.70    -0.080 Cl
HETATM   17  C19   D T9001       6.940   8.635   7.984  1.00 24.70     0.032 A 
HETATM   18  F21   D T9001       5.777   6.681   8.668  1.00 27.22    -0.203 F 
HETATM   19  C20   D T9001       7.137   9.670   7.028  1.00 24.32     0.021 A 
ENDBRANCH  11  12
ENDBRANCH  10  11
BRANCH   1  20
HETATM   20  N13   D T9001       9.177  13.879   1.496  1.00 34.61    -0.210 NA
HETATM   21  C26   D T9001      10.264  13.142   0.995  1.00 36.24     0.256 C 
HETATM   22  O27   D T9001      10.227  11.976   0.599  1.00 39.97    -0.270 OA
BRANCH  21  23
HETATM   23  C24   D T9001      11.557  13.941   1.020  1.00 35.38     0.092 C 
BRANCH  23  24
HETATM   24  C23   D T9001      12.055  14.287  -0.394  1.00 34.93     0.051 C 
BRANCH  24  25
HETATM   25  C25   D T9001      13.587  14.310  -0.395  1.00 37.23     0.339 C 
HETATM   26  N33   D T9001      14.137  13.630   0.835  1.00 41.10     0.618 N 
ENDBRANCH  24  25
ENDBRANCH  23  24
ENDBRANCH  21  23
ENDBRANCH   1  20
BRANCH   2  27
HETATM   27  O11   D T9001       7.413  14.415  -0.468  1.00 31.09    -0.327 OA
HETATM   28  C12   D T9001       7.601  13.862  -1.774  1.00 29.66     0.181 C 
ENDBRANCH   2  27
TORSDOF 7
ENDMDL
MODEL 7
REMARK VINA RESULT:    -6.506      3.313      6.591
REMARK INTER + INTRA:         -10.087
REMARK INTER:                  -8.909
REMARK INTRA:                  -1.178
REMARK UNBOUND:                -0.919
REMARK  7 active torsions:
REMARK  status: ('A' for Active; 'I' for Inactive)
REMARK    1  A    between atoms: C1_1  and  N13_22 
REMARK    2  A    between atoms: C2_2  and  O11_20 
REMARK    3  A    between atoms: C10_10  and  N14_11 
REMARK    4  A    between atoms: N14_11  and  C15_12 
REMARK       I    between atoms: N13_22  and  C26_23 
REMARK    5  A    between atoms: C26_23  and  C24_24 
REMARK    6  A    between atoms: C24_24  and  C23_25 
REMARK    7  A    between atoms: C23_25  and  C25_26 
ROOT
HETATM    1  C1    D T9001      10.269   9.609   8.240  1.00 30.38     0.107 A 
HETATM    2  C2    D T9001       9.962   8.443   9.021  1.00 29.65     0.113 A 
HETATM    3  C3    D T9001       8.662   7.855   8.903  1.00 28.21     0.045 A 
HETATM    4  C4    D T9001       7.676   8.387   8.047  1.00 27.21     0.088 A 
HETATM    5  C5    D T9001       7.980   9.567   7.275  1.00 26.27     0.055 A 
HETATM    6  C6    D T9001       9.276  10.158   7.384  1.00 29.22     0.026 A 
HETATM    7  N7    D T9001       6.474   7.764   7.988  1.00 25.99    -0.224 NA
HETATM    8  C8    D T9001       5.550   8.298   7.163  1.00 24.59     0.200 A 
HETATM    9  N9    D T9001       5.710   9.400   6.398  1.00 25.70    -0.205 NA
HETATM   10  C10   D T9001       6.928  10.047   6.447  1.00 27.48     0.166 A 
ENDROOT
BRANCH  10  11
HETATM   11  N14   D T9001       7.129  11.220   5.652  1.00 23.22    -0.227 NA
BRANCH  11  12
HETATM   12  C15   D T9001       7.410  11.267   4.263  1.00 24.25     0.084 A 
HETATM   13  C16   D T9001       6.464  11.777   3.317  1.00 25.06     0.033 A 
HETATM   14  C17   D T9001       6.753  11.810   1.945  1.00 28.28     0.087 A 
HETATM   15  C18   D T9001       8.000  11.334   1.474  1.00 25.55     0.151 A 
HETATM   16 CL     D T9001       5.560  12.433   0.870  1.00 31.70    -0.080 Cl
HETATM   17  C19   D T9001       8.960  10.823   2.384  1.00 24.70     0.032 A 
HETATM   18  F21   D T9001       8.295  11.354   0.167  1.00 27.22    -0.203 F 
HETATM   19  C20   D T9001       8.665  10.791   3.775  1.00 24.32     0.021 A 
ENDBRANCH  11  12
ENDBRANCH  10  11
BRANCH   1  20
HETATM   20  N13   D T9001      11.579  10.154   8.347  1.00 34.61    -0.210 NA
HETATM   21  C26   D T9001      12.610   9.784   7.466  1.00 36.24     0.256 C 
HETATM   22  O27   D T9001      12.512   8.985   6.533  1.00 39.97    -0.270 OA
BRANCH  21  23
HETATM   23  C24   D T9001      13.925  10.465   7.807  1.00 35.38     0.092 C 
BRANCH  23  24
HETATM   24  C23   D T9001      14.416  11.382   6.674  1.00 34.93     0.051 C 
BRANCH  24  25
HETATM   25  C25   D T9001      14.053  12.834   7.010  1.00 37.23     0.339 C 
HETATM   26  N33   D T9001      13.914  13.022   8.501  1.00 41.10     0.618 N 
ENDBRANCH  24  25
ENDBRANCH  23  24
ENDBRANCH  21  23
ENDBRANCH   1  20
BRANCH   2  27
HETATM   27  O11   D T9001      10.994   7.989   9.837  1.00 31.09    -0.327 OA
HETATM   28  C12   D T9001      11.696   6.789   9.502  1.00 29.66     0.181 C 
ENDBRANCH   2  27
TORSDOF 7
ENDMDL
MODEL 8
REMARK VINA RESULT:    -6.446      4.203      6.514
REMARK INTER + INTRA:         -10.003
REMARK INTER:                  -9.088
REMARK INTRA:                  -0.916
REMARK UNBOUND:                -0.919
REMARK  7 active torsions:
REMARK  status: ('A' for Active; 'I' for Inactive)
REMARK    1  A    between atoms: C1_1  and  N13_22 
REMARK    2  A    between atoms: C2_2  and  O11_20 
REMARK    3  A    between atoms: C10_10  and  N14_11 
REMARK    4  A    between atoms: N14_11  and  C15_12 
REMARK       I    between atoms: N13_22  and  C26_23 
REMARK    5  A    between atoms: C26_23  and  C24_24 
REMARK    6  A    between atoms: C24_24  and  C23_25 
REMARK    7  A    between atoms: C23_25  and  C25_26 
ROOT
HETATM    1  C1    D T9001       6.869  14.678  -1.364  1.00 30.38     0.107 A 
HETATM    2  C2    D T9001       8.245  14.751  -1.768  1.00 29.65     0.113 A 
HETATM    3  C3    D T9001       9.262  14.377  -0.833  1.00 28.21     0.045 A 
HETATM    4  C4    D T9001       8.952  13.942   0.472  1.00 27.21     0.088 A 
HETATM    5  C5    D T9001       7.571  13.883   0.883  1.00 26.27     0.055 A 
HETATM    6  C6    D T9001       6.550  14.252  -0.045  1.00 29.22     0.026 A 
HETATM    7  N7    D T9001       9.975  13.597   1.293  1.00 25.99    -0.224 NA
HETATM    8  C8    D T9001       9.648  13.188   2.536  1.00 24.59     0.200 A 
HETATM    9  N9    D T9001       8.397  13.099   3.039  1.00 25.70    -0.205 NA
HETATM   10  C10   D T9001       7.344  13.447   2.218  1.00 27.48     0.166 A 
ENDROOT
BRANCH  10  11
HETATM   11  N14   D T9001       6.008  13.368   2.722  1.00 23.22    -0.227 NA
BRANCH  11  12
HETATM   12  C15   D T9001       5.294  12.188   3.055  1.00 24.25     0.084 A 
HETATM   13  C16   D T9001       5.719  11.321   4.112  1.00 25.06     0.033 A 
HETATM   14  C17   D T9001       5.008  10.153   4.425  1.00 28.28     0.087 A 
HETATM   15  C18   D T9001       3.846   9.816   3.691  1.00 25.55     0.151 A 
HETATM   16 CL     D T9001       5.587   9.158   5.707  1.00 31.70    -0.080 Cl
HETATM   17  C19   D T9001       3.396  10.653   2.639  1.00 24.70     0.032 A 
HETATM   18  F21   D T9001       3.153   8.703   3.972  1.00 27.22    -0.203 F 
HETATM   19  C20   D T9001       4.119  11.838   2.323  1.00 24.32     0.021 A 
ENDBRANCH  11  12
ENDBRANCH  10  11
BRANCH   1  20
HETATM   20  N13   D T9001       5.875  15.021  -2.323  1.00 34.61    -0.210 NA
HETATM   21  C26   D T9001       5.341  14.069  -3.208  1.00 36.24     0.256 C 
HETATM   22  O27   D T9001       5.646  12.877  -3.259  1.00 39.97    -0.270 OA
BRANCH  21  23
HETATM   23  C24   D T9001       4.330  14.682  -4.164  1.00 35.38     0.092 C 
BRANCH  23  24
HETATM   24  C23   D T9001       3.103  13.778  -4.371  1.00 34.93     0.051 C 
BRANCH  24  25
HETATM   25  C25   D T9001       1.846  14.526  -3.912  1.00 37.23     0.339 C 
HETATM   26  N33   D T9001       2.009  15.036  -2.501  1.00 41.10     0.618 N 
ENDBRANCH  24  25
ENDBRANCH  23  24
ENDBRANCH  21  23
ENDBRANCH   1  20
BRANCH   2  27
HETATM   27  O11   D T9001       8.456  15.192  -3.072  1.00 31.09    -0.327 OA
HETATM   28  C12   D T9001       9.604  15.988  -3.381  1.00 29.66     0.181 C 
ENDBRANCH   2  27
TORSDOF 7
ENDMDL
MODEL 9
REMARK VINA RESULT:    -6.403      3.457      7.139
REMARK INTER + INTRA:          -9.943
REMARK INTER:                  -9.147
REMARK INTRA:                  -0.795
REMARK UNBOUND:                -0.919
REMARK  7 active torsions:
REMARK  status: ('A' for Active; 'I' for Inactive)
REMARK    1  A    between atoms: C1_1  and  N13_22 
REMARK    2  A    between atoms: C2_2  and  O11_20 
REMARK    3  A    between atoms: C10_10  and  N14_11 
REMARK    4  A    between atoms: N14_11  and  C15_12 
REMARK       I    between atoms: N13_22  and  C26_23 
REMARK    5  A    between atoms: C26_23  and  C24_24 
REMARK    6  A    between atoms: C24_24  and  C23_25 
REMARK    7  A    between atoms: C23_25  and  C25_26 
ROOT
HETATM    1  C1    D T9001      10.185   9.546   8.162  1.00 30.38     0.107 A 
HETATM    2  C2    D T9001       9.739   8.433   8.953  1.00 29.65     0.113 A 
HETATM    3  C3    D T9001       8.406   7.944   8.769  1.00 28.21     0.045 A 
HETATM    4  C4    D T9001       7.520   8.524   7.838  1.00 27.21     0.088 A 
HETATM    5  C5    D T9001       7.963   9.652   7.055  1.00 26.27     0.055 A 
HETATM    6  C6    D T9001       9.293  10.144   7.230  1.00 29.22     0.026 A 
HETATM    7  N7    D T9001       6.278   7.994   7.719  1.00 25.99    -0.224 NA
HETATM    8  C8    D T9001       5.451   8.572   6.823  1.00 24.59     0.200 A 
HETATM    9  N9    D T9001       5.745   9.633   6.041  1.00 25.70    -0.205 NA
HETATM   10  C10   D T9001       7.005  10.186   6.149  1.00 27.48     0.166 A 
ENDROOT
BRANCH  10  11
HETATM   11  N14   D T9001       7.347  11.313   5.338  1.00 23.22    -0.227 NA
BRANCH  11  12
HETATM   12  C15   D T9001       7.094  11.470   3.951  1.00 24.25     0.084 A 
HETATM   13  C16   D T9001       8.155  11.520   2.991  1.00 25.06     0.033 A 
HETATM   14  C17   D T9001       7.892  11.683   1.623  1.00 28.28     0.087 A 
HETATM   15  C18   D T9001       6.556  11.800   1.171  1.00 25.55     0.151 A 
HETATM   16 CL     D T9001       9.223  11.740   0.532  1.00 31.70    -0.080 Cl
HETATM   17  C19   D T9001       5.481  11.753   2.094  1.00 24.70     0.032 A 
HETATM   18  F21   D T9001       6.281  11.959  -0.132  1.00 27.22    -0.203 F 
HETATM   19  C20   D T9001       5.751  11.587   3.482  1.00 24.32     0.021 A 
ENDBRANCH  11  12
ENDBRANCH  10  11
BRANCH   1  20
HETATM   20  N13   D T9001      11.525   9.992   8.338  1.00 34.61    -0.210 NA
HETATM   21  C26   D T9001      12.563   9.569   7.489  1.00 36.24     0.256 C 
HETATM   22  O27   D T9001      12.447   8.803   6.531  1.00 39.97    -0.270 OA
BRANCH  21  23
HETATM   23  C24   D T9001      13.908  10.143   7.902  1.00 35.38     0.092 C 
BRANCH  23  24
HETATM   24  C23   D T9001      14.286   9.761   9.343  1.00 34.93     0.051 C 
BRANCH  24  25
HETATM   25  C25   D T9001      15.019   8.414   9.331  1.00 37.23     0.339 C 
HETATM   26  N33   D T9001      14.072   7.284   9.654  1.00 41.10     0.618 N 
ENDBRANCH  24  25
ENDBRANCH  23  24
ENDBRANCH  21  23
ENDBRANCH   1  20
BRANCH   2  27
HETATM   27  O11   D T9001      10.679   7.926   9.845  1.00 31.09    -0.327 OA
HETATM   28  C12   D T9001      10.283   7.556  11.169  1.00 29.66     0.181 C 
ENDBRANCH   2  27
TORSDOF 7
ENDMDL
