MODEL 1
REMARK VINA RESULT:    -7.135      0.000      0.000
REMARK INTER + INTRA:         -10.934
REMARK INTER:                 -10.054
REMARK INTRA:                  -0.880
REMARK UNBOUND:                -0.880
REMARK  7 active torsions:
REMARK  status: ('A' for Active; 'I' for Inactive)
REMARK    1  A    between atoms: C1_1  and  N13_22 
REMARK    2  A    between atoms: C2_2  and  O11_20 
REMARK    3  A    between atoms: C10_10  and  N14_11 
REMARK    4  A    between atoms: N14_11  and  C15_12 
REMARK       I    between atoms: N13_22  and  C26_23 
REMARK    5  A    between atoms: C26_23  and  C24_24 
REMARK    6  A    between atoms: C24_24  and  C23_25 
REMARK    7  A    between atoms: C23_25  and  C25_26 
ROOT
HETATM    1  C1    D T9001       9.820  -3.235  -0.424  1.00 30.38     0.107 A 
HETATM    2  C2    D T9001      10.198  -4.613  -0.581  1.00 29.65     0.113 A 
HETATM    3  C3    D T9001      10.006  -5.241  -1.853  1.00 28.21     0.045 A 
HETATM    4  C4    D T9001       9.453  -4.550  -2.951  1.00 27.21     0.088 A 
HETATM    5  C5    D T9001       9.060  -3.171  -2.788  1.00 26.27     0.055 A 
HETATM    6  C6    D T9001       9.252  -2.536  -1.523  1.00 29.22     0.026 A 
HETATM    7  N7    D T9001       9.314  -5.216  -4.124  1.00 25.99    -0.224 NA
HETATM    8  C8    D T9001       8.780  -4.530  -5.156  1.00 24.59     0.200 A 
HETATM    9  N9    D T9001       8.366  -3.244  -5.126  1.00 25.70    -0.205 NA
HETATM   10  C10   D T9001       8.502  -2.552  -3.940  1.00 27.48     0.166 A 
ENDROOT
BRANCH  10  11
HETATM   11  N14   D T9001       8.068  -1.190  -3.872  1.00 23.22    -0.227 NA
BRANCH  11  12
HETATM   12  C15   D T9001       8.410  -0.143  -4.766  1.00 24.25     0.084 A 
HETATM   13  C16   D T9001       7.595   0.180  -5.898  1.00 25.06     0.033 A 
HETATM   14  C17   D T9001       7.948   1.214  -6.779  1.00 28.28     0.087 A 
HETATM   15  C18   D T9001       9.130   1.959  -6.553  1.00 25.55     0.151 A 
HETATM   16 CL     D T9001       6.919   1.537  -8.121  1.00 31.70    -0.080 Cl
HETATM   17  C19   D T9001       9.961   1.666  -5.441  1.00 24.70     0.032 A 
HETATM   18  F21   D T9001       9.489   2.949  -7.385  1.00 27.22    -0.203 F 
HETATM   19  C20   D T9001       9.599   0.617  -4.550  1.00 24.32     0.021 A 
ENDBRANCH  11  12
ENDBRANCH  10  11
BRANCH   1  20
HETATM   20  N13   D T9001      10.055  -2.623   0.839  1.00 34.61    -0.210 NA
HETATM   21  C26   D T9001      11.250  -1.938   1.119  1.00 36.24     0.256 C 
HETATM   22  O27   D T9001      12.194  -1.787   0.343  1.00 39.97    -0.270 OA
BRANCH  21  23
HETATM   23  C24   D T9001      11.285  -1.409   2.542  1.00 35.38     0.092 C 
BRANCH  23  24
HETATM   24  C23   D T9001      12.687  -0.920   2.947  1.00 34.93     0.051 C 
BRANCH  24  25
HETATM   25  C25   D T9001      12.603  -0.226   4.312  1.00 37.23     0.339 C 
HETATM   26  N33   D T9001      13.330   1.096   4.290  1.00 41.10     0.618 N 
ENDBRANCH  24  25
ENDBRANCH  23  24
ENDBRANCH  21  23
ENDBRANCH   1  20
BRANCH   2  27
HETATM   27  O11   D T9001      10.733  -5.214   0.555  1.00 31.09    -0.327 OA
HETATM   28  C12   D T9001      12.006  -5.862   0.489  1.00 29.66     0.181 C 
ENDBRANCH   2  27
TORSDOF 7
ENDMDL
MODEL 2
REMARK VINA RESULT:    -6.938      2.913      6.391
REMARK INTER + INTRA:         -10.657
REMARK INTER:                  -9.639
REMARK INTRA:                  -1.018
REMARK UNBOUND:                -0.880
REMARK  7 active torsions:
REMARK  status: ('A' for Active; 'I' for Inactive)
REMARK    1  A    between atoms: C1_1  and  N13_22 
REMARK    2  A    between atoms: C2_2  and  O11_20 
REMARK    3  A    between atoms: C10_10  and  N14_11 
REMARK    4  A    between atoms: N14_11  and  C15_12 
REMARK       I    between atoms: N13_22  and  C26_23 
REMARK    5  A    between atoms: C26_23  and  C24_24 
REMARK    6  A    between atoms: C24_24  and  C23_25 
REMARK    7  A    between atoms: C23_25  and  C25_26 
ROOT
HETATM    1  C1    D T9001       9.434  -6.430  -1.554  1.00 30.38     0.107 A 
HETATM    2  C2    D T9001      10.631  -6.716  -0.814  1.00 29.65     0.113 A 
HETATM    3  C3    D T9001      11.276  -5.653  -0.105  1.00 28.21     0.045 A 
HETATM    4  C4    D T9001      10.774  -4.335  -0.117  1.00 27.21     0.088 A 
HETATM    5  C5    D T9001       9.580  -4.046  -0.874  1.00 26.27     0.055 A 
HETATM    6  C6    D T9001       8.929  -5.101  -1.581  1.00 29.22     0.026 A 
HETATM    7  N7    D T9001      11.440  -3.388   0.589  1.00 25.99    -0.224 NA
HETATM    8  C8    D T9001      10.937  -2.136   0.557  1.00 24.59     0.200 A 
HETATM    9  N9    D T9001       9.837  -1.739  -0.119  1.00 25.70    -0.205 NA
HETATM   10  C10   D T9001       9.147  -2.690  -0.842  1.00 27.48     0.166 A 
ENDROOT
BRANCH  10  11
HETATM   11  N14   D T9001       7.981  -2.302  -1.574  1.00 23.22    -0.227 NA
BRANCH  11  12
HETATM   12  C15   D T9001       7.944  -1.686  -2.851  1.00 24.25     0.084 A 
HETATM   13  C16   D T9001       7.551  -2.405  -4.025  1.00 25.06     0.033 A 
HETATM   14  C17   D T9001       7.526  -1.785  -5.284  1.00 28.28     0.087 A 
HETATM   15  C18   D T9001       7.893  -0.423  -5.407  1.00 25.55     0.151 A 
HETATM   16 CL     D T9001       7.048  -2.718  -6.650  1.00 31.70    -0.080 Cl
HETATM   17  C19   D T9001       8.286   0.319  -4.264  1.00 24.70     0.032 A 
HETATM   18  F21   D T9001       7.879   0.188  -6.601  1.00 27.22    -0.203 F 
HETATM   19  C20   D T9001       8.311  -0.313  -2.989  1.00 24.32     0.021 A 
ENDBRANCH  11  12
ENDBRANCH  10  11
BRANCH   1  20
HETATM   20  N13   D T9001       8.791  -7.511  -2.220  1.00 34.61    -0.210 NA
HETATM   21  C26   D T9001       7.778  -8.264  -1.602  1.00 36.24     0.256 C 
HETATM   22  O27   D T9001       7.340  -8.088  -0.465  1.00 39.97    -0.270 OA
BRANCH  21  23
HETATM   23  C24   D T9001       7.277  -9.387  -2.493  1.00 35.38     0.092 C 
BRANCH  23  24
HETATM   24  C23   D T9001       7.700  -9.200  -3.961  1.00 34.93     0.051 C 
BRANCH  24  25
HETATM   25  C25   D T9001       6.739  -9.980  -4.865  1.00 37.23     0.339 C 
HETATM   26  N33   D T9001       6.971  -9.640  -6.317  1.00 41.10     0.618 N 
ENDBRANCH  24  25
ENDBRANCH  23  24
ENDBRANCH  21  23
ENDBRANCH   1  20
BRANCH   2  27
HETATM   27  O11   D T9001      11.053  -8.042  -0.860  1.00 31.09    -0.327 OA
HETATM   28  C12   D T9001      12.336  -8.402  -0.339  1.00 29.66     0.181 C 
ENDBRANCH   2  27
TORSDOF 7
ENDMDL
MODEL 3
REMARK VINA RESULT:    -6.860      4.937      8.018
REMARK INTER + INTRA:         -10.547
REMARK INTER:                  -9.894
REMARK INTRA:                  -0.653
REMARK UNBOUND:                -0.880
REMARK  7 active torsions:
REMARK  status: ('A' for Active; 'I' for Inactive)
REMARK    1  A    between atoms: C1_1  and  N13_22 
REMARK    2  A    between atoms: C2_2  and  O11_20 
REMARK    3  A    between atoms: C10_10  and  N14_11 
REMARK    4  A    between atoms: N14_11  and  C15_12 
REMARK       I    between atoms: N13_22  and  C26_23 
REMARK    5  A    between atoms: C26_23  and  C24_24 
REMARK    6  A    between atoms: C24_24  and  C23_25 
REMARK    7  A    between atoms: C23_25  and  C25_26 
ROOT
HETATM    1  C1    D T9001       9.259  -3.888  -2.034  1.00 30.38     0.107 A 
HETATM    2  C2    D T9001       8.926  -3.660  -0.655  1.00 29.65     0.113 A 
HETATM    3  C3    D T9001       8.686  -4.788   0.193  1.00 28.21     0.045 A 
HETATM    4  C4    D T9001       8.763  -6.113  -0.285  1.00 27.21     0.088 A 
HETATM    5  C5    D T9001       9.083  -6.340  -1.673  1.00 26.27     0.055 A 
HETATM    6  C6    D T9001       9.327  -5.220  -2.526  1.00 29.22     0.026 A 
HETATM    7  N7    D T9001       8.531  -7.124   0.588  1.00 25.99    -0.224 NA
HETATM    8  C8    D T9001       8.610  -8.380   0.100  1.00 24.59     0.200 A 
HETATM    9  N9    D T9001       8.890  -8.721  -1.177  1.00 25.70    -0.205 NA
HETATM   10  C10   D T9001       9.129  -7.703  -2.077  1.00 27.48     0.166 A 
ENDROOT
BRANCH  10  11
HETATM   11  N14   D T9001       9.424  -8.029  -3.439  1.00 23.22    -0.227 NA
BRANCH  11  12
HETATM   12  C15   D T9001       8.562  -8.668  -4.366  1.00 24.25     0.084 A 
HETATM   13  C16   D T9001       7.365  -9.335  -3.947  1.00 25.06     0.033 A 
HETATM   14  C17   D T9001       6.522  -9.969  -4.873  1.00 28.28     0.087 A 
HETATM   15  C18   D T9001       6.852  -9.956  -6.250  1.00 25.55     0.151 A 
HETATM   16 CL     D T9001       5.105 -10.754  -4.291  1.00 31.70    -0.080 Cl
HETATM   17  C19   D T9001       8.029  -9.305  -6.699  1.00 24.70     0.032 A 
HETATM   18  F21   D T9001       6.063 -10.560  -7.151  1.00 27.22    -0.203 F 
HETATM   19  C20   D T9001       8.881  -8.662  -5.757  1.00 24.32     0.021 A 
ENDBRANCH  11  12
ENDBRANCH  10  11
BRANCH   1  20
HETATM   20  N13   D T9001       9.528  -2.752  -2.847  1.00 34.61    -0.210 NA
HETATM   21  C26   D T9001       8.544  -2.186  -3.676  1.00 36.24     0.256 C 
HETATM   22  O27   D T9001       7.384  -2.581  -3.793  1.00 39.97    -0.270 OA
BRANCH  21  23
HETATM   23  C24   D T9001       9.079  -1.012  -4.478  1.00 35.38     0.092 C 
BRANCH  23  24
HETATM   24  C23   D T9001       7.959  -0.065  -4.943  1.00 34.93     0.051 C 
BRANCH  24  25
HETATM   25  C25   D T9001       8.552   0.995  -5.878  1.00 37.23     0.339 C 
HETATM   26  N33   D T9001       7.764   1.082  -7.163  1.00 41.10     0.618 N 
ENDBRANCH  24  25
ENDBRANCH  23  24
ENDBRANCH  21  23
ENDBRANCH   1  20
BRANCH   2  27
HETATM   27  O11   D T9001       8.871  -2.323  -0.272  1.00 31.09    -0.327 OA
HETATM   28  C12   D T9001       9.960  -1.742   0.452  1.00 29.66     0.181 C 
ENDBRANCH   2  27
TORSDOF 7
ENDMDL
MODEL 4
REMARK VINA RESULT:    -6.807      1.391      1.613
REMARK INTER + INTRA:         -10.472
REMARK INTER:                  -9.396
REMARK INTRA:                  -1.076
REMARK UNBOUND:                -0.880
REMARK  7 active torsions:
REMARK  status: ('A' for Active; 'I' for Inactive)
REMARK    1  A    between atoms: C1_1  and  N13_22 
REMARK    2  A    between atoms: C2_2  and  O11_20 
REMARK    3  A    between atoms: C10_10  and  N14_11 
REMARK    4  A    between atoms: N14_11  and  C15_12 
REMARK       I    between atoms: N13_22  and  C26_23 
REMARK    5  A    between atoms: C26_23  and  C24_24 
REMARK    6  A    between atoms: C24_24  and  C23_25 
REMARK    7  A    between atoms: C23_25  and  C25_26 
ROOT
HETATM    1  C1    D T9001      10.504  -2.873   0.912  1.00 30.38     0.107 A 
HETATM    2  C2    D T9001      10.839  -4.271   0.902  1.00 29.65     0.113 A 
HETATM    3  C3    D T9001      10.631  -5.023  -0.297  1.00 28.21     0.045 A 
HETATM    4  C4    D T9001      10.104  -4.435  -1.466  1.00 27.21     0.088 A 
HETATM    5  C5    D T9001       9.754  -3.035  -1.451  1.00 26.27     0.055 A 
HETATM    6  C6    D T9001       9.962  -2.277  -0.259  1.00 29.22     0.026 A 
HETATM    7  N7    D T9001       9.947  -5.216  -2.564  1.00 25.99    -0.224 NA
HETATM    8  C8    D T9001       9.439  -4.625  -3.665  1.00 24.59     0.200 A 
HETATM    9  N9    D T9001       9.066  -3.331  -3.773  1.00 25.70    -0.205 NA
HETATM   10  C10   D T9001       9.219  -2.522  -2.666  1.00 27.48     0.166 A 
ENDROOT
BRANCH  10  11
HETATM   11  N14   D T9001       8.829  -1.148  -2.744  1.00 23.22    -0.227 NA
BRANCH  11  12
HETATM   12  C15   D T9001       9.135  -0.236  -3.786  1.00 24.25     0.084 A 
HETATM   13  C16   D T9001       8.218   0.023  -4.856  1.00 25.06     0.033 A 
HETATM   14  C17   D T9001       8.535   0.923  -5.884  1.00 28.28     0.087 A 
HETATM   15  C18   D T9001       9.781   1.595  -5.874  1.00 25.55     0.151 A 
HETATM   16 CL     D T9001       7.383   1.175  -7.140  1.00 31.70    -0.080 Cl
HETATM   17  C19   D T9001      10.711   1.363  -4.829  1.00 24.70     0.032 A 
HETATM   18  F21   D T9001      10.106   2.457  -6.850  1.00 27.22    -0.203 F 
HETATM   19  C20   D T9001      10.387   0.450  -3.787  1.00 24.32     0.021 A 
ENDBRANCH  11  12
ENDBRANCH  10  11
BRANCH   1  20
HETATM   20  N13   D T9001      10.754  -2.140   2.105  1.00 34.61    -0.210 NA
HETATM   21  C26   D T9001      11.933  -1.396   2.283  1.00 36.24     0.256 C 
HETATM   22  O27   D T9001      12.850  -1.289   1.467  1.00 39.97    -0.270 OA
BRANCH  21  23
HETATM   23  C24   D T9001      11.992  -0.736   3.650  1.00 35.38     0.092 C 
BRANCH  23  24
HETATM   24  C23   D T9001      11.797  -1.746   4.794  1.00 34.93     0.051 C 
BRANCH  24  25
HETATM   25  C25   D T9001      13.041  -2.636   4.897  1.00 37.23     0.339 C 
HETATM   26  N33   D T9001      14.264  -1.814   5.224  1.00 41.10     0.618 N 
ENDBRANCH  24  25
ENDBRANCH  23  24
ENDBRANCH  21  23
ENDBRANCH   1  20
BRANCH   2  27
HETATM   27  O11   D T9001      11.350  -4.766   2.098  1.00 31.09    -0.327 OA
HETATM   28  C12   D T9001      12.633  -5.398   2.121  1.00 29.66     0.181 C 
ENDBRANCH   2  27
TORSDOF 7
ENDMDL
MODEL 5
REMARK VINA RESULT:    -6.750      4.747      7.898
REMARK INTER + INTRA:         -10.392
REMARK INTER:                  -9.420
REMARK INTRA:                  -0.971
REMARK UNBOUND:                -0.880
REMARK  7 active torsions:
REMARK  status: ('A' for Active; 'I' for Inactive)
REMARK    1  A    between atoms: C1_1  and  N13_22 
REMARK    2  A    between atoms: C2_2  and  O11_20 
REMARK    3  A    between atoms: C10_10  and  N14_11 
REMARK    4  A    between atoms: N14_11  and  C15_12 
REMARK       I    between atoms: N13_22  and  C26_23 
REMARK    5  A    between atoms: C26_23  and  C24_24 
REMARK    6  A    between atoms: C24_24  and  C23_25 
REMARK    7  A    between atoms: C23_25  and  C25_26 
ROOT
HETATM    1  C1    D T9001       9.206  -4.777  -1.378  1.00 30.38     0.107 A 
HETATM    2  C2    D T9001      10.472  -4.579  -0.728  1.00 29.65     0.113 A 
HETATM    3  C3    D T9001      11.226  -5.725  -0.320  1.00 28.21     0.045 A 
HETATM    4  C4    D T9001      10.761  -7.039  -0.532  1.00 27.21     0.088 A 
HETATM    5  C5    D T9001       9.482  -7.237  -1.171  1.00 26.27     0.055 A 
HETATM    6  C6    D T9001       8.726  -6.099  -1.584  1.00 29.22     0.026 A 
HETATM    7  N7    D T9001      11.542  -8.070  -0.124  1.00 25.99    -0.224 NA
HETATM    8  C8    D T9001      11.069  -9.316  -0.338  1.00 24.59     0.200 A 
HETATM    9  N9    D T9001       9.889  -9.629  -0.916  1.00 25.70    -0.205 NA
HETATM   10  C10   D T9001       9.082  -8.592  -1.338  1.00 27.48     0.166 A 
ENDROOT
BRANCH  10  11
HETATM   11  N14   D T9001       7.823  -8.889  -1.948  1.00 23.22    -0.227 NA
BRANCH  11  12
HETATM   12  C15   D T9001       7.586  -9.164  -3.319  1.00 24.25     0.084 A 
HETATM   13  C16   D T9001       8.574  -8.902  -4.322  1.00 25.06     0.033 A 
HETATM   14  C17   D T9001       8.326  -9.173  -5.677  1.00 28.28     0.087 A 
HETATM   15  C18   D T9001       7.079  -9.716  -6.070  1.00 25.55     0.151 A 
HETATM   16 CL     D T9001       9.561  -8.823  -6.824  1.00 31.70    -0.080 Cl
HETATM   17  C19   D T9001       6.079  -9.988  -5.102  1.00 24.70     0.032 A 
HETATM   18  F21   D T9001       6.819  -9.978  -7.360  1.00 27.22    -0.203 F 
HETATM   19  C20   D T9001       6.334  -9.713  -3.729  1.00 24.32     0.021 A 
ENDBRANCH  11  12
ENDBRANCH  10  11
BRANCH   1  20
HETATM   20  N13   D T9001       8.492  -3.623  -1.806  1.00 34.61    -0.210 NA
HETATM   21  C26   D T9001       8.457  -3.233  -3.156  1.00 36.24     0.256 C 
HETATM   22  O27   D T9001       9.010  -3.815  -4.090  1.00 39.97    -0.270 OA
BRANCH  21  23
HETATM   23  C24   D T9001       7.671  -1.950  -3.360  1.00 35.38     0.092 C 
BRANCH  23  24
HETATM   24  C23   D T9001       7.676  -1.491  -4.829  1.00 34.93     0.051 C 
BRANCH  24  25
HETATM   25  C25   D T9001       8.391  -0.138  -4.931  1.00 37.23     0.339 C 
HETATM   26  N33   D T9001       7.958   0.608  -6.169  1.00 41.10     0.618 N 
ENDBRANCH  24  25
ENDBRANCH  23  24
ENDBRANCH  21  23
ENDBRANCH   1  20
BRANCH   2  27
HETATM   27  O11   D T9001      10.849  -3.250  -0.559  1.00 31.09    -0.327 OA
HETATM   28  C12   D T9001      10.638  -2.600   0.698  1.00 29.66     0.181 C 
ENDBRANCH   2  27
TORSDOF 7
ENDMDL
MODEL 6
REMARK VINA RESULT:    -6.684      2.025      2.400
REMARK INTER + INTRA:         -10.299
REMARK INTER:                 -10.029
REMARK INTRA:                  -0.270
REMARK UNBOUND:                -0.880
REMARK  7 active torsions:
REMARK  status: ('A' for Active; 'I' for Inactive)
REMARK    1  A    between atoms: C1_1  and  N13_22 
REMARK    2  A    between atoms: C2_2  and  O11_20 
REMARK    3  A    between atoms: C10_10  and  N14_11 
REMARK    4  A    between atoms: N14_11  and  C15_12 
REMARK       I    between atoms: N13_22  and  C26_23 
REMARK    5  A    between atoms: C26_23  and  C24_24 
REMARK    6  A    between atoms: C24_24  and  C23_25 
REMARK    7  A    between atoms: C23_25  and  C25_26 
ROOT
HETATM    1  C1    D T9001      10.273  -2.918  -2.203  1.00 30.38     0.107 A 
HETATM    2  C2    D T9001       9.845  -4.281  -2.365  1.00 29.65     0.113 A 
HETATM    3  C3    D T9001       8.994  -4.611  -3.467  1.00 28.21     0.045 A 
HETATM    4  C4    D T9001       8.561  -3.640  -4.394  1.00 27.21     0.088 A 
HETATM    5  C5    D T9001       8.979  -2.270  -4.221  1.00 26.27     0.055 A 
HETATM    6  C6    D T9001       9.831  -1.932  -3.126  1.00 29.22     0.026 A 
HETATM    7  N7    D T9001       7.763  -4.038  -5.416  1.00 25.99    -0.224 NA
HETATM    8  C8    D T9001       7.363  -3.086  -6.284  1.00 24.59     0.200 A 
HETATM    9  N9    D T9001       7.678  -1.774  -6.226  1.00 25.70    -0.205 NA
HETATM   10  C10   D T9001       8.489  -1.352  -5.192  1.00 27.48     0.166 A 
ENDROOT
BRANCH  10  11
HETATM   11  N14   D T9001       8.838   0.033  -5.097  1.00 23.22    -0.227 NA
BRANCH  11  12
HETATM   12  C15   D T9001       8.502   1.058  -6.018  1.00 24.25     0.084 A 
HETATM   13  C16   D T9001       7.309   1.003  -6.807  1.00 25.06     0.033 A 
HETATM   14  C17   D T9001       6.991   2.022  -7.719  1.00 28.28     0.087 A 
HETATM   15  C18   D T9001       7.859   3.130  -7.869  1.00 25.55     0.151 A 
HETATM   16 CL     D T9001       5.541   1.879  -8.637  1.00 31.70    -0.080 Cl
HETATM   17  C19   D T9001       9.049   3.216  -7.103  1.00 24.70     0.032 A 
HETATM   18  F21   D T9001       7.577   4.112  -8.738  1.00 27.22    -0.203 F 
HETATM   19  C20   D T9001       9.368   2.182  -6.178  1.00 24.32     0.021 A 
ENDBRANCH  11  12
ENDBRANCH  10  11
BRANCH   1  20
HETATM   20  N13   D T9001      11.148  -2.623  -1.121  1.00 34.61    -0.210 NA
HETATM   21  C26   D T9001      10.682  -2.032   0.067  1.00 36.24     0.256 C 
HETATM   22  O27   D T9001       9.517  -1.715   0.307  1.00 39.97    -0.270 OA
BRANCH  21  23
HETATM   23  C24   D T9001      11.806  -1.775   1.056  1.00 35.38     0.092 C 
BRANCH  23  24
HETATM   24  C23   D T9001      11.480  -2.311   2.461  1.00 34.93     0.051 C 
BRANCH  24  25
HETATM   25  C25   D T9001      11.270  -3.828   2.384  1.00 37.23     0.339 C 
HETATM   26  N33   D T9001      10.789  -4.373   3.707  1.00 41.10     0.618 N 
ENDBRANCH  24  25
ENDBRANCH  23  24
ENDBRANCH  21  23
ENDBRANCH   1  20
BRANCH   2  27
HETATM   27  O11   D T9001      10.319  -5.169  -1.404  1.00 31.09    -0.327 OA
HETATM   28  C12   D T9001       9.404  -5.997  -0.682  1.00 29.66     0.181 C 
ENDBRANCH   2  27
TORSDOF 7
ENDMDL
MODEL 7
REMARK VINA RESULT:    -6.552      3.900      7.574
REMARK INTER + INTRA:         -10.112
REMARK INTER:                  -9.057
REMARK INTRA:                  -1.055
REMARK UNBOUND:                -0.880
REMARK  7 active torsions:
REMARK  status: ('A' for Active; 'I' for Inactive)
REMARK    1  A    between atoms: C1_1  and  N13_22 
REMARK    2  A    between atoms: C2_2  and  O11_20 
REMARK    3  A    between atoms: C10_10  and  N14_11 
REMARK    4  A    between atoms: N14_11  and  C15_12 
REMARK       I    between atoms: N13_22  and  C26_23 
REMARK    5  A    between atoms: C26_23  and  C24_24 
REMARK    6  A    between atoms: C24_24  and  C23_25 
REMARK    7  A    between atoms: C23_25  and  C25_26 
ROOT
HETATM    1  C1    D T9001       8.834  -1.513  -2.123  1.00 30.38     0.107 A 
HETATM    2  C2    D T9001       8.265  -2.726  -2.644  1.00 29.65     0.113 A 
HETATM    3  C3    D T9001       8.388  -3.930  -1.880  1.00 28.21     0.045 A 
HETATM    4  C4    D T9001       9.053  -3.962  -0.637  1.00 27.21     0.088 A 
HETATM    5  C5    D T9001       9.637  -2.747  -0.122  1.00 26.27     0.055 A 
HETATM    6  C6    D T9001       9.516  -1.540  -0.876  1.00 29.22     0.026 A 
HETATM    7  N7    D T9001       9.116  -5.142   0.027  1.00 25.99    -0.224 NA
HETATM    8  C8    D T9001       9.761  -5.142   1.212  1.00 24.59     0.200 A 
HETATM    9  N9    D T9001      10.354  -4.076   1.794  1.00 25.70    -0.205 NA
HETATM   10  C10   D T9001      10.299  -2.867   1.132  1.00 27.48     0.166 A 
ENDROOT
BRANCH  10  11
HETATM   11  N14   D T9001      10.922  -1.720   1.717  1.00 23.22    -0.227 NA
BRANCH  11  12
HETATM   12  C15   D T9001      12.294  -1.370   1.648  1.00 24.25     0.084 A 
HETATM   13  C16   D T9001      13.099  -1.696   0.508  1.00 25.06     0.033 A 
HETATM   14  C17   D T9001      14.458  -1.350   0.455  1.00 28.28     0.087 A 
HETATM   15  C18   D T9001      15.055  -0.665   1.540  1.00 25.55     0.151 A 
HETATM   16 CL     D T9001      15.361  -1.783  -0.947  1.00 31.70    -0.080 Cl
HETATM   17  C19   D T9001      14.287  -0.327   2.683  1.00 24.70     0.032 A 
HETATM   18  F21   D T9001      16.354  -0.329   1.511  1.00 27.22    -0.203 F 
HETATM   19  C20   D T9001      12.909  -0.679   2.734  1.00 24.32     0.021 A 
ENDBRANCH  11  12
ENDBRANCH  10  11
BRANCH   1  20
HETATM   20  N13   D T9001       8.667  -0.322  -2.884  1.00 34.61    -0.210 NA
HETATM   21  C26   D T9001       9.651   0.127  -3.780  1.00 36.24     0.256 C 
HETATM   22  O27   D T9001      10.727  -0.428  -4.010  1.00 39.97    -0.270 OA
BRANCH  21  23
HETATM   23  C24   D T9001       9.266   1.439  -4.442  1.00 35.38     0.092 C 
BRANCH  23  24
HETATM   24  C23   D T9001       9.910   1.603  -5.830  1.00 34.93     0.051 C 
BRANCH  24  25
HETATM   25  C25   D T9001       8.987   2.448  -6.716  1.00 37.23     0.339 C 
HETATM   26  N33   D T9001       7.911   1.594  -7.341  1.00 41.10     0.618 N 
ENDBRANCH  24  25
ENDBRANCH  23  24
ENDBRANCH  21  23
ENDBRANCH   1  20
BRANCH   2  27
HETATM   27  O11   D T9001       7.630  -2.600  -3.876  1.00 31.09    -0.327 OA
HETATM   28  C12   D T9001       8.135  -3.303  -5.015  1.00 29.66     0.181 C 
ENDBRANCH   2  27
TORSDOF 7
ENDMDL
MODEL 8
REMARK VINA RESULT:    -6.399      2.976      3.980
REMARK INTER + INTRA:          -9.898
REMARK INTER:                  -8.866
REMARK INTRA:                  -1.032
REMARK UNBOUND:                -0.880
REMARK  7 active torsions:
REMARK  status: ('A' for Active; 'I' for Inactive)
REMARK    1  A    between atoms: C1_1  and  N13_22 
REMARK    2  A    between atoms: C2_2  and  O11_20 
REMARK    3  A    between atoms: C10_10  and  N14_11 
REMARK    4  A    between atoms: N14_11  and  C15_12 
REMARK       I    between atoms: N13_22  and  C26_23 
REMARK    5  A    between atoms: C26_23  and  C24_24 
REMARK    6  A    between atoms: C24_24  and  C23_25 
REMARK    7  A    between atoms: C23_25  and  C25_26 
ROOT
HETATM    1  C1    D T9001      13.280  -1.676  -0.203  1.00 30.38     0.107 A 
HETATM    2  C2    D T9001      12.754  -1.967   1.102  1.00 29.65     0.113 A 
HETATM    3  C3    D T9001      11.378  -2.341   1.224  1.00 28.21     0.045 A 
HETATM    4  C4    D T9001      10.525  -2.428   0.104  1.00 27.21     0.088 A 
HETATM    5  C5    D T9001      11.051  -2.120  -1.204  1.00 26.27     0.055 A 
HETATM    6  C6    D T9001      12.424  -1.750  -1.334  1.00 29.22     0.026 A 
HETATM    7  N7    D T9001       9.236  -2.799   0.306  1.00 25.99    -0.224 NA
HETATM    8  C8    D T9001       8.444  -2.870  -0.784  1.00 24.59     0.200 A 
HETATM    9  N9    D T9001       8.815  -2.600  -2.055  1.00 25.70    -0.205 NA
HETATM   10  C10   D T9001      10.123  -2.221  -2.277  1.00 27.48     0.166 A 
ENDROOT
BRANCH  10  11
HETATM   11  N14   D T9001      10.547  -1.921  -3.611  1.00 23.22    -0.227 NA
BRANCH  11  12
HETATM   12  C15   D T9001      10.239  -0.757  -4.359  1.00 24.25     0.084 A 
HETATM   13  C16   D T9001       9.058  -0.667  -5.165  1.00 25.06     0.033 A 
HETATM   14  C17   D T9001       8.768   0.489  -5.906  1.00 28.28     0.087 A 
HETATM   15  C18   D T9001       9.652   1.594  -5.862  1.00 25.55     0.151 A 
HETATM   16 CL     D T9001       7.332   0.517  -6.856  1.00 31.70    -0.080 Cl
HETATM   17  C19   D T9001      10.830   1.539  -5.075  1.00 24.70     0.032 A 
HETATM   18  F21   D T9001       9.396   2.707  -6.566  1.00 27.22    -0.203 F 
HETATM   19  C20   D T9001      11.121   0.366  -4.324  1.00 24.32     0.021 A 
ENDBRANCH  11  12
ENDBRANCH  10  11
BRANCH   1  20
HETATM   20  N13   D T9001      14.660  -1.342  -0.302  1.00 34.61    -0.210 NA
HETATM   21  C26   D T9001      15.115  -0.021  -0.142  1.00 36.24     0.256 C 
HETATM   22  O27   D T9001      14.411   0.961   0.094  1.00 39.97    -0.270 OA
BRANCH  21  23
HETATM   23  C24   D T9001      16.617   0.092  -0.334  1.00 35.38     0.092 C 
BRANCH  23  24
HETATM   24  C23   D T9001      17.351  -1.210   0.031  1.00 34.93     0.051 C 
BRANCH  24  25
HETATM   25  C25   D T9001      17.993  -1.055   1.415  1.00 37.23     0.339 C 
HETATM   26  N33   D T9001      19.484  -1.276   1.345  1.00 41.10     0.618 N 
ENDBRANCH  24  25
ENDBRANCH  23  24
ENDBRANCH  21  23
ENDBRANCH   1  20
BRANCH   2  27
HETATM   27  O11   D T9001      13.666  -1.855   2.148  1.00 31.09    -0.327 OA
HETATM   28  C12   D T9001      13.452  -0.891   3.183  1.00 29.66     0.181 C 
ENDBRANCH   2  27
TORSDOF 7
ENDMDL
MODEL 9
REMARK VINA RESULT:    -6.162      2.763      3.515
REMARK INTER + INTRA:          -9.563
REMARK INTER:                  -8.602
REMARK INTRA:                  -0.961
REMARK UNBOUND:                -0.880
REMARK  7 active torsions:
REMARK  status: ('A' for Active; 'I' for Inactive)
REMARK    1  A    between atoms: C1_1  and  N13_22 
REMARK    2  A    between atoms: C2_2  and  O11_20 
REMARK    3  A    between atoms: C10_10  and  N14_11 
REMARK    4  A    between atoms: N14_11  and  C15_12 
REMARK       I    between atoms: N13_22  and  C26_23 
REMARK    5  A    between atoms: C26_23  and  C24_24 
REMARK    6  A    between atoms: C24_24  and  C23_25 
REMARK    7  A    between atoms: C23_25  and  C25_26 
ROOT
HETATM    1  C1    D T9001      12.546  -2.405   0.074  1.00 30.38     0.107 A 
HETATM    2  C2    D T9001      12.969  -3.720   0.470  1.00 29.65     0.113 A 
HETATM    3  C3    D T9001      12.060  -4.814   0.315  1.00 28.21     0.045 A 
HETATM    4  C4    D T9001      10.762  -4.639  -0.210  1.00 27.21     0.088 A 
HETATM    5  C5    D T9001      10.333  -3.315  -0.594  1.00 26.27     0.055 A 
HETATM    6  C6    D T9001      11.236  -2.219  -0.445  1.00 29.22     0.026 A 
HETATM    7  N7    D T9001       9.967  -5.730  -0.334  1.00 25.99    -0.224 NA
HETATM    8  C8    D T9001       8.731  -5.530  -0.837  1.00 24.59     0.200 A 
HETATM    9  N9    D T9001       8.212  -4.344  -1.222  1.00 25.70    -0.205 NA
HETATM   10  C10   D T9001       9.008  -3.223  -1.104  1.00 27.48     0.166 A 
ENDROOT
BRANCH  10  11
HETATM   11  N14   D T9001       8.487  -1.950  -1.497  1.00 23.22    -0.227 NA
BRANCH  11  12
HETATM   12  C15   D T9001       8.305  -1.479  -2.822  1.00 24.25     0.084 A 
HETATM   13  C16   D T9001       7.746  -2.308  -3.848  1.00 25.06     0.033 A 
HETATM   14  C17   D T9001       7.577  -1.832  -5.157  1.00 28.28     0.087 A 
HETATM   15  C18   D T9001       7.962  -0.509  -5.481  1.00 25.55     0.151 A 
HETATM   16 CL     D T9001       6.905  -2.892  -6.336  1.00 31.70    -0.080 Cl
HETATM   17  C19   D T9001       8.518   0.339  -4.490  1.00 24.70     0.032 A 
HETATM   18  F21   D T9001       7.813  -0.035  -6.728  1.00 27.22    -0.203 F 
HETATM   19  C20   D T9001       8.688  -0.147  -3.163  1.00 24.32     0.021 A 
ENDBRANCH  11  12
ENDBRANCH  10  11
BRANCH   1  20
HETATM   20  N13   D T9001      13.481  -1.340   0.205  1.00 34.61    -0.210 NA
HETATM   21  C26   D T9001      13.547  -0.552   1.367  1.00 36.24     0.256 C 
HETATM   22  O27   D T9001      12.842  -0.681   2.368  1.00 39.97    -0.270 OA
BRANCH  21  23
HETATM   23  C24   D T9001      14.591   0.545   1.254  1.00 35.38     0.092 C 
BRANCH  23  24
HETATM   24  C23   D T9001      15.262   0.571  -0.131  1.00 34.93     0.051 C 
BRANCH  24  25
HETATM   25  C25   D T9001      16.741   0.195   0.019  1.00 37.23     0.339 C 
HETATM   26  N33   D T9001      16.917  -0.898   1.045  1.00 41.10     0.618 N 
ENDBRANCH  24  25
ENDBRANCH  23  24
ENDBRANCH  21  23
ENDBRANCH   1  20
BRANCH   2  27
HETATM   27  O11   D T9001      14.262  -3.797   0.978  1.00 31.09    -0.327 OA
HETATM   28  C12   D T9001      14.471  -4.112   2.358  1.00 29.66     0.181 C 
ENDBRANCH   2  27
TORSDOF 7
ENDMDL
