MODEL 1
REMARK VINA RESULT:    -7.425      0.000      0.000
REMARK INTER + INTRA:         -11.497
REMARK INTER:                 -10.463
REMARK INTRA:                  -1.034
REMARK UNBOUND:                -1.034
REMARK  7 active torsions:
REMARK  status: ('A' for Active; 'I' for Inactive)
REMARK    1  A    between atoms: C1_1  and  N13_22 
REMARK    2  A    between atoms: C2_2  and  O11_20 
REMARK    3  A    between atoms: C10_10  and  N14_11 
REMARK    4  A    between atoms: N14_11  and  C15_12 
REMARK       I    between atoms: N13_22  and  C26_23 
REMARK    5  A    between atoms: C26_23  and  C24_24 
REMARK    6  A    between atoms: C24_24  and  C23_25 
REMARK    7  A    between atoms: C23_25  and  C25_26 
ROOT
HETATM    1  C1    D T9001      -1.245  -2.232   9.885  1.00 30.38     0.107 A 
HETATM    2  C2    D T9001      -2.286  -3.114   9.435  1.00 29.65     0.113 A 
HETATM    3  C3    D T9001      -3.321  -2.588   8.598  1.00 28.21     0.045 A 
HETATM    4  C4    D T9001      -3.351  -1.234   8.206  1.00 27.21     0.088 A 
HETATM    5  C5    D T9001      -2.313  -0.346   8.671  1.00 26.27     0.055 A 
HETATM    6  C6    D T9001      -1.274  -0.862   9.504  1.00 29.22     0.026 A 
HETATM    7  N7    D T9001      -4.362  -0.820   7.403  1.00 25.99    -0.224 NA
HETATM    8  C8    D T9001      -4.364   0.482   7.048  1.00 24.59     0.200 A 
HETATM    9  N9    D T9001      -3.457   1.410   7.423  1.00 25.70    -0.205 NA
HETATM   10  C10   D T9001      -2.422   1.006   8.240  1.00 27.48     0.166 A 
ENDROOT
BRANCH  10  11
HETATM   11  N14   D T9001      -1.447   1.965   8.661  1.00 23.22    -0.227 NA
BRANCH  11  12
HETATM   12  C15   D T9001      -0.439   2.557   7.858  1.00 24.25     0.084 A 
HETATM   13  C16   D T9001       0.735   1.836   7.465  1.00 25.06     0.033 A 
HETATM   14  C17   D T9001       1.728   2.437   6.675  1.00 28.28     0.087 A 
HETATM   15  C18   D T9001       1.577   3.781   6.255  1.00 25.55     0.151 A 
HETATM   16 CL     D T9001       3.112   1.507   6.249  1.00 31.70    -0.080 Cl
HETATM   17  C19   D T9001       0.427   4.523   6.626  1.00 24.70     0.032 A 
HETATM   18  F21   D T9001       2.516   4.375   5.504  1.00 27.22    -0.203 F 
HETATM   19  C20   D T9001      -0.578   3.911   7.425  1.00 24.32     0.021 A 
ENDBRANCH  11  12
ENDBRANCH  10  11
BRANCH   1  20
HETATM   20  N13   D T9001      -0.208  -2.785  10.687  1.00 34.61    -0.210 NA
HETATM   21  C26   D T9001       1.083  -3.006  10.177  1.00 36.24     0.256 C 
HETATM   22  O27   D T9001       1.460  -2.759   9.031  1.00 39.97    -0.270 OA
BRANCH  21  23
HETATM   23  C24   D T9001       2.002  -3.644  11.207  1.00 35.38     0.092 C 
BRANCH  23  24
HETATM   24  C23   D T9001       1.250  -4.608  12.140  1.00 34.93     0.051 C 
BRANCH  24  25
HETATM   25  C25   D T9001       1.718  -6.042  11.863  1.00 37.23     0.339 C 
HETATM   26  N33   D T9001       3.218  -6.097  11.708  1.00 41.10     0.618 N 
ENDBRANCH  24  25
ENDBRANCH  23  24
ENDBRANCH  21  23
ENDBRANCH   1  20
BRANCH   2  27
HETATM   27  O11   D T9001      -2.178  -4.431   9.872  1.00 31.09    -0.327 OA
HETATM   28  C12   D T9001      -3.036  -5.437   9.329  1.00 29.66     0.181 C 
ENDBRANCH   2  27
TORSDOF 7
ENDMDL
MODEL 2
REMARK VINA RESULT:    -7.413      2.473      4.207
REMARK INTER + INTRA:         -11.480
REMARK INTER:                 -10.354
REMARK INTRA:                  -1.127
REMARK UNBOUND:                -1.034
REMARK  7 active torsions:
REMARK  status: ('A' for Active; 'I' for Inactive)
REMARK    1  A    between atoms: C1_1  and  N13_22 
REMARK    2  A    between atoms: C2_2  and  O11_20 
REMARK    3  A    between atoms: C10_10  and  N14_11 
REMARK    4  A    between atoms: N14_11  and  C15_12 
REMARK       I    between atoms: N13_22  and  C26_23 
REMARK    5  A    between atoms: C26_23  and  C24_24 
REMARK    6  A    between atoms: C24_24  and  C23_25 
REMARK    7  A    between atoms: C23_25  and  C25_26 
ROOT
HETATM    1  C1    D T9001      -0.590  -2.722   9.875  1.00 30.38     0.107 A 
HETATM    2  C2    D T9001      -0.633  -4.146  10.063  1.00 29.65     0.113 A 
HETATM    3  C3    D T9001      -1.801  -4.861   9.647  1.00 28.21     0.045 A 
HETATM    4  C4    D T9001      -2.908  -4.211   9.063  1.00 27.21     0.088 A 
HETATM    5  C5    D T9001      -2.869  -2.779   8.889  1.00 26.27     0.055 A 
HETATM    6  C6    D T9001      -1.707  -2.057   9.298  1.00 29.22     0.026 A 
HETATM    7  N7    D T9001      -3.971  -4.965   8.688  1.00 25.99    -0.224 NA
HETATM    8  C8    D T9001      -5.015  -4.314   8.135  1.00 24.59     0.200 A 
HETATM    9  N9    D T9001      -5.102  -2.981   7.928  1.00 25.70    -0.205 NA
HETATM   10  C10   D T9001      -4.030  -2.200   8.304  1.00 27.48     0.166 A 
ENDROOT
BRANCH  10  11
HETATM   11  N14   D T9001      -4.091  -0.784   8.103  1.00 23.22    -0.227 NA
BRANCH  11  12
HETATM   12  C15   D T9001      -3.252  -0.010   7.261  1.00 24.25     0.084 A 
HETATM   13  C16   D T9001      -2.765   1.277   7.657  1.00 25.06     0.033 A 
HETATM   14  C17   D T9001      -1.941   2.035   6.810  1.00 28.28     0.087 A 
HETATM   15  C18   D T9001      -1.579   1.529   5.539  1.00 25.55     0.151 A 
HETATM   16 CL     D T9001      -1.401   3.576   7.356  1.00 31.70    -0.080 Cl
HETATM   17  C19   D T9001      -2.044   0.257   5.116  1.00 24.70     0.032 A 
HETATM   18  F21   D T9001      -0.796   2.240   4.713  1.00 27.22    -0.203 F 
HETATM   19  C20   D T9001      -2.878  -0.509   5.976  1.00 24.32     0.021 A 
ENDBRANCH  11  12
ENDBRANCH  10  11
BRANCH   1  20
HETATM   20  N13   D T9001       0.596  -2.037  10.264  1.00 34.61    -0.210 NA
HETATM   21  C26   D T9001       1.521  -1.563   9.317  1.00 36.24     0.256 C 
HETATM   22  O27   D T9001       1.424  -1.674   8.095  1.00 39.97    -0.270 OA
BRANCH  21  23
HETATM   23  C24   D T9001       2.724  -0.907   9.974  1.00 35.38     0.092 C 
BRANCH  23  24
HETATM   24  C23   D T9001       3.050   0.462   9.353  1.00 34.93     0.051 C 
BRANCH  24  25
HETATM   25  C25   D T9001       2.220   1.544  10.055  1.00 37.23     0.339 C 
HETATM   26  N33   D T9001       1.112   2.039   9.157  1.00 41.10     0.618 N 
ENDBRANCH  24  25
ENDBRANCH  23  24
ENDBRANCH  21  23
ENDBRANCH   1  20
BRANCH   2  27
HETATM   27  O11   D T9001       0.501  -4.701  10.647  1.00 31.09    -0.327 OA
HETATM   28  C12   D T9001       0.488  -5.064  12.030  1.00 29.66     0.181 C 
ENDBRANCH   2  27
TORSDOF 7
ENDMDL
MODEL 3
REMARK VINA RESULT:    -7.236      3.622      6.926
REMARK INTER + INTRA:         -11.230
REMARK INTER:                 -10.103
REMARK INTRA:                  -1.127
REMARK UNBOUND:                -1.034
REMARK  7 active torsions:
REMARK  status: ('A' for Active; 'I' for Inactive)
REMARK    1  A    between atoms: C1_1  and  N13_22 
REMARK    2  A    between atoms: C2_2  and  O11_20 
REMARK    3  A    between atoms: C10_10  and  N14_11 
REMARK    4  A    between atoms: N14_11  and  C15_12 
REMARK       I    between atoms: N13_22  and  C26_23 
REMARK    5  A    between atoms: C26_23  and  C24_24 
REMARK    6  A    between atoms: C24_24  and  C23_25 
REMARK    7  A    between atoms: C23_25  and  C25_26 
ROOT
HETATM    1  C1    D T9001      -0.712   0.104   7.469  1.00 30.38     0.107 A 
HETATM    2  C2    D T9001      -2.052   0.594   7.299  1.00 29.65     0.113 A 
HETATM    3  C3    D T9001      -3.147  -0.245   7.683  1.00 28.21     0.045 A 
HETATM    4  C4    D T9001      -2.949  -1.534   8.218  1.00 27.21     0.088 A 
HETATM    5  C5    D T9001      -1.603  -2.030   8.374  1.00 26.27     0.055 A 
HETATM    6  C6    D T9001      -0.504  -1.200   7.996  1.00 29.22     0.026 A 
HETATM    7  N7    D T9001      -4.041  -2.260   8.566  1.00 25.99    -0.224 NA
HETATM    8  C8    D T9001      -3.819  -3.490   9.072  1.00 24.59     0.200 A 
HETATM    9  N9    D T9001      -2.612  -4.068   9.258  1.00 25.70    -0.205 NA
HETATM   10  C10   D T9001      -1.491  -3.344   8.909  1.00 27.48     0.166 A 
ENDROOT
BRANCH  10  11
HETATM   11  N14   D T9001      -0.197  -3.928   9.089  1.00 23.22    -0.227 NA
BRANCH  11  12
HETATM   12  C15   D T9001       0.542  -3.997  10.297  1.00 24.25     0.084 A 
HETATM   13  C16   D T9001       1.688  -3.169  10.531  1.00 25.06     0.033 A 
HETATM   14  C17   D T9001       2.414  -3.253  11.728  1.00 28.28     0.087 A 
HETATM   15  C18   D T9001       2.017  -4.169  12.732  1.00 25.55     0.151 A 
HETATM   16 CL     D T9001       3.783  -2.228  11.931  1.00 31.70    -0.080 Cl
HETATM   17  C19   D T9001       0.887  -5.003  12.533  1.00 24.70     0.032 A 
HETATM   18  F21   D T9001       2.700  -4.268  13.882  1.00 27.22    -0.203 F 
HETATM   19  C20   D T9001       0.152  -4.915  11.319  1.00 24.32     0.021 A 
ENDBRANCH  11  12
ENDBRANCH  10  11
BRANCH   1  20
HETATM   20  N13   D T9001       0.360   0.970   7.113  1.00 34.61    -0.210 NA
HETATM   21  C26   D T9001       0.927   1.864   8.038  1.00 36.24     0.256 C 
HETATM   22  O27   D T9001       0.586   2.001   9.213  1.00 39.97    -0.270 OA
BRANCH  21  23
HETATM   23  C24   D T9001       2.025   2.710   7.414  1.00 35.38     0.092 C 
BRANCH  23  24
HETATM   24  C23   D T9001       2.945   1.886   6.497  1.00 34.93     0.051 C 
BRANCH  24  25
HETATM   25  C25   D T9001       4.344   1.816   7.120  1.00 37.23     0.339 C 
HETATM   26  N33   D T9001       5.412   1.925   6.058  1.00 41.10     0.618 N 
ENDBRANCH  24  25
ENDBRANCH  23  24
ENDBRANCH  21  23
ENDBRANCH   1  20
BRANCH   2  27
HETATM   27  O11   D T9001      -2.152   1.875   6.763  1.00 31.09    -0.327 OA
HETATM   28  C12   D T9001      -2.681   2.941   7.554  1.00 29.66     0.181 C 
ENDBRANCH   2  27
TORSDOF 7
ENDMDL
MODEL 4
REMARK VINA RESULT:    -7.028      3.200      5.463
REMARK INTER + INTRA:         -10.938
REMARK INTER:                  -9.780
REMARK INTRA:                  -1.158
REMARK UNBOUND:                -1.034
REMARK  7 active torsions:
REMARK  status: ('A' for Active; 'I' for Inactive)
REMARK    1  A    between atoms: C1_1  and  N13_22 
REMARK    2  A    between atoms: C2_2  and  O11_20 
REMARK    3  A    between atoms: C10_10  and  N14_11 
REMARK    4  A    between atoms: N14_11  and  C15_12 
REMARK       I    between atoms: N13_22  and  C26_23 
REMARK    5  A    between atoms: C26_23  and  C24_24 
REMARK    6  A    between atoms: C24_24  and  C23_25 
REMARK    7  A    between atoms: C23_25  and  C25_26 
ROOT
HETATM    1  C1    D T9001       1.721  -1.757   9.357  1.00 30.38     0.107 A 
HETATM    2  C2    D T9001       2.807  -1.457  10.248  1.00 29.65     0.113 A 
HETATM    3  C3    D T9001       3.479  -0.200  10.119  1.00 28.21     0.045 A 
HETATM    4  C4    D T9001       3.108   0.749   9.143  1.00 27.21     0.088 A 
HETATM    5  C5    D T9001       2.027   0.440   8.239  1.00 26.27     0.055 A 
HETATM    6  C6    D T9001       1.349  -0.811   8.363  1.00 29.22     0.026 A 
HETATM    7  N7    D T9001       3.790   1.920   9.095  1.00 25.99    -0.224 NA
HETATM    8  C8    D T9001       3.415   2.806   8.149  1.00 24.59     0.200 A 
HETATM    9  N9    D T9001       2.427   2.631   7.243  1.00 25.70    -0.205 NA
HETATM   10  C10   D T9001       1.724   1.445   7.278  1.00 27.48     0.166 A 
ENDROOT
BRANCH  10  11
HETATM   11  N14   D T9001       0.675   1.225   6.330  1.00 23.22    -0.227 NA
BRANCH  11  12
HETATM   12  C15   D T9001      -0.718   1.204   6.595  1.00 24.25     0.084 A 
HETATM   13  C16   D T9001      -1.400   2.338   7.142  1.00 25.06     0.033 A 
HETATM   14  C17   D T9001      -2.778   2.301   7.406  1.00 28.28     0.087 A 
HETATM   15  C18   D T9001      -3.518   1.125   7.130  1.00 25.55     0.151 A 
HETATM   16 CL     D T9001      -3.525   3.703   8.070  1.00 31.70    -0.080 Cl
HETATM   17  C19   D T9001      -2.873  -0.015   6.587  1.00 24.70     0.032 A 
HETATM   18  F21   D T9001      -4.835   1.068   7.379  1.00 27.22    -0.203 F 
HETATM   19  C20   D T9001      -1.476   0.026   6.320  1.00 24.32     0.021 A 
ENDBRANCH  11  12
ENDBRANCH  10  11
BRANCH   1  20
HETATM   20  N13   D T9001       1.045  -2.998   9.528  1.00 34.61    -0.210 NA
HETATM   21  C26   D T9001      -0.186  -3.083  10.201  1.00 36.24     0.256 C 
HETATM   22  O27   D T9001      -0.804  -2.142  10.699  1.00 39.97    -0.270 OA
BRANCH  21  23
HETATM   23  C24   D T9001      -0.687  -4.516  10.294  1.00 35.38     0.092 C 
BRANCH  23  24
HETATM   24  C23   D T9001      -1.593  -4.893   9.109  1.00 34.93     0.051 C 
BRANCH  24  25
HETATM   25  C25   D T9001      -3.060  -4.732   9.527  1.00 37.23     0.339 C 
HETATM   26  N33   D T9001      -3.607  -3.403   9.065  1.00 41.10     0.618 N 
ENDBRANCH  24  25
ENDBRANCH  23  24
ENDBRANCH  21  23
ENDBRANCH   1  20
BRANCH   2  27
HETATM   27  O11   D T9001       3.104  -2.451  11.176  1.00 31.09    -0.327 OA
HETATM   28  C12   D T9001       4.375  -3.105  11.141  1.00 29.66     0.181 C 
ENDBRANCH   2  27
TORSDOF 7
ENDMDL
MODEL 5
REMARK VINA RESULT:    -6.994      2.858      4.290
REMARK INTER + INTRA:         -10.890
REMARK INTER:                  -9.792
REMARK INTRA:                  -1.098
REMARK UNBOUND:                -1.034
REMARK  7 active torsions:
REMARK  status: ('A' for Active; 'I' for Inactive)
REMARK    1  A    between atoms: C1_1  and  N13_22 
REMARK    2  A    between atoms: C2_2  and  O11_20 
REMARK    3  A    between atoms: C10_10  and  N14_11 
REMARK    4  A    between atoms: N14_11  and  C15_12 
REMARK       I    between atoms: N13_22  and  C26_23 
REMARK    5  A    between atoms: C26_23  and  C24_24 
REMARK    6  A    between atoms: C24_24  and  C23_25 
REMARK    7  A    between atoms: C23_25  and  C25_26 
ROOT
HETATM    1  C1    D T9001      -1.338  -1.021   7.852  1.00 30.38     0.107 A 
HETATM    2  C2    D T9001      -2.615  -0.364   7.808  1.00 29.65     0.113 A 
HETATM    3  C3    D T9001      -2.699   0.941   7.224  1.00 28.21     0.045 A 
HETATM    4  C4    D T9001      -1.569   1.598   6.696  1.00 27.21     0.088 A 
HETATM    5  C5    D T9001      -0.285   0.943   6.755  1.00 26.27     0.055 A 
HETATM    6  C6    D T9001      -0.192  -0.360   7.332  1.00 29.22     0.026 A 
HETATM    7  N7    D T9001      -1.738   2.829   6.153  1.00 25.99    -0.224 NA
HETATM    8  C8    D T9001      -0.638   3.434   5.659  1.00 24.59     0.200 A 
HETATM    9  N9    D T9001       0.616   2.929   5.662  1.00 25.70    -0.205 NA
HETATM   10  C10   D T9001       0.805   1.678   6.212  1.00 27.48     0.166 A 
ENDROOT
BRANCH  10  11
HETATM   11  N14   D T9001       2.121   1.117   6.236  1.00 23.22    -0.227 NA
BRANCH  11  12
HETATM   12  C15   D T9001       3.213   1.547   7.031  1.00 24.25     0.084 A 
HETATM   13  C16   D T9001       4.382   2.141   6.453  1.00 25.06     0.033 A 
HETATM   14  C17   D T9001       5.458   2.556   7.251  1.00 28.28     0.087 A 
HETATM   15  C18   D T9001       5.400   2.391   8.656  1.00 25.55     0.151 A 
HETATM   16 CL     D T9001       6.830   3.256   6.480  1.00 31.70    -0.080 Cl
HETATM   17  C19   D T9001       4.257   1.808   9.261  1.00 24.70     0.032 A 
HETATM   18  F21   D T9001       6.420   2.778   9.437  1.00 27.22    -0.203 F 
HETATM   19  C20   D T9001       3.167   1.388   8.449  1.00 24.32     0.021 A 
ENDBRANCH  11  12
ENDBRANCH  10  11
BRANCH   1  20
HETATM   20  N13   D T9001      -1.286  -2.332   8.404  1.00 34.61    -0.210 NA
HETATM   21  C26   D T9001      -1.021  -2.551   9.766  1.00 36.24     0.256 C 
HETATM   22  O27   D T9001      -0.814  -1.680  10.612  1.00 39.97    -0.270 OA
BRANCH  21  23
HETATM   23  C24   D T9001      -0.975  -4.032  10.108  1.00 35.38     0.092 C 
BRANCH  23  24
HETATM   24  C23   D T9001      -1.688  -4.895   9.053  1.00 34.93     0.051 C 
BRANCH  24  25
HETATM   25  C25   D T9001      -3.111  -5.202   9.534  1.00 37.23     0.339 C 
HETATM   26  N33   D T9001      -4.132  -4.745   8.520  1.00 41.10     0.618 N 
ENDBRANCH  24  25
ENDBRANCH  23  24
ENDBRANCH  21  23
ENDBRANCH   1  20
BRANCH   2  27
HETATM   27  O11   D T9001      -3.673  -1.086   8.353  1.00 31.09    -0.327 OA
HETATM   28  C12   D T9001      -4.996  -0.912   7.839  1.00 29.66     0.181 C 
ENDBRANCH   2  27
TORSDOF 7
ENDMDL
MODEL 6
REMARK VINA RESULT:    -6.922      2.747      4.877
REMARK INTER + INTRA:         -10.789
REMARK INTER:                 -10.021
REMARK INTRA:                  -0.768
REMARK UNBOUND:                -1.034
REMARK  7 active torsions:
REMARK  status: ('A' for Active; 'I' for Inactive)
REMARK    1  A    between atoms: C1_1  and  N13_22 
REMARK    2  A    between atoms: C2_2  and  O11_20 
REMARK    3  A    between atoms: C10_10  and  N14_11 
REMARK    4  A    between atoms: N14_11  and  C15_12 
REMARK       I    between atoms: N13_22  and  C26_23 
REMARK    5  A    between atoms: C26_23  and  C24_24 
REMARK    6  A    between atoms: C24_24  and  C23_25 
REMARK    7  A    between atoms: C23_25  and  C25_26 
ROOT
HETATM    1  C1    D T9001       0.708  -2.372  10.167  1.00 30.38     0.107 A 
HETATM    2  C2    D T9001       0.975  -3.759  10.431  1.00 29.65     0.113 A 
HETATM    3  C3    D T9001      -0.072  -4.714  10.228  1.00 28.21     0.045 A 
HETATM    4  C4    D T9001      -1.354  -4.333   9.781  1.00 27.21     0.088 A 
HETATM    5  C5    D T9001      -1.625  -2.938   9.531  1.00 26.27     0.055 A 
HETATM    6  C6    D T9001      -0.585  -1.979   9.728  1.00 29.22     0.026 A 
HETATM    7  N7    D T9001      -2.286  -5.302   9.604  1.00 25.99    -0.224 NA
HETATM    8  C8    D T9001      -3.504  -4.907   9.179  1.00 24.59     0.200 A 
HETATM    9  N9    D T9001      -3.881  -3.636   8.919  1.00 25.70    -0.205 NA
HETATM   10  C10   D T9001      -2.945  -2.638   9.094  1.00 27.48     0.166 A 
ENDROOT
BRANCH  10  11
HETATM   11  N14   D T9001      -3.313  -1.280   8.832  1.00 23.22    -0.227 NA
BRANCH  11  12
HETATM   12  C15   D T9001      -2.779  -0.435   7.827  1.00 24.25     0.084 A 
HETATM   13  C16   D T9001      -2.911  -0.741   6.434  1.00 25.06     0.033 A 
HETATM   14  C17   D T9001      -2.372   0.101   5.449  1.00 28.28     0.087 A 
HETATM   15  C18   D T9001      -1.682   1.279   5.828  1.00 25.55     0.151 A 
HETATM   16 CL     D T9001      -2.567  -0.339   3.796  1.00 31.70    -0.080 Cl
HETATM   17  C19   D T9001      -1.535   1.612   7.198  1.00 24.70     0.032 A 
HETATM   18  F21   D T9001      -1.156   2.094   4.902  1.00 27.22    -0.203 F 
HETATM   19  C20   D T9001      -2.083   0.757   8.194  1.00 24.32     0.021 A 
ENDBRANCH  11  12
ENDBRANCH  10  11
BRANCH   1  20
HETATM   20  N13   D T9001       1.775  -1.447  10.342  1.00 34.61    -0.210 NA
HETATM   21  C26   D T9001       2.076  -0.473   9.375  1.00 36.24     0.256 C 
HETATM   22  O27   D T9001       1.483  -0.305   8.309  1.00 39.97    -0.270 OA
BRANCH  21  23
HETATM   23  C24   D T9001       3.281   0.368   9.767  1.00 35.38     0.092 C 
BRANCH  23  24
HETATM   24  C23   D T9001       3.260   1.757   9.106  1.00 34.93     0.051 C 
BRANCH  24  25
HETATM   25  C25   D T9001       4.314   1.799   7.992  1.00 37.23     0.339 C 
HETATM   26  N33   D T9001       3.660   1.758   6.632  1.00 41.10     0.618 N 
ENDBRANCH  24  25
ENDBRANCH  23  24
ENDBRANCH  21  23
ENDBRANCH   1  20
BRANCH   2  27
HETATM   27  O11   D T9001       2.265  -4.042  10.870  1.00 31.09    -0.327 OA
HETATM   28  C12   D T9001       2.466  -4.694  12.126  1.00 29.66     0.181 C 
ENDBRANCH   2  27
TORSDOF 7
ENDMDL
MODEL 7
REMARK VINA RESULT:    -6.852      3.829      7.008
REMARK INTER + INTRA:         -10.690
REMARK INTER:                  -9.898
REMARK INTRA:                  -0.792
REMARK UNBOUND:                -1.034
REMARK  7 active torsions:
REMARK  status: ('A' for Active; 'I' for Inactive)
REMARK    1  A    between atoms: C1_1  and  N13_22 
REMARK    2  A    between atoms: C2_2  and  O11_20 
REMARK    3  A    between atoms: C10_10  and  N14_11 
REMARK    4  A    between atoms: N14_11  and  C15_12 
REMARK       I    between atoms: N13_22  and  C26_23 
REMARK    5  A    between atoms: C26_23  and  C24_24 
REMARK    6  A    between atoms: C24_24  and  C23_25 
REMARK    7  A    between atoms: C23_25  and  C25_26 
ROOT
HETATM    1  C1    D T9001      -0.282   1.620   7.051  1.00 30.38     0.107 A 
HETATM    2  C2    D T9001      -0.842   1.862   5.751  1.00 29.65     0.113 A 
HETATM    3  C3    D T9001      -2.022   1.148   5.365  1.00 28.21     0.045 A 
HETATM    4  C4    D T9001      -2.645   0.216   6.219  1.00 27.21     0.088 A 
HETATM    5  C5    D T9001      -2.072  -0.037   7.519  1.00 26.27     0.055 A 
HETATM    6  C6    D T9001      -0.897   0.672   7.914  1.00 29.22     0.026 A 
HETATM    7  N7    D T9001      -3.765  -0.409   5.779  1.00 25.99    -0.224 NA
HETATM    8  C8    D T9001      -4.337  -1.298   6.618  1.00 24.59     0.200 A 
HETATM    9  N9    D T9001      -3.893  -1.626   7.852  1.00 25.70    -0.205 NA
HETATM   10  C10   D T9001      -2.755  -1.000   8.314  1.00 27.48     0.166 A 
ENDROOT
BRANCH  10  11
HETATM   11  N14   D T9001      -2.255  -1.328   9.614  1.00 23.22    -0.227 NA
BRANCH  11  12
HETATM   12  C15   D T9001      -1.532  -2.493   9.976  1.00 24.25     0.084 A 
HETATM   13  C16   D T9001      -0.288  -2.421  10.683  1.00 25.06     0.033 A 
HETATM   14  C17   D T9001       0.421  -3.582  11.029  1.00 28.28     0.087 A 
HETATM   15  C18   D T9001      -0.094  -4.854  10.679  1.00 25.55     0.151 A 
HETATM   16 CL     D T9001       1.912  -3.412  11.873  1.00 31.70    -0.080 Cl
HETATM   17  C19   D T9001      -1.324  -4.960   9.980  1.00 24.70     0.032 A 
HETATM   18  F21   D T9001       0.570  -5.975  10.997  1.00 27.22    -0.203 F 
HETATM   19  C20   D T9001      -2.040  -3.782   9.631  1.00 24.32     0.021 A 
ENDBRANCH  11  12
ENDBRANCH  10  11
BRANCH   1  20
HETATM   20  N13   D T9001       0.870   2.367   7.427  1.00 34.61    -0.210 NA
HETATM   21  C26   D T9001       2.162   1.989   7.022  1.00 36.24     0.256 C 
HETATM   22  O27   D T9001       2.444   1.014   6.325  1.00 39.97    -0.270 OA
BRANCH  21  23
HETATM   23  C24   D T9001       3.229   2.915   7.581  1.00 35.38     0.092 C 
BRANCH  23  24
HETATM   24  C23   D T9001       4.372   3.157   6.580  1.00 34.93     0.051 C 
BRANCH  24  25
HETATM   25  C25   D T9001       5.686   2.645   7.184  1.00 37.23     0.339 C 
HETATM   26  N33   D T9001       5.590   2.564   8.689  1.00 41.10     0.618 N 
ENDBRANCH  24  25
ENDBRANCH  23  24
ENDBRANCH  21  23
ENDBRANCH   1  20
BRANCH   2  27
HETATM   27  O11   D T9001      -0.161   2.795   4.976  1.00 31.09    -0.327 OA
HETATM   28  C12   D T9001      -0.707   4.103   4.788  1.00 29.66     0.181 C 
ENDBRANCH   2  27
TORSDOF 7
ENDMDL
MODEL 8
REMARK VINA RESULT:    -6.809      2.479      3.107
REMARK INTER + INTRA:         -10.630
REMARK INTER:                  -9.592
REMARK INTRA:                  -1.038
REMARK UNBOUND:                -1.034
REMARK  7 active torsions:
REMARK  status: ('A' for Active; 'I' for Inactive)
REMARK    1  A    between atoms: C1_1  and  N13_22 
REMARK    2  A    between atoms: C2_2  and  O11_20 
REMARK    3  A    between atoms: C10_10  and  N14_11 
REMARK    4  A    between atoms: N14_11  and  C15_12 
REMARK       I    between atoms: N13_22  and  C26_23 
REMARK    5  A    between atoms: C26_23  and  C24_24 
REMARK    6  A    between atoms: C24_24  and  C23_25 
REMARK    7  A    between atoms: C23_25  and  C25_26 
ROOT
HETATM    1  C1    D T9001      -1.249  -2.059   8.432  1.00 30.38     0.107 A 
HETATM    2  C2    D T9001      -2.622  -1.637   8.450  1.00 29.65     0.113 A 
HETATM    3  C3    D T9001      -2.969  -0.389   7.840  1.00 28.21     0.045 A 
HETATM    4  C4    D T9001      -2.004   0.437   7.228  1.00 27.21     0.088 A 
HETATM    5  C5    D T9001      -0.623   0.019   7.224  1.00 26.27     0.055 A 
HETATM    6  C6    D T9001      -0.268  -1.226   7.827  1.00 29.22     0.026 A 
HETATM    7  N7    D T9001      -2.418   1.599   6.665  1.00 25.99    -0.224 NA
HETATM    8  C8    D T9001      -1.472   2.370   6.089  1.00 24.59     0.200 A 
HETATM    9  N9    D T9001      -0.151   2.093   6.028  1.00 25.70    -0.205 NA
HETATM   10  C10   D T9001       0.287   0.915   6.597  1.00 27.48     0.166 A 
ENDROOT
BRANCH  10  11
HETATM   11  N14   D T9001       1.682   0.594   6.554  1.00 23.22    -0.227 NA
BRANCH  11  12
HETATM   12  C15   D T9001       2.726   1.254   7.249  1.00 24.25     0.084 A 
HETATM   13  C16   D T9001       2.744   1.343   8.679  1.00 25.06     0.033 A 
HETATM   14  C17   D T9001       3.781   2.005   9.354  1.00 28.28     0.087 A 
HETATM   15  C18   D T9001       4.835   2.600   8.619  1.00 25.55     0.151 A 
HETATM   16 CL     D T9001       3.728   2.074  11.074  1.00 31.70    -0.080 Cl
HETATM   17  C19   D T9001       4.848   2.530   7.202  1.00 24.70     0.032 A 
HETATM   18  F21   D T9001       5.833   3.241   9.245  1.00 27.22    -0.203 F 
HETATM   19  C20   D T9001       3.796   1.857   6.521  1.00 24.32     0.021 A 
ENDBRANCH  11  12
ENDBRANCH  10  11
BRANCH   1  20
HETATM   20  N13   D T9001      -0.934  -3.320   9.012  1.00 34.61    -0.210 NA
HETATM   21  C26   D T9001      -0.373  -3.424  10.296  1.00 36.24     0.256 C 
HETATM   22  O27   D T9001      -0.099  -2.484  11.044  1.00 39.97    -0.270 OA
BRANCH  21  23
HETATM   23  C24   D T9001      -0.087  -4.867  10.679  1.00 35.38     0.092 C 
BRANCH  23  24
HETATM   24  C23   D T9001       0.689  -4.975  12.003  1.00 34.93     0.051 C 
BRANCH  24  25
HETATM   25  C25   D T9001       1.979  -5.771  11.765  1.00 37.23     0.339 C 
HETATM   26  N33   D T9001       3.194  -4.933  12.080  1.00 41.10     0.618 N 
ENDBRANCH  24  25
ENDBRANCH  23  24
ENDBRANCH  21  23
ENDBRANCH   1  20
BRANCH   2  27
HETATM   27  O11   D T9001      -3.503  -2.514   9.076  1.00 31.09    -0.327 OA
HETATM   28  C12   D T9001      -4.714  -2.900   8.421  1.00 29.66     0.181 C 
ENDBRANCH   2  27
TORSDOF 7
ENDMDL
MODEL 9
REMARK VINA RESULT:    -6.724      1.985      2.334
REMARK INTER + INTRA:         -10.510
REMARK INTER:                  -9.358
REMARK INTRA:                  -1.152
REMARK UNBOUND:                -1.034
REMARK  7 active torsions:
REMARK  status: ('A' for Active; 'I' for Inactive)
REMARK    1  A    between atoms: C1_1  and  N13_22 
REMARK    2  A    between atoms: C2_2  and  O11_20 
REMARK    3  A    between atoms: C10_10  and  N14_11 
REMARK    4  A    between atoms: N14_11  and  C15_12 
REMARK       I    between atoms: N13_22  and  C26_23 
REMARK    5  A    between atoms: C26_23  and  C24_24 
REMARK    6  A    between atoms: C24_24  and  C23_25 
REMARK    7  A    between atoms: C23_25  and  C25_26 
ROOT
HETATM    1  C1    D T9001       0.230  -1.949   9.118  1.00 30.38     0.107 A 
HETATM    2  C2    D T9001      -0.700  -2.689   9.925  1.00 29.65     0.113 A 
HETATM    3  C3    D T9001      -2.092  -2.634   9.598  1.00 28.21     0.045 A 
HETATM    4  C4    D T9001      -2.576  -1.875   8.513  1.00 27.21     0.088 A 
HETATM    5  C5    D T9001      -1.643  -1.120   7.713  1.00 26.27     0.055 A 
HETATM    6  C6    D T9001      -0.251  -1.171   8.029  1.00 29.22     0.026 A 
HETATM    7  N7    D T9001      -3.910  -1.885   8.267  1.00 25.99    -0.224 NA
HETATM    8  C8    D T9001      -4.343  -1.147   7.224  1.00 24.59     0.200 A 
HETATM    9  N9    D T9001      -3.572  -0.394   6.408  1.00 25.70    -0.205 NA
HETATM   10  C10   D T9001      -2.214  -0.372   6.646  1.00 27.48     0.166 A 
ENDROOT
BRANCH  10  11
HETATM   11  N14   D T9001      -1.369   0.419   5.803  1.00 23.22    -0.227 NA
BRANCH  11  12
HETATM   12  C15   D T9001      -0.837   1.700   6.098  1.00 24.25     0.084 A 
HETATM   13  C16   D T9001       0.569   1.967   6.033  1.00 25.06     0.033 A 
HETATM   14  C17   D T9001       1.083   3.238   6.334  1.00 28.28     0.087 A 
HETATM   15  C18   D T9001       0.205   4.283   6.711  1.00 25.55     0.151 A 
HETATM   16 CL     D T9001       2.785   3.479   6.238  1.00 31.70    -0.080 Cl
HETATM   17  C19   D T9001      -1.193   4.052   6.784  1.00 24.70     0.032 A 
HETATM   18  F21   D T9001       0.676   5.504   7.006  1.00 27.22    -0.203 F 
HETATM   19  C20   D T9001      -1.711   2.763   6.478  1.00 24.32     0.021 A 
ENDBRANCH  11  12
ENDBRANCH  10  11
BRANCH   1  20
HETATM   20  N13   D T9001       1.613  -2.047   9.440  1.00 34.61    -0.210 NA
HETATM   21  C26   D T9001       2.334  -0.954   9.951  1.00 36.24     0.256 C 
HETATM   22  O27   D T9001       1.881   0.169  10.175  1.00 39.97    -0.270 OA
BRANCH  21  23
HETATM   23  C24   D T9001       3.799  -1.291  10.176  1.00 35.38     0.092 C 
BRANCH  23  24
HETATM   24  C23   D T9001       4.016  -2.791  10.445  1.00 34.93     0.051 C 
BRANCH  24  25
HETATM   25  C25   D T9001       4.217  -3.007  11.950  1.00 37.23     0.339 C 
HETATM   26  N33   D T9001       2.912  -3.358  12.622  1.00 41.10     0.618 N 
ENDBRANCH  24  25
ENDBRANCH  23  24
ENDBRANCH  21  23
ENDBRANCH   1  20
BRANCH   2  27
HETATM   27  O11   D T9001      -0.134  -3.407  10.974  1.00 31.09    -0.327 OA
HETATM   28  C12   D T9001      -0.101  -4.836  10.926  1.00 29.66     0.181 C 
ENDBRANCH   2  27
TORSDOF 7
ENDMDL
