MODEL 1
REMARK VINA RESULT:    -7.631      0.000      0.000
REMARK INTER + INTRA:         -11.841
REMARK INTER:                 -10.754
REMARK INTRA:                  -1.086
REMARK UNBOUND:                -1.086
REMARK  7 active torsions:
REMARK  status: ('A' for Active; 'I' for Inactive)
REMARK    1  A    between atoms: C1_1  and  N13_22 
REMARK    2  A    between atoms: C2_2  and  O11_20 
REMARK    3  A    between atoms: C10_10  and  N14_11 
REMARK    4  A    between atoms: N14_11  and  C15_12 
REMARK       I    between atoms: N13_22  and  C26_23 
REMARK    5  A    between atoms: C26_23  and  C24_24 
REMARK    6  A    between atoms: C24_24  and  C23_25 
REMARK    7  A    between atoms: C23_25  and  C25_26 
ROOT
HETATM    1  C1    D T9001       3.731  16.291  -1.307  1.00 30.38     0.107 A 
HETATM    2  C2    D T9001       5.091  16.337  -1.767  1.00 29.65     0.113 A 
HETATM    3  C3    D T9001       6.063  15.499  -1.130  1.00 28.21     0.045 A 
HETATM    4  C4    D T9001       5.725  14.637  -0.068  1.00 27.21     0.088 A 
HETATM    5  C5    D T9001       4.361  14.604   0.403  1.00 26.27     0.055 A 
HETATM    6  C6    D T9001       3.385  15.433  -0.228  1.00 29.22     0.026 A 
HETATM    7  N7    D T9001       6.704  13.870   0.474  1.00 25.99    -0.224 NA
HETATM    8  C8    D T9001       6.350  13.058   1.491  1.00 24.59     0.200 A 
HETATM    9  N9    D T9001       5.116  12.943   2.025  1.00 25.70    -0.205 NA
HETATM   10  C10   D T9001       4.107  13.716   1.487  1.00 27.48     0.166 A 
ENDROOT
BRANCH  10  11
HETATM   11  N14   D T9001       2.787  13.624   2.032  1.00 23.22    -0.227 NA
BRANCH  11  12
HETATM   12  C15   D T9001       1.787  12.683   1.677  1.00 24.25     0.084 A 
HETATM   13  C16   D T9001       0.917  12.891   0.557  1.00 25.06     0.033 A 
HETATM   14  C17   D T9001      -0.073  11.957   0.223  1.00 28.28     0.087 A 
HETATM   15  C18   D T9001      -0.226  10.781   0.998  1.00 25.55     0.151 A 
HETATM   16 CL     D T9001      -1.083  12.281  -1.135  1.00 31.70    -0.080 Cl
HETATM   17  C19   D T9001       0.618  10.545   2.112  1.00 24.70     0.032 A 
HETATM   18  F21   D T9001      -1.169   9.877   0.696  1.00 27.22    -0.203 F 
HETATM   19  C20   D T9001       1.622  11.494   2.449  1.00 24.32     0.021 A 
ENDBRANCH  11  12
ENDBRANCH  10  11
BRANCH   1  20
HETATM   20  N13   D T9001       2.776  17.106  -1.979  1.00 34.61    -0.210 NA
HETATM   21  C26   D T9001       1.879  16.571  -2.919  1.00 36.24     0.256 C 
HETATM   22  O27   D T9001       1.807  15.390  -3.261  1.00 39.97    -0.270 OA
BRANCH  21  23
HETATM   23  C24   D T9001       0.989  17.641  -3.532  1.00 35.38     0.092 C 
BRANCH  23  24
HETATM   24  C23   D T9001      -0.398  17.694  -2.870  1.00 34.93     0.051 C 
BRANCH  24  25
HETATM   25  C25   D T9001      -0.577  19.055  -2.186  1.00 37.23     0.339 C 
HETATM   26  N33   D T9001      -1.484  19.949  -2.997  1.00 41.10     0.618 N 
ENDBRANCH  24  25
ENDBRANCH  23  24
ENDBRANCH  21  23
ENDBRANCH   1  20
BRANCH   2  27
HETATM   27  O11   D T9001       5.333  17.216  -2.818  1.00 31.09    -0.327 OA
HETATM   28  C12   D T9001       5.762  16.713  -4.086  1.00 29.66     0.181 C 
ENDBRANCH   2  27
TORSDOF 7
ENDMDL
MODEL 2
REMARK VINA RESULT:    -7.613      3.747      7.899
REMARK INTER + INTRA:         -11.815
REMARK INTER:                 -10.930
REMARK INTRA:                  -0.886
REMARK UNBOUND:                -1.086
REMARK  7 active torsions:
REMARK  status: ('A' for Active; 'I' for Inactive)
REMARK    1  A    between atoms: C1_1  and  N13_22 
REMARK    2  A    between atoms: C2_2  and  O11_20 
REMARK    3  A    between atoms: C10_10  and  N14_11 
REMARK    4  A    between atoms: N14_11  and  C15_12 
REMARK       I    between atoms: N13_22  and  C26_23 
REMARK    5  A    between atoms: C26_23  and  C24_24 
REMARK    6  A    between atoms: C24_24  and  C23_25 
REMARK    7  A    between atoms: C23_25  and  C25_26 
ROOT
HETATM    1  C1    D T9001       2.369  13.758   0.663  1.00 30.38     0.107 A 
HETATM    2  C2    D T9001       1.653  12.666   1.263  1.00 29.65     0.113 A 
HETATM    3  C3    D T9001       0.396  12.275   0.701  1.00 28.21     0.045 A 
HETATM    4  C4    D T9001      -0.161  12.930  -0.415  1.00 27.21     0.088 A 
HETATM    5  C5    D T9001       0.551  14.037  -1.007  1.00 26.27     0.055 A 
HETATM    6  C6    D T9001       1.808  14.433  -0.457  1.00 29.22     0.026 A 
HETATM    7  N7    D T9001      -1.353  12.491  -0.890  1.00 25.99    -0.224 NA
HETATM    8  C8    D T9001      -1.861  13.140  -1.958  1.00 24.59     0.200 A 
HETATM    9  N9    D T9001      -1.298  14.191  -2.592  1.00 25.70    -0.205 NA
HETATM   10  C10   D T9001      -0.085  14.651  -2.122  1.00 27.48     0.166 A 
ENDROOT
BRANCH  10  11
HETATM   11  N14   D T9001       0.538  15.766  -2.768  1.00 23.22    -0.227 NA
BRANCH  11  12
HETATM   12  C15   D T9001      -0.080  16.989  -3.134  1.00 24.25     0.084 A 
HETATM   13  C16   D T9001      -0.400  17.296  -4.496  1.00 25.06     0.033 A 
HETATM   14  C17   D T9001      -1.004  18.512  -4.845  1.00 28.28     0.087 A 
HETATM   15  C18   D T9001      -1.308  19.464  -3.841  1.00 25.55     0.151 A 
HETATM   16 CL     D T9001      -1.352  18.809  -6.506  1.00 31.70    -0.080 Cl
HETATM   17  C19   D T9001      -1.005  19.192  -2.483  1.00 24.70     0.032 A 
HETATM   18  F21   D T9001      -1.883  20.634  -4.155  1.00 27.22    -0.203 F 
HETATM   19  C20   D T9001      -0.393  17.957  -2.132  1.00 24.32     0.021 A 
ENDBRANCH  11  12
ENDBRANCH  10  11
BRANCH   1  20
HETATM   20  N13   D T9001       3.634  14.106   1.216  1.00 34.61    -0.210 NA
HETATM   21  C26   D T9001       4.839  13.764   0.578  1.00 36.24     0.256 C 
HETATM   22  O27   D T9001       4.946  13.155  -0.487  1.00 39.97    -0.270 OA
BRANCH  21  23
HETATM   23  C24   D T9001       6.053  14.203   1.379  1.00 35.38     0.092 C 
BRANCH  23  24
HETATM   24  C23   D T9001       6.141  13.493   2.741  1.00 34.93     0.051 C 
BRANCH  24  25
HETATM   25  C25   D T9001       7.230  12.416   2.678  1.00 37.23     0.339 C 
HETATM   26  N33   D T9001       6.756  11.217   1.893  1.00 41.10     0.618 N 
ENDBRANCH  24  25
ENDBRANCH  23  24
ENDBRANCH  21  23
ENDBRANCH   1  20
BRANCH   2  27
HETATM   27  O11   D T9001       2.277  12.080   2.360  1.00 31.09    -0.327 OA
HETATM   28  C12   D T9001       1.829  10.811   2.843  1.00 29.66     0.181 C 
ENDBRANCH   2  27
TORSDOF 7
ENDMDL
MODEL 3
REMARK VINA RESULT:    -7.576      3.321      5.474
REMARK INTER + INTRA:         -11.762
REMARK INTER:                 -10.870
REMARK INTRA:                  -0.892
REMARK UNBOUND:                -1.086
REMARK  7 active torsions:
REMARK  status: ('A' for Active; 'I' for Inactive)
REMARK    1  A    between atoms: C1_1  and  N13_22 
REMARK    2  A    between atoms: C2_2  and  O11_20 
REMARK    3  A    between atoms: C10_10  and  N14_11 
REMARK    4  A    between atoms: N14_11  and  C15_12 
REMARK       I    between atoms: N13_22  and  C26_23 
REMARK    5  A    between atoms: C26_23  and  C24_24 
REMARK    6  A    between atoms: C24_24  and  C23_25 
REMARK    7  A    between atoms: C23_25  and  C25_26 
ROOT
HETATM    1  C1    D T9001       0.329  13.990  -1.186  1.00 30.38     0.107 A 
HETATM    2  C2    D T9001      -0.686  12.999  -1.409  1.00 29.65     0.113 A 
HETATM    3  C3    D T9001      -0.763  11.879  -0.521  1.00 28.21     0.045 A 
HETATM    4  C4    D T9001       0.128  11.718   0.559  1.00 27.21     0.088 A 
HETATM    5  C5    D T9001       1.158  12.707   0.773  1.00 26.27     0.055 A 
HETATM    6  C6    D T9001       1.240  13.830  -0.105  1.00 29.22     0.026 A 
HETATM    7  N7    D T9001      -0.019  10.632   1.358  1.00 25.99    -0.224 NA
HETATM    8  C8    D T9001       0.851  10.506   2.381  1.00 24.59     0.200 A 
HETATM    9  N9    D T9001       1.858  11.355   2.679  1.00 25.70    -0.205 NA
HETATM   10  C10   D T9001       2.023  12.465   1.877  1.00 27.48     0.166 A 
ENDROOT
BRANCH  10  11
HETATM   11  N14   D T9001       3.083  13.383   2.160  1.00 23.22    -0.227 NA
BRANCH  11  12
HETATM   12  C15   D T9001       4.464  13.079   2.267  1.00 24.25     0.084 A 
HETATM   13  C16   D T9001       5.347  13.171   1.141  1.00 25.06     0.033 A 
HETATM   14  C17   D T9001       6.709  12.860   1.259  1.00 28.28     0.087 A 
HETATM   15  C18   D T9001       7.234  12.447   2.507  1.00 25.55     0.151 A 
HETATM   16 CL     D T9001       7.704  12.990  -0.141  1.00 31.70    -0.080 Cl
HETATM   17  C19   D T9001       6.388  12.345   3.641  1.00 24.70     0.032 A 
HETATM   18  F21   D T9001       8.533  12.142   2.640  1.00 27.22    -0.203 F 
HETATM   19  C20   D T9001       5.007  12.662   3.519  1.00 24.32     0.021 A 
ENDBRANCH  11  12
ENDBRANCH  10  11
BRANCH   1  20
HETATM   20  N13   D T9001       0.362  15.114  -2.060  1.00 34.61    -0.210 NA
HETATM   21  C26   D T9001       1.441  15.341  -2.932  1.00 36.24     0.256 C 
HETATM   22  O27   D T9001       2.441  14.630  -3.047  1.00 39.97    -0.270 OA
BRANCH  21  23
HETATM   23  C24   D T9001       1.270  16.622  -3.730  1.00 35.38     0.092 C 
BRANCH  23  24
HETATM   24  C23   D T9001       0.977  17.835  -2.831  1.00 34.93     0.051 C 
BRANCH  24  25
HETATM   25  C25   D T9001      -0.380  18.433  -3.217  1.00 37.23     0.339 C 
HETATM   26  N33   D T9001      -1.018  19.127  -2.038  1.00 41.10     0.618 N 
ENDBRANCH  24  25
ENDBRANCH  23  24
ENDBRANCH  21  23
ENDBRANCH   1  20
BRANCH   2  27
HETATM   27  O11   D T9001      -1.520  13.237  -2.498  1.00 31.09    -0.327 OA
HETATM   28  C12   D T9001      -2.923  13.419  -2.297  1.00 29.66     0.181 C 
ENDBRANCH   2  27
TORSDOF 7
ENDMDL
MODEL 4
REMARK VINA RESULT:    -7.267      3.513      5.822
REMARK INTER + INTRA:         -11.328
REMARK INTER:                 -10.423
REMARK INTRA:                  -0.904
REMARK UNBOUND:                -1.086
REMARK  7 active torsions:
REMARK  status: ('A' for Active; 'I' for Inactive)
REMARK    1  A    between atoms: C1_1  and  N13_22 
REMARK    2  A    between atoms: C2_2  and  O11_20 
REMARK    3  A    between atoms: C10_10  and  N14_11 
REMARK    4  A    between atoms: N14_11  and  C15_12 
REMARK       I    between atoms: N13_22  and  C26_23 
REMARK    5  A    between atoms: C26_23  and  C24_24 
REMARK    6  A    between atoms: C24_24  and  C23_25 
REMARK    7  A    between atoms: C23_25  and  C25_26 
ROOT
HETATM    1  C1    D T9001       0.589  14.102  -1.204  1.00 30.38     0.107 A 
HETATM    2  C2    D T9001      -0.518  13.201  -1.364  1.00 29.65     0.113 A 
HETATM    3  C3    D T9001      -0.667  12.120  -0.437  1.00 28.21     0.045 A 
HETATM    4  C4    D T9001       0.241  11.912   0.621  1.00 27.21     0.088 A 
HETATM    5  C5    D T9001       1.362  12.809   0.771  1.00 26.27     0.055 A 
HETATM    6  C6    D T9001       1.516  13.892  -0.146  1.00 29.22     0.026 A 
HETATM    7  N7    D T9001       0.023  10.868   1.460  1.00 25.99    -0.224 NA
HETATM    8  C8    D T9001       0.911  10.694   2.460  1.00 24.59     0.200 A 
HETATM    9  N9    D T9001       1.999  11.456   2.699  1.00 25.70    -0.205 NA
HETATM   10  C10   D T9001       2.237  12.522   1.856  1.00 27.48     0.166 A 
ENDROOT
BRANCH  10  11
HETATM   11  N14   D T9001       3.385  13.347   2.077  1.00 23.22    -0.227 NA
BRANCH  11  12
HETATM   12  C15   D T9001       4.725  13.051   1.722  1.00 24.25     0.084 A 
HETATM   13  C16   D T9001       5.628  12.421   2.640  1.00 25.06     0.033 A 
HETATM   14  C17   D T9001       6.953  12.141   2.278  1.00 28.28     0.087 A 
HETATM   15  C18   D T9001       7.420  12.480   0.984  1.00 25.55     0.151 A 
HETATM   16 CL     D T9001       7.980  11.388   3.439  1.00 31.70    -0.080 Cl
HETATM   17  C19   D T9001       6.552  13.103   0.052  1.00 24.70     0.032 A 
HETATM   18  F21   D T9001       8.684  12.222   0.620  1.00 27.22    -0.203 F 
HETATM   19  C20   D T9001       5.208  13.386   0.421  1.00 24.32     0.021 A 
ENDBRANCH  11  12
ENDBRANCH  10  11
BRANCH   1  20
HETATM   20  N13   D T9001       0.695  15.191  -2.115  1.00 34.61    -0.210 NA
HETATM   21  C26   D T9001       1.819  15.356  -2.942  1.00 36.24     0.256 C 
HETATM   22  O27   D T9001       2.803  14.615  -2.983  1.00 39.97    -0.270 OA
BRANCH  21  23
HETATM   23  C24   D T9001       1.723  16.611  -3.793  1.00 35.38     0.092 C 
BRANCH  23  24
HETATM   24  C23   D T9001       2.903  17.568  -3.557  1.00 34.93     0.051 C 
BRANCH  24  25
HETATM   25  C25   D T9001       3.531  17.936  -4.907  1.00 37.23     0.339 C 
HETATM   26  N33   D T9001       4.965  17.471  -4.978  1.00 41.10     0.618 N 
ENDBRANCH  24  25
ENDBRANCH  23  24
ENDBRANCH  21  23
ENDBRANCH   1  20
BRANCH   2  27
HETATM   27  O11   D T9001      -1.362  13.482  -2.434  1.00 31.09    -0.327 OA
HETATM   28  C12   D T9001      -2.780  13.429  -2.260  1.00 29.66     0.181 C 
ENDBRANCH   2  27
TORSDOF 7
ENDMDL
MODEL 5
REMARK VINA RESULT:    -7.238      2.374      2.880
REMARK INTER + INTRA:         -11.287
REMARK INTER:                 -10.289
REMARK INTRA:                  -0.998
REMARK UNBOUND:                -1.086
REMARK  7 active torsions:
REMARK  status: ('A' for Active; 'I' for Inactive)
REMARK    1  A    between atoms: C1_1  and  N13_22 
REMARK    2  A    between atoms: C2_2  and  O11_20 
REMARK    3  A    between atoms: C10_10  and  N14_11 
REMARK    4  A    between atoms: N14_11  and  C15_12 
REMARK       I    between atoms: N13_22  and  C26_23 
REMARK    5  A    between atoms: C26_23  and  C24_24 
REMARK    6  A    between atoms: C24_24  and  C23_25 
REMARK    7  A    between atoms: C23_25  and  C25_26 
ROOT
HETATM    1  C1    D T9001       2.420  15.765  -2.106  1.00 30.38     0.107 A 
HETATM    2  C2    D T9001       3.528  16.483  -1.540  1.00 29.65     0.113 A 
HETATM    3  C3    D T9001       4.081  16.031  -0.299  1.00 28.21     0.045 A 
HETATM    4  C4    D T9001       3.569  14.909   0.383  1.00 27.21     0.088 A 
HETATM    5  C5    D T9001       2.446  14.198  -0.178  1.00 26.27     0.055 A 
HETATM    6  C6    D T9001       1.889  14.639  -1.417  1.00 29.22     0.026 A 
HETATM    7  N7    D T9001       4.158  14.542   1.549  1.00 25.99    -0.224 NA
HETATM    8  C8    D T9001       3.643  13.466   2.179  1.00 24.59     0.200 A 
HETATM    9  N9    D T9001       2.593  12.726   1.762  1.00 25.70    -0.205 NA
HETATM   10  C10   D T9001       1.982  13.085   0.579  1.00 27.48     0.166 A 
ENDROOT
BRANCH  10  11
HETATM   11  N14   D T9001       0.864  12.326   0.110  1.00 23.22    -0.227 NA
BRANCH  11  12
HETATM   12  C15   D T9001      -0.497  12.725   0.119  1.00 24.25     0.084 A 
HETATM   13  C16   D T9001      -1.267  12.812  -1.086  1.00 25.06     0.033 A 
HETATM   14  C17   D T9001      -2.610  13.215  -1.063  1.00 28.28     0.087 A 
HETATM   15  C18   D T9001      -3.228  13.544   0.168  1.00 25.55     0.151 A 
HETATM   16 CL     D T9001      -3.467  13.302  -2.555  1.00 31.70    -0.080 Cl
HETATM   17  C19   D T9001      -2.495  13.467   1.379  1.00 24.70     0.032 A 
HETATM   18  F21   D T9001      -4.510  13.934   0.211  1.00 27.22    -0.203 F 
HETATM   19  C20   D T9001      -1.133  13.057   1.353  1.00 24.32     0.021 A 
ENDBRANCH  11  12
ENDBRANCH  10  11
BRANCH   1  20
HETATM   20  N13   D T9001       1.910  16.211  -3.358  1.00 34.61    -0.210 NA
HETATM   21  C26   D T9001       0.768  17.026  -3.444  1.00 36.24     0.256 C 
HETATM   22  O27   D T9001       0.100  17.438  -2.494  1.00 39.97    -0.270 OA
BRANCH  21  23
HETATM   23  C24   D T9001       0.393  17.334  -4.884  1.00 35.38     0.092 C 
BRANCH  23  24
HETATM   24  C23   D T9001      -0.823  18.270  -4.982  1.00 34.93     0.051 C 
BRANCH  24  25
HETATM   25  C25   D T9001      -0.973  18.751  -6.430  1.00 37.23     0.339 C 
HETATM   26  N33   D T9001      -2.322  18.366  -6.988  1.00 41.10     0.618 N 
ENDBRANCH  24  25
ENDBRANCH  23  24
ENDBRANCH  21  23
ENDBRANCH   1  20
BRANCH   2  27
HETATM   27  O11   D T9001       3.967  17.576  -2.280  1.00 31.09    -0.327 OA
HETATM   28  C12   D T9001       5.320  17.635  -2.736  1.00 29.66     0.181 C 
ENDBRANCH   2  27
TORSDOF 7
ENDMDL
MODEL 6
REMARK VINA RESULT:    -7.024      3.848      7.941
REMARK INTER + INTRA:         -10.985
REMARK INTER:                 -10.045
REMARK INTRA:                  -0.940
REMARK UNBOUND:                -1.086
REMARK  7 active torsions:
REMARK  status: ('A' for Active; 'I' for Inactive)
REMARK    1  A    between atoms: C1_1  and  N13_22 
REMARK    2  A    between atoms: C2_2  and  O11_20 
REMARK    3  A    between atoms: C10_10  and  N14_11 
REMARK    4  A    between atoms: N14_11  and  C15_12 
REMARK       I    between atoms: N13_22  and  C26_23 
REMARK    5  A    between atoms: C26_23  and  C24_24 
REMARK    6  A    between atoms: C24_24  and  C23_25 
REMARK    7  A    between atoms: C23_25  and  C25_26 
ROOT
HETATM    1  C1    D T9001       2.751  13.734   0.921  1.00 30.38     0.107 A 
HETATM    2  C2    D T9001       1.852  12.743   1.442  1.00 29.65     0.113 A 
HETATM    3  C3    D T9001       0.633  12.480   0.738  1.00 28.21     0.045 A 
HETATM    4  C4    D T9001       0.290  13.165  -0.445  1.00 27.21     0.088 A 
HETATM    5  C5    D T9001       1.187  14.172  -0.958  1.00 26.27     0.055 A 
HETATM    6  C6    D T9001       2.407  14.439  -0.266  1.00 29.22     0.026 A 
HETATM    7  N7    D T9001      -0.880  12.848  -1.055  1.00 25.99    -0.224 NA
HETATM    8  C8    D T9001      -1.181  13.524  -2.182  1.00 24.59     0.200 A 
HETATM    9  N9    D T9001      -0.432  14.489  -2.756  1.00 25.70    -0.205 NA
HETATM   10  C10   D T9001       0.760  14.825  -2.149  1.00 27.48     0.166 A 
ENDROOT
BRANCH  10  11
HETATM   11  N14   D T9001       1.577  15.848  -2.727  1.00 23.22    -0.227 NA
BRANCH  11  12
HETATM   12  C15   D T9001       2.335  15.755  -3.923  1.00 24.25     0.084 A 
HETATM   13  C16   D T9001       3.717  15.377  -3.914  1.00 25.06     0.033 A 
HETATM   14  C17   D T9001       4.456  15.297  -5.102  1.00 28.28     0.087 A 
HETATM   15  C18   D T9001       3.836  15.592  -6.341  1.00 25.55     0.151 A 
HETATM   16 CL     D T9001       6.115  14.842  -5.009  1.00 31.70    -0.080 Cl
HETATM   17  C19   D T9001       2.470  15.968  -6.385  1.00 24.70     0.032 A 
HETATM   18  F21   D T9001       4.526  15.524  -7.489  1.00 27.22    -0.203 F 
HETATM   19  C20   D T9001       1.722  16.049  -5.178  1.00 24.32     0.021 A 
ENDBRANCH  11  12
ENDBRANCH  10  11
BRANCH   1  20
HETATM   20  N13   D T9001       3.973  13.954   1.618  1.00 34.61    -0.210 NA
HETATM   21  C26   D T9001       5.209  13.537   1.093  1.00 36.24     0.256 C 
HETATM   22  O27   D T9001       5.381  12.962   0.018  1.00 39.97    -0.270 OA
BRANCH  21  23
HETATM   23  C24   D T9001       6.361  13.841   2.036  1.00 35.38     0.092 C 
BRANCH  23  24
HETATM   24  C23   D T9001       6.272  13.039   3.345  1.00 34.93     0.051 C 
BRANCH  24  25
HETATM   25  C25   D T9001       7.658  12.983   3.997  1.00 37.23     0.339 C 
HETATM   26  N33   D T9001       8.693  12.481   3.020  1.00 41.10     0.618 N 
ENDBRANCH  24  25
ENDBRANCH  23  24
ENDBRANCH  21  23
ENDBRANCH   1  20
BRANCH   2  27
HETATM   27  O11   D T9001       2.271  12.119   2.613  1.00 31.09    -0.327 OA
HETATM   28  C12   D T9001       1.820  10.797   2.919  1.00 29.66     0.181 C 
ENDBRANCH   2  27
TORSDOF 7
ENDMDL
MODEL 7
REMARK VINA RESULT:    -6.856      3.691      5.576
REMARK INTER + INTRA:         -10.748
REMARK INTER:                  -9.846
REMARK INTRA:                  -0.902
REMARK UNBOUND:                -1.086
REMARK  7 active torsions:
REMARK  status: ('A' for Active; 'I' for Inactive)
REMARK    1  A    between atoms: C1_1  and  N13_22 
REMARK    2  A    between atoms: C2_2  and  O11_20 
REMARK    3  A    between atoms: C10_10  and  N14_11 
REMARK    4  A    between atoms: N14_11  and  C15_12 
REMARK       I    between atoms: N13_22  and  C26_23 
REMARK    5  A    between atoms: C26_23  and  C24_24 
REMARK    6  A    between atoms: C24_24  and  C23_25 
REMARK    7  A    between atoms: C23_25  and  C25_26 
ROOT
HETATM    1  C1    D T9001       2.070  14.922  -1.865  1.00 30.38     0.107 A 
HETATM    2  C2    D T9001       0.792  14.282  -1.724  1.00 29.65     0.113 A 
HETATM    3  C3    D T9001       0.526  13.527  -0.537  1.00 28.21     0.045 A 
HETATM    4  C4    D T9001       1.479  13.391   0.492  1.00 27.21     0.088 A 
HETATM    5  C5    D T9001       2.769  14.022   0.342  1.00 26.27     0.055 A 
HETATM    6  C6    D T9001       3.042  14.780  -0.836  1.00 29.22     0.026 A 
HETATM    7  N7    D T9001       1.143  12.666   1.589  1.00 25.99    -0.224 NA
HETATM    8  C8    D T9001       2.078  12.552   2.554  1.00 24.59     0.200 A 
HETATM    9  N9    D T9001       3.318  13.086   2.528  1.00 25.70    -0.205 NA
HETATM   10  C10   D T9001       3.677  13.826   1.420  1.00 27.48     0.166 A 
ENDROOT
BRANCH  10  11
HETATM   11  N14   D T9001       4.986  14.401   1.357  1.00 23.22    -0.227 NA
BRANCH  11  12
HETATM   12  C15   D T9001       6.212  13.760   1.667  1.00 24.25     0.084 A 
HETATM   13  C16   D T9001       6.782  13.814   2.981  1.00 25.06     0.033 A 
HETATM   14  C17   D T9001       7.998  13.181   3.272  1.00 28.28     0.087 A 
HETATM   15  C18   D T9001       8.686  12.471   2.258  1.00 25.55     0.151 A 
HETATM   16 CL     D T9001       8.622  13.298   4.874  1.00 31.70    -0.080 Cl
HETATM   17  C19   D T9001       8.149  12.397   0.948  1.00 24.70     0.032 A 
HETATM   18  F21   D T9001       9.852  11.861   2.516  1.00 27.22    -0.203 F 
HETATM   19  C20   D T9001       6.915  13.039   0.655  1.00 24.32     0.021 A 
ENDBRANCH  11  12
ENDBRANCH  10  11
BRANCH   1  20
HETATM   20  N13   D T9001       2.298  15.697  -3.037  1.00 34.61    -0.210 NA
HETATM   21  C26   D T9001       2.206  17.099  -3.027  1.00 36.24     0.256 C 
HETATM   22  O27   D T9001       1.932  17.799  -2.051  1.00 39.97    -0.270 OA
BRANCH  21  23
HETATM   23  C24   D T9001       2.448  17.697  -4.403  1.00 35.38     0.092 C 
BRANCH  23  24
HETATM   24  C23   D T9001       1.379  17.268  -5.422  1.00 34.93     0.051 C 
BRANCH  24  25
HETATM   25  C25   D T9001       0.056  17.969  -5.090  1.00 37.23     0.339 C 
HETATM   26  N33   D T9001      -0.448  18.754  -6.276  1.00 41.10     0.618 N 
ENDBRANCH  24  25
ENDBRANCH  23  24
ENDBRANCH  21  23
ENDBRANCH   1  20
BRANCH   2  27
HETATM   27  O11   D T9001      -0.086  14.469  -2.788  1.00 31.09    -0.327 OA
HETATM   28  C12   D T9001      -1.486  14.239  -2.609  1.00 29.66     0.181 C 
ENDBRANCH   2  27
TORSDOF 7
ENDMDL
MODEL 8
REMARK VINA RESULT:    -6.800      3.471      6.894
REMARK INTER + INTRA:         -10.670
REMARK INTER:                 -10.247
REMARK INTRA:                  -0.423
REMARK UNBOUND:                -1.086
REMARK  7 active torsions:
REMARK  status: ('A' for Active; 'I' for Inactive)
REMARK    1  A    between atoms: C1_1  and  N13_22 
REMARK    2  A    between atoms: C2_2  and  O11_20 
REMARK    3  A    between atoms: C10_10  and  N14_11 
REMARK    4  A    between atoms: N14_11  and  C15_12 
REMARK       I    between atoms: N13_22  and  C26_23 
REMARK    5  A    between atoms: C26_23  and  C24_24 
REMARK    6  A    between atoms: C24_24  and  C23_25 
REMARK    7  A    between atoms: C23_25  and  C25_26 
ROOT
HETATM    1  C1    D T9001       2.430  14.131  -0.329  1.00 30.38     0.107 A 
HETATM    2  C2    D T9001       3.715  14.202   0.307  1.00 29.65     0.113 A 
HETATM    3  C3    D T9001       4.693  15.110  -0.212  1.00 28.21     0.045 A 
HETATM    4  C4    D T9001       4.433  15.930  -1.329  1.00 27.21     0.088 A 
HETATM    5  C5    D T9001       3.146  15.846  -1.977  1.00 26.27     0.055 A 
HETATM    6  C6    D T9001       2.163  14.947  -1.464  1.00 29.22     0.026 A 
HETATM    7  N7    D T9001       5.411  16.769  -1.752  1.00 25.99    -0.224 NA
HETATM    8  C8    D T9001       5.133  17.538  -2.824  1.00 24.59     0.200 A 
HETATM    9  N9    D T9001       3.975  17.546  -3.520  1.00 25.70    -0.205 NA
HETATM   10  C10   D T9001       2.969  16.698  -3.104  1.00 27.48     0.166 A 
ENDROOT
BRANCH  10  11
HETATM   11  N14   D T9001       1.731  16.676  -3.821  1.00 23.22    -0.227 NA
BRANCH  11  12
HETATM   12  C15   D T9001       0.661  17.598  -3.696  1.00 24.25     0.084 A 
HETATM   13  C16   D T9001      -0.207  17.901  -4.795  1.00 25.06     0.033 A 
HETATM   14  C17   D T9001      -1.257  18.821  -4.659  1.00 28.28     0.087 A 
HETATM   15  C18   D T9001      -1.474  19.468  -3.419  1.00 25.55     0.151 A 
HETATM   16 CL     D T9001      -2.254  19.136  -6.029  1.00 31.70    -0.080 Cl
HETATM   17  C19   D T9001      -0.634  19.190  -2.311  1.00 24.70     0.032 A 
HETATM   18  F21   D T9001      -2.471  20.352  -3.270  1.00 27.22    -0.203 F 
HETATM   19  C20   D T9001       0.431  18.257  -2.450  1.00 24.32     0.021 A 
ENDBRANCH  11  12
ENDBRANCH  10  11
BRANCH   1  20
HETATM   20  N13   D T9001       1.462  13.248   0.227  1.00 34.61    -0.210 NA
HETATM   21  C26   D T9001       0.109  13.299  -0.152  1.00 36.24     0.256 C 
HETATM   22  O27   D T9001      -0.383  14.074  -0.974  1.00 39.97    -0.270 OA
BRANCH  21  23
HETATM   23  C24   D T9001      -0.736  12.290   0.609  1.00 35.38     0.092 C 
BRANCH  23  24
HETATM   24  C23   D T9001      -0.072  10.905   0.673  1.00 34.93     0.051 C 
BRANCH  24  25
HETATM   25  C25   D T9001       0.124  10.507   2.140  1.00 37.23     0.339 C 
HETATM   26  N33   D T9001       1.555  10.722   2.570  1.00 41.10     0.618 N 
ENDBRANCH  24  25
ENDBRANCH  23  24
ENDBRANCH  21  23
ENDBRANCH   1  20
BRANCH   2  27
HETATM   27  O11   D T9001       3.884  13.357   1.400  1.00 31.09    -0.327 OA
HETATM   28  C12   D T9001       5.196  13.085   1.898  1.00 29.66     0.181 C 
ENDBRANCH   2  27
TORSDOF 7
ENDMDL
MODEL 9
REMARK VINA RESULT:    -6.782      3.372      5.813
REMARK INTER + INTRA:         -10.643
REMARK INTER:                  -9.686
REMARK INTRA:                  -0.957
REMARK UNBOUND:                -1.086
REMARK  7 active torsions:
REMARK  status: ('A' for Active; 'I' for Inactive)
REMARK    1  A    between atoms: C1_1  and  N13_22 
REMARK    2  A    between atoms: C2_2  and  O11_20 
REMARK    3  A    between atoms: C10_10  and  N14_11 
REMARK    4  A    between atoms: N14_11  and  C15_12 
REMARK       I    between atoms: N13_22  and  C26_23 
REMARK    5  A    between atoms: C26_23  and  C24_24 
REMARK    6  A    between atoms: C24_24  and  C23_25 
REMARK    7  A    between atoms: C23_25  and  C25_26 
ROOT
HETATM    1  C1    D T9001       2.453  13.271   1.161  1.00 30.38     0.107 A 
HETATM    2  C2    D T9001       3.260  12.852   2.272  1.00 29.65     0.113 A 
HETATM    3  C3    D T9001       4.685  12.913   2.152  1.00 28.21     0.045 A 
HETATM    4  C4    D T9001       5.318  13.365   0.976  1.00 27.21     0.088 A 
HETATM    5  C5    D T9001       4.506  13.771  -0.146  1.00 26.27     0.055 A 
HETATM    6  C6    D T9001       3.084  13.718  -0.034  1.00 29.22     0.026 A 
HETATM    7  N7    D T9001       6.674  13.400   0.947  1.00 25.99    -0.224 NA
HETATM    8  C8    D T9001       7.248  13.835  -0.193  1.00 24.59     0.200 A 
HETATM    9  N9    D T9001       6.601  14.231  -1.309  1.00 25.70    -0.205 NA
HETATM   10  C10   D T9001       5.222  14.202  -1.298  1.00 27.48     0.166 A 
ENDROOT
BRANCH  10  11
HETATM   11  N14   D T9001       4.504  14.611  -2.466  1.00 23.22    -0.227 NA
BRANCH  11  12
HETATM   12  C15   D T9001       3.490  15.601  -2.537  1.00 24.25     0.084 A 
HETATM   13  C16   D T9001       2.160  15.289  -2.969  1.00 25.06     0.033 A 
HETATM   14  C17   D T9001       1.169  16.279  -3.041  1.00 28.28     0.087 A 
HETATM   15  C18   D T9001       1.476  17.614  -2.682  1.00 25.55     0.151 A 
HETATM   16 CL     D T9001      -0.405  15.827  -3.576  1.00 31.70    -0.080 Cl
HETATM   17  C19   D T9001       2.782  17.955  -2.249  1.00 24.70     0.032 A 
HETATM   18  F21   D T9001       0.543  18.575  -2.747  1.00 27.22    -0.203 F 
HETATM   19  C20   D T9001       3.786  16.950  -2.177  1.00 24.32     0.021 A 
ENDBRANCH  11  12
ENDBRANCH  10  11
BRANCH   1  20
HETATM   20  N13   D T9001       1.039  13.236   1.317  1.00 34.61    -0.210 NA
HETATM   21  C26   D T9001       0.265  12.174   0.819  1.00 36.24     0.256 C 
HETATM   22  O27   D T9001       0.693  11.187   0.218  1.00 39.97    -0.270 OA
BRANCH  21  23
HETATM   23  C24   D T9001      -1.219  12.382   1.068  1.00 35.38     0.092 C 
BRANCH  23  24
HETATM   24  C23   D T9001      -1.773  13.598   0.307  1.00 34.93     0.051 C 
BRANCH  24  25
HETATM   25  C25   D T9001      -1.486  13.428  -1.190  1.00 37.23     0.339 C 
HETATM   26  N33   D T9001      -2.770  13.382  -1.982  1.00 41.10     0.618 N 
ENDBRANCH  24  25
ENDBRANCH  23  24
ENDBRANCH  21  23
ENDBRANCH   1  20
BRANCH   2  27
HETATM   27  O11   D T9001       2.552  12.420   3.390  1.00 31.09    -0.327 OA
HETATM   28  C12   D T9001       2.942  11.221   4.064  1.00 29.66     0.181 C 
ENDBRANCH   2  27
TORSDOF 7
ENDMDL
