MODEL 1
REMARK VINA RESULT:    -7.214      0.000      0.000
REMARK INTER + INTRA:         -11.032
REMARK INTER:                 -10.166
REMARK INTRA:                  -0.866
REMARK UNBOUND:                -0.866
REMARK  7 active torsions:
REMARK  status: ('A' for Active; 'I' for Inactive)
REMARK    1  A    between atoms: C1_1  and  N13_22 
REMARK    2  A    between atoms: C2_2  and  O11_20 
REMARK    3  A    between atoms: C10_10  and  N14_11 
REMARK    4  A    between atoms: N14_11  and  C15_12 
REMARK       I    between atoms: N13_22  and  C26_23 
REMARK    5  A    between atoms: C26_23  and  C24_24 
REMARK    6  A    between atoms: C24_24  and  C23_25 
REMARK    7  A    between atoms: C23_25  and  C25_26 
ROOT
HETATM    1  C1    D T9001       2.017   9.280   2.192  1.00 30.38     0.107 A 
HETATM    2  C2    D T9001       3.258   9.641   1.565  1.00 29.65     0.113 A 
HETATM    3  C3    D T9001       3.222  10.387   0.343  1.00 28.21     0.045 A 
HETATM    4  C4    D T9001       2.010  10.775  -0.261  1.00 27.21     0.088 A 
HETATM    5  C5    D T9001       0.763  10.399   0.362  1.00 26.27     0.055 A 
HETATM    6  C6    D T9001       0.789   9.657   1.582  1.00 29.22     0.026 A 
HETATM    7  N7    D T9001       2.064  11.488  -1.413  1.00 25.99    -0.224 NA
HETATM    8  C8    D T9001       0.887  11.842  -1.968  1.00 24.59     0.200 A 
HETATM    9  N9    D T9001      -0.339  11.544  -1.488  1.00 25.70    -0.205 NA
HETATM   10  C10   D T9001      -0.415  10.819  -0.318  1.00 27.48     0.166 A 
ENDROOT
BRANCH  10  11
HETATM   11  N14   D T9001      -1.699  10.482   0.216  1.00 23.22    -0.227 NA
BRANCH  11  12
HETATM   12  C15   D T9001      -2.847  11.312   0.253  1.00 24.25     0.084 A 
HETATM   13  C16   D T9001      -3.561  11.669  -0.936  1.00 25.06     0.033 A 
HETATM   14  C17   D T9001      -4.692  12.497  -0.886  1.00 28.28     0.087 A 
HETATM   15  C18   D T9001      -5.146  12.996   0.359  1.00 25.55     0.151 A 
HETATM   16 CL     D T9001      -5.492  12.885  -2.361  1.00 31.70    -0.080 Cl
HETATM   17  C19   D T9001      -4.464  12.663   1.555  1.00 24.70     0.032 A 
HETATM   18  F21   D T9001      -6.223  13.793   0.428  1.00 27.22    -0.203 F 
HETATM   19  C20   D T9001      -3.317  11.821   1.502  1.00 24.32     0.021 A 
ENDBRANCH  11  12
ENDBRANCH  10  11
BRANCH   1  20
HETATM   20  N13   D T9001       2.077   8.570   3.424  1.00 34.61    -0.210 NA
HETATM   21  C26   D T9001       1.981   9.227   4.663  1.00 36.24     0.256 C 
HETATM   22  O27   D T9001       1.835  10.438   4.829  1.00 39.97    -0.270 OA
BRANCH  21  23
HETATM   23  C24   D T9001       2.115   8.265   5.832  1.00 35.38     0.092 C 
BRANCH  23  24
HETATM   24  C23   D T9001       3.581   8.050   6.243  1.00 34.93     0.051 C 
BRANCH  24  25
HETATM   25  C25   D T9001       4.012   6.632   5.847  1.00 37.23     0.339 C 
HETATM   26  N33   D T9001       4.767   6.644   4.541  1.00 41.10     0.618 N 
ENDBRANCH  24  25
ENDBRANCH  23  24
ENDBRANCH  21  23
ENDBRANCH   1  20
BRANCH   2  27
HETATM   27  O11   D T9001       4.404   9.216   2.230  1.00 31.09    -0.327 OA
HETATM   28  C12   D T9001       5.241  10.166   2.892  1.00 29.66     0.181 C 
ENDBRANCH   2  27
TORSDOF 7
ENDMDL
MODEL 2
REMARK VINA RESULT:    -7.205      4.468      8.176
REMARK INTER + INTRA:         -11.019
REMARK INTER:                 -10.015
REMARK INTRA:                  -1.005
REMARK UNBOUND:                -0.866
REMARK  7 active torsions:
REMARK  status: ('A' for Active; 'I' for Inactive)
REMARK    1  A    between atoms: C1_1  and  N13_22 
REMARK    2  A    between atoms: C2_2  and  O11_20 
REMARK    3  A    between atoms: C10_10  and  N14_11 
REMARK    4  A    between atoms: N14_11  and  C15_12 
REMARK       I    between atoms: N13_22  and  C26_23 
REMARK    5  A    between atoms: C26_23  and  C24_24 
REMARK    6  A    between atoms: C24_24  and  C23_25 
REMARK    7  A    between atoms: C23_25  and  C25_26 
ROOT
HETATM    1  C1    D T9001      -0.443  10.240   0.357  1.00 30.38     0.107 A 
HETATM    2  C2    D T9001      -0.725   9.728  -0.955  1.00 29.65     0.113 A 
HETATM    3  C3    D T9001       0.264   8.924  -1.609  1.00 28.21     0.045 A 
HETATM    4  C4    D T9001       1.502   8.624  -1.005  1.00 27.21     0.088 A 
HETATM    5  C5    D T9001       1.789   9.151   0.307  1.00 26.27     0.055 A 
HETATM    6  C6    D T9001       0.808   9.952   0.968  1.00 29.22     0.026 A 
HETATM    7  N7    D T9001       2.378   7.847  -1.688  1.00 25.99    -0.224 NA
HETATM    8  C8    D T9001       3.555   7.580  -1.085  1.00 24.59     0.200 A 
HETATM    9  N9    D T9001       3.943   8.021   0.130  1.00 25.70    -0.205 NA
HETATM   10  C10   D T9001       3.064   8.812   0.840  1.00 27.48     0.166 A 
ENDROOT
BRANCH  10  11
HETATM   11  N14   D T9001       3.446   9.299   2.130  1.00 23.22    -0.227 NA
BRANCH  11  12
HETATM   12  C15   D T9001       3.512   8.555   3.334  1.00 24.25     0.084 A 
HETATM   13  C16   D T9001       2.681   8.863   4.460  1.00 25.06     0.033 A 
HETATM   14  C17   D T9001       2.762   8.123   5.648  1.00 28.28     0.087 A 
HETATM   15  C18   D T9001       3.677   7.048   5.749  1.00 25.55     0.151 A 
HETATM   16 CL     D T9001       1.733   8.560   6.959  1.00 31.70    -0.080 Cl
HETATM   17  C19   D T9001       4.514   6.715   4.655  1.00 24.70     0.032 A 
HETATM   18  F21   D T9001       3.772   6.330   6.879  1.00 27.22    -0.203 F 
HETATM   19  C20   D T9001       4.430   7.467   3.449  1.00 24.32     0.021 A 
ENDBRANCH  11  12
ENDBRANCH  10  11
BRANCH   1  20
HETATM   20  N13   D T9001      -1.455  11.007   1.001  1.00 34.61    -0.210 NA
HETATM   21  C26   D T9001      -1.494  12.408   0.909  1.00 36.24     0.256 C 
HETATM   22  O27   D T9001      -0.699  13.114   0.286  1.00 39.97    -0.270 OA
BRANCH  21  23
HETATM   23  C24   D T9001      -2.637  13.003   1.714  1.00 35.38     0.092 C 
BRANCH  23  24
HETATM   24  C23   D T9001      -3.551  13.895   0.856  1.00 34.93     0.051 C 
BRANCH  24  25
HETATM   25  C25   D T9001      -4.326  13.017  -0.133  1.00 37.23     0.339 C 
HETATM   26  N33   D T9001      -5.713  13.562  -0.366  1.00 41.10     0.618 N 
ENDBRANCH  24  25
ENDBRANCH  23  24
ENDBRANCH  21  23
ENDBRANCH   1  20
BRANCH   2  27
HETATM   27  O11   D T9001      -1.968  10.075  -1.473  1.00 31.09    -0.327 OA
HETATM   28  C12   D T9001      -2.056  10.978  -2.578  1.00 29.66     0.181 C 
ENDBRANCH   2  27
TORSDOF 7
ENDMDL
MODEL 3
REMARK VINA RESULT:    -7.161      4.092      7.678
REMARK INTER + INTRA:         -10.958
REMARK INTER:                  -9.810
REMARK INTRA:                  -1.147
REMARK UNBOUND:                -0.866
REMARK  7 active torsions:
REMARK  status: ('A' for Active; 'I' for Inactive)
REMARK    1  A    between atoms: C1_1  and  N13_22 
REMARK    2  A    between atoms: C2_2  and  O11_20 
REMARK    3  A    between atoms: C10_10  and  N14_11 
REMARK    4  A    between atoms: N14_11  and  C15_12 
REMARK       I    between atoms: N13_22  and  C26_23 
REMARK    5  A    between atoms: C26_23  and  C24_24 
REMARK    6  A    between atoms: C24_24  and  C23_25 
REMARK    7  A    between atoms: C23_25  and  C25_26 
ROOT
HETATM    1  C1    D T9001       1.789   8.639   2.667  1.00 30.38     0.107 A 
HETATM    2  C2    D T9001       2.828   7.821   2.107  1.00 29.65     0.113 A 
HETATM    3  C3    D T9001       4.090   7.752   2.780  1.00 28.21     0.045 A 
HETATM    4  C4    D T9001       4.343   8.462   3.971  1.00 27.21     0.088 A 
HETATM    5  C5    D T9001       3.302   9.295   4.525  1.00 26.27     0.055 A 
HETATM    6  C6    D T9001       2.039   9.369   3.862  1.00 29.22     0.026 A 
HETATM    7  N7    D T9001       5.561   8.334   4.550  1.00 25.99    -0.224 NA
HETATM    8  C8    D T9001       5.773   9.029   5.686  1.00 24.59     0.200 A 
HETATM    9  N9    D T9001       4.887   9.845   6.295  1.00 25.70    -0.205 NA
HETATM   10  C10   D T9001       3.641   9.988   5.721  1.00 27.48     0.166 A 
ENDROOT
BRANCH  10  11
HETATM   11  N14   D T9001       2.680  10.849   6.338  1.00 23.22    -0.227 NA
BRANCH  11  12
HETATM   12  C15   D T9001       1.785  10.512   7.384  1.00 24.25     0.084 A 
HETATM   13  C16   D T9001       0.392  10.842   7.322  1.00 25.06     0.033 A 
HETATM   14  C17   D T9001      -0.482  10.509   8.367  1.00 28.28     0.087 A 
HETATM   15  C18   D T9001       0.009   9.832   9.509  1.00 25.55     0.151 A 
HETATM   16 CL     D T9001      -2.142  10.946   8.220  1.00 31.70    -0.080 Cl
HETATM   17  C19   D T9001       1.382   9.490   9.603  1.00 24.70     0.032 A 
HETATM   18  F21   D T9001      -0.810   9.508  10.521  1.00 27.22    -0.203 F 
HETATM   19  C20   D T9001       2.267   9.829   8.541  1.00 24.32     0.021 A 
ENDBRANCH  11  12
ENDBRANCH  10  11
BRANCH   1  20
HETATM   20  N13   D T9001       0.532   8.664   2.001  1.00 34.61    -0.210 NA
HETATM   21  C26   D T9001       0.222   9.641   1.040  1.00 36.24     0.256 C 
HETATM   22  O27   D T9001       0.964  10.552   0.670  1.00 39.97    -0.270 OA
BRANCH  21  23
HETATM   23  C24   D T9001      -1.191   9.487   0.501  1.00 35.38     0.092 C 
BRANCH  23  24
HETATM   24  C23   D T9001      -1.735  10.798  -0.089  1.00 34.93     0.051 C 
BRANCH  24  25
HETATM   25  C25   D T9001      -2.501  11.561   0.999  1.00 37.23     0.339 C 
HETATM   26  N33   D T9001      -1.751  12.802   1.416  1.00 41.10     0.618 N 
ENDBRANCH  24  25
ENDBRANCH  23  24
ENDBRANCH  21  23
ENDBRANCH   1  20
BRANCH   2  27
HETATM   27  O11   D T9001       2.492   7.158   0.931  1.00 31.09    -0.327 OA
HETATM   28  C12   D T9001       3.102   7.537  -0.304  1.00 29.66     0.181 C 
ENDBRANCH   2  27
TORSDOF 7
ENDMDL
MODEL 4
REMARK VINA RESULT:    -7.098      4.627      8.396
REMARK INTER + INTRA:         -10.869
REMARK INTER:                 -10.066
REMARK INTRA:                  -0.803
REMARK UNBOUND:                -0.866
REMARK  7 active torsions:
REMARK  status: ('A' for Active; 'I' for Inactive)
REMARK    1  A    between atoms: C1_1  and  N13_22 
REMARK    2  A    between atoms: C2_2  and  O11_20 
REMARK    3  A    between atoms: C10_10  and  N14_11 
REMARK    4  A    between atoms: N14_11  and  C15_12 
REMARK       I    between atoms: N13_22  and  C26_23 
REMARK    5  A    between atoms: C26_23  and  C24_24 
REMARK    6  A    between atoms: C24_24  and  C23_25 
REMARK    7  A    between atoms: C23_25  and  C25_26 
ROOT
HETATM    1  C1    D T9001      -1.870  10.900  -0.318  1.00 30.38     0.107 A 
HETATM    2  C2    D T9001      -1.515  11.058  -1.701  1.00 29.65     0.113 A 
HETATM    3  C3    D T9001      -0.255  10.548  -2.152  1.00 28.21     0.045 A 
HETATM    4  C4    D T9001       0.645   9.901  -1.282  1.00 27.21     0.088 A 
HETATM    5  C5    D T9001       0.292   9.755   0.110  1.00 26.27     0.055 A 
HETATM    6  C6    D T9001      -0.963  10.258   0.569  1.00 29.22     0.026 A 
HETATM    7  N7    D T9001       1.812   9.439  -1.792  1.00 25.99    -0.224 NA
HETATM    8  C8    D T9001       2.653   8.826  -0.934  1.00 24.59     0.200 A 
HETATM    9  N9    D T9001       2.443   8.638   0.387  1.00 25.70    -0.205 NA
HETATM   10  C10   D T9001       1.260   9.101   0.924  1.00 27.48     0.166 A 
ENDROOT
BRANCH  10  11
HETATM   11  N14   D T9001       1.008   8.922   2.321  1.00 23.22    -0.227 NA
BRANCH  11  12
HETATM   12  C15   D T9001       1.910   9.172   3.385  1.00 24.25     0.084 A 
HETATM   13  C16   D T9001       2.813   8.167   3.861  1.00 25.06     0.033 A 
HETATM   14  C17   D T9001       3.695   8.425   4.921  1.00 28.28     0.087 A 
HETATM   15  C18   D T9001       3.703   9.698   5.539  1.00 25.55     0.151 A 
HETATM   16 CL     D T9001       4.747   7.163   5.439  1.00 31.70    -0.080 Cl
HETATM   17  C19   D T9001       2.822  10.715   5.093  1.00 24.70     0.032 A 
HETATM   18  F21   D T9001       4.536   9.963   6.556  1.00 27.22    -0.203 F 
HETATM   19  C20   D T9001       1.928  10.452   4.017  1.00 24.32     0.021 A 
ENDBRANCH  11  12
ENDBRANCH  10  11
BRANCH   1  20
HETATM   20  N13   D T9001      -3.143  11.382   0.100  1.00 34.61    -0.210 NA
HETATM   21  C26   D T9001      -3.308  12.673   0.629  1.00 36.24     0.256 C 
HETATM   22  O27   D T9001      -2.417  13.509   0.787  1.00 39.97    -0.270 OA
BRANCH  21  23
HETATM   23  C24   D T9001      -4.745  12.943   1.042  1.00 35.38     0.092 C 
BRANCH  23  24
HETATM   24  C23   D T9001      -5.587  13.508  -0.114  1.00 34.93     0.051 C 
BRANCH  24  25
HETATM   25  C25   D T9001      -7.061  13.543   0.307  1.00 37.23     0.339 C 
HETATM   26  N33   D T9001      -7.958  13.137  -0.837  1.00 41.10     0.618 N 
ENDBRANCH  24  25
ENDBRANCH  23  24
ENDBRANCH  21  23
ENDBRANCH   1  20
BRANCH   2  27
HETATM   27  O11   D T9001      -2.461  11.710  -2.485  1.00 31.09    -0.327 OA
HETATM   28  C12   D T9001      -2.275  11.807  -3.899  1.00 29.66     0.181 C 
ENDBRANCH   2  27
TORSDOF 7
ENDMDL
MODEL 5
REMARK VINA RESULT:    -7.090      1.745      2.219
REMARK INTER + INTRA:         -10.857
REMARK INTER:                  -9.804
REMARK INTRA:                  -1.053
REMARK UNBOUND:                -0.866
REMARK  7 active torsions:
REMARK  status: ('A' for Active; 'I' for Inactive)
REMARK    1  A    between atoms: C1_1  and  N13_22 
REMARK    2  A    between atoms: C2_2  and  O11_20 
REMARK    3  A    between atoms: C10_10  and  N14_11 
REMARK    4  A    between atoms: N14_11  and  C15_12 
REMARK       I    between atoms: N13_22  and  C26_23 
REMARK    5  A    between atoms: C26_23  and  C24_24 
REMARK    6  A    between atoms: C24_24  and  C23_25 
REMARK    7  A    between atoms: C23_25  and  C25_26 
ROOT
HETATM    1  C1    D T9001       1.871   9.405   0.915  1.00 30.38     0.107 A 
HETATM    2  C2    D T9001       3.155   9.729   0.357  1.00 29.65     0.113 A 
HETATM    3  C3    D T9001       3.208  10.393  -0.910  1.00 28.21     0.045 A 
HETATM    4  C4    D T9001       2.043  10.735  -1.625  1.00 27.21     0.088 A 
HETATM    5  C5    D T9001       0.755  10.396  -1.071  1.00 26.27     0.055 A 
HETATM    6  C6    D T9001       0.691   9.736   0.194  1.00 29.22     0.026 A 
HETATM    7  N7    D T9001       2.182  11.371  -2.814  1.00 25.99    -0.224 NA
HETATM    8  C8    D T9001       1.049  11.682  -3.476  1.00 24.59     0.200 A 
HETATM    9  N9    D T9001      -0.209  11.411  -3.068  1.00 25.70    -0.205 NA
HETATM   10  C10   D T9001      -0.371  10.765  -1.861  1.00 27.48     0.166 A 
ENDROOT
BRANCH  10  11
HETATM   11  N14   D T9001      -1.690  10.458  -1.401  1.00 23.22    -0.227 NA
BRANCH  11  12
HETATM   12  C15   D T9001      -2.753  11.374  -1.198  1.00 24.25     0.084 A 
HETATM   13  C16   D T9001      -2.865  12.148   0.001  1.00 25.06     0.033 A 
HETATM   14  C17   D T9001      -3.926  13.045   0.192  1.00 28.28     0.087 A 
HETATM   15  C18   D T9001      -4.911  13.198  -0.813  1.00 25.55     0.151 A 
HETATM   16 CL     D T9001      -3.994  13.936   1.665  1.00 31.70    -0.080 Cl
HETATM   17  C19   D T9001      -4.830  12.448  -2.013  1.00 24.70     0.032 A 
HETATM   18  F21   D T9001      -5.936  14.048  -0.649  1.00 27.22    -0.203 F 
HETATM   19  C20   D T9001      -3.753  11.538  -2.205  1.00 24.32     0.021 A 
ENDBRANCH  11  12
ENDBRANCH  10  11
BRANCH   1  20
HETATM   20  N13   D T9001       1.841   8.778   2.192  1.00 34.61    -0.210 NA
HETATM   21  C26   D T9001       1.792   9.523   3.383  1.00 36.24     0.256 C 
HETATM   22  O27   D T9001       1.767  10.752   3.465  1.00 39.97    -0.270 OA
BRANCH  21  23
HETATM   23  C24   D T9001       1.812   8.635   4.615  1.00 35.38     0.092 C 
BRANCH  23  24
HETATM   24  C23   D T9001       2.751   9.174   5.707  1.00 34.93     0.051 C 
BRANCH  24  25
HETATM   25  C25   D T9001       1.944   9.425   6.987  1.00 37.23     0.339 C 
HETATM   26  N33   D T9001       1.119  10.683   6.866  1.00 41.10     0.618 N 
ENDBRANCH  24  25
ENDBRANCH  23  24
ENDBRANCH  21  23
ENDBRANCH   1  20
BRANCH   2  27
HETATM   27  O11   D T9001       4.249   9.354   1.130  1.00 31.09    -0.327 OA
HETATM   28  C12   D T9001       5.115  10.351   1.676  1.00 29.66     0.181 C 
ENDBRANCH   2  27
TORSDOF 7
ENDMDL
MODEL 6
REMARK VINA RESULT:    -6.908      3.816      6.048
REMARK INTER + INTRA:         -10.601
REMARK INTER:                  -9.635
REMARK INTRA:                  -0.967
REMARK UNBOUND:                -0.866
REMARK  7 active torsions:
REMARK  status: ('A' for Active; 'I' for Inactive)
REMARK    1  A    between atoms: C1_1  and  N13_22 
REMARK    2  A    between atoms: C2_2  and  O11_20 
REMARK    3  A    between atoms: C10_10  and  N14_11 
REMARK    4  A    between atoms: N14_11  and  C15_12 
REMARK       I    between atoms: N13_22  and  C26_23 
REMARK    5  A    between atoms: C26_23  and  C24_24 
REMARK    6  A    between atoms: C24_24  and  C23_25 
REMARK    7  A    between atoms: C23_25  and  C25_26 
ROOT
HETATM    1  C1    D T9001       3.792   8.993  -1.773  1.00 30.38     0.107 A 
HETATM    2  C2    D T9001       4.745   9.119  -0.706  1.00 29.65     0.113 A 
HETATM    3  C3    D T9001       4.274   9.097   0.646  1.00 28.21     0.045 A 
HETATM    4  C4    D T9001       2.907   8.959   0.959  1.00 27.21     0.088 A 
HETATM    5  C5    D T9001       1.949   8.847  -0.114  1.00 26.27     0.055 A 
HETATM    6  C6    D T9001       2.409   8.865  -1.466  1.00 29.22     0.026 A 
HETATM    7  N7    D T9001       2.546   8.938   2.266  1.00 25.99    -0.224 NA
HETATM    8  C8    D T9001       1.231   8.808   2.533  1.00 24.59     0.200 A 
HETATM    9  N9    D T9001       0.241   8.705   1.621  1.00 25.70    -0.205 NA
HETATM   10  C10   D T9001       0.589   8.724   0.287  1.00 27.48     0.166 A 
ENDROOT
BRANCH  10  11
HETATM   11  N14   D T9001      -0.436   8.621  -0.706  1.00 23.22    -0.227 NA
BRANCH  11  12
HETATM   12  C15   D T9001      -1.380   9.619  -1.058  1.00 24.25     0.084 A 
HETATM   13  C16   D T9001      -1.372  10.245  -2.346  1.00 25.06     0.033 A 
HETATM   14  C17   D T9001      -2.307  11.236  -2.680  1.00 28.28     0.087 A 
HETATM   15  C18   D T9001      -3.283  11.632  -1.734  1.00 25.55     0.151 A 
HETATM   16 CL     D T9001      -2.228  11.946  -4.247  1.00 31.70    -0.080 Cl
HETATM   17  C19   D T9001      -3.320  11.032  -0.450  1.00 24.70     0.032 A 
HETATM   18  F21   D T9001      -4.184  12.581  -2.032  1.00 27.22    -0.203 F 
HETATM   19  C20   D T9001      -2.370  10.027  -0.114  1.00 24.32     0.021 A 
ENDBRANCH  11  12
ENDBRANCH  10  11
BRANCH   1  20
HETATM   20  N13   D T9001       4.287   8.981  -3.108  1.00 34.61    -0.210 NA
HETATM   21  C26   D T9001       4.554   7.780  -3.787  1.00 36.24     0.256 C 
HETATM   22  O27   D T9001       4.398   6.645  -3.338  1.00 39.97    -0.270 OA
BRANCH  21  23
HETATM   23  C24   D T9001       5.114   8.023  -5.179  1.00 35.38     0.092 C 
BRANCH  23  24
HETATM   24  C23   D T9001       5.164   6.737  -6.020  1.00 34.93     0.051 C 
BRANCH  24  25
HETATM   25  C25   D T9001       3.928   6.678  -6.926  1.00 37.23     0.339 C 
HETATM   26  N33   D T9001       2.950   5.639  -6.436  1.00 41.10     0.618 N 
ENDBRANCH  24  25
ENDBRANCH  23  24
ENDBRANCH  21  23
ENDBRANCH   1  20
BRANCH   2  27
HETATM   27  O11   D T9001       6.071   9.252  -1.108  1.00 31.09    -0.327 OA
HETATM   28  C12   D T9001       6.971  10.061  -0.348  1.00 29.66     0.181 C 
ENDBRANCH   2  27
TORSDOF 7
ENDMDL
MODEL 7
REMARK VINA RESULT:    -6.864      4.469      8.327
REMARK INTER + INTRA:         -10.539
REMARK INTER:                  -9.673
REMARK INTRA:                  -0.867
REMARK UNBOUND:                -0.866
REMARK  7 active torsions:
REMARK  status: ('A' for Active; 'I' for Inactive)
REMARK    1  A    between atoms: C1_1  and  N13_22 
REMARK    2  A    between atoms: C2_2  and  O11_20 
REMARK    3  A    between atoms: C10_10  and  N14_11 
REMARK    4  A    between atoms: N14_11  and  C15_12 
REMARK       I    between atoms: N13_22  and  C26_23 
REMARK    5  A    between atoms: C26_23  and  C24_24 
REMARK    6  A    between atoms: C24_24  and  C23_25 
REMARK    7  A    between atoms: C23_25  and  C25_26 
ROOT
HETATM    1  C1    D T9001      -0.118  10.962  -0.007  1.00 30.38     0.107 A 
HETATM    2  C2    D T9001       0.318  10.461  -1.282  1.00 29.65     0.113 A 
HETATM    3  C3    D T9001       1.236   9.363  -1.314  1.00 28.21     0.045 A 
HETATM    4  C4    D T9001       1.725   8.762  -0.137  1.00 27.21     0.088 A 
HETATM    5  C5    D T9001       1.298   9.275   1.143  1.00 26.27     0.055 A 
HETATM    6  C6    D T9001       0.381  10.369   1.185  1.00 29.22     0.026 A 
HETATM    7  N7    D T9001       2.583   7.720  -0.256  1.00 25.99    -0.224 NA
HETATM    8  C8    D T9001       3.036   7.168   0.888  1.00 24.59     0.200 A 
HETATM    9  N9    D T9001       2.720   7.563   2.140  1.00 25.70    -0.205 NA
HETATM   10  C10   D T9001       1.847   8.621   2.281  1.00 27.48     0.166 A 
ENDROOT
BRANCH  10  11
HETATM   11  N14   D T9001       1.495   9.068   3.594  1.00 23.22    -0.227 NA
BRANCH  11  12
HETATM   12  C15   D T9001       2.360   9.191   4.710  1.00 24.25     0.084 A 
HETATM   13  C16   D T9001       3.310  10.257   4.816  1.00 25.06     0.033 A 
HETATM   14  C17   D T9001       4.165  10.362   5.923  1.00 28.28     0.087 A 
HETATM   15  C18   D T9001       4.097   9.403   6.962  1.00 25.55     0.151 A 
HETATM   16 CL     D T9001       5.285  11.670   5.974  1.00 31.70    -0.080 Cl
HETATM   17  C19   D T9001       3.167   8.336   6.889  1.00 24.70     0.032 A 
HETATM   18  F21   D T9001       4.908   9.484   8.027  1.00 27.22    -0.203 F 
HETATM   19  C20   D T9001       2.300   8.231   5.766  1.00 24.32     0.021 A 
ENDBRANCH  11  12
ENDBRANCH  10  11
BRANCH   1  20
HETATM   20  N13   D T9001      -1.057  12.031   0.000  1.00 34.61    -0.210 NA
HETATM   21  C26   D T9001      -2.394  11.839   0.390  1.00 36.24     0.256 C 
HETATM   22  O27   D T9001      -2.894  10.775   0.759  1.00 39.97    -0.270 OA
BRANCH  21  23
HETATM   23  C24   D T9001      -3.213  13.114   0.274  1.00 35.38     0.092 C 
BRANCH  23  24
HETATM   24  C23   D T9001      -4.700  12.882   0.590  1.00 34.93     0.051 C 
BRANCH  24  25
HETATM   25  C25   D T9001      -5.553  13.489  -0.531  1.00 37.23     0.339 C 
HETATM   26  N33   D T9001      -5.312  12.776  -1.838  1.00 41.10     0.618 N 
ENDBRANCH  24  25
ENDBRANCH  23  24
ENDBRANCH  21  23
ENDBRANCH   1  20
BRANCH   2  27
HETATM   27  O11   D T9001      -0.215  11.115  -2.388  1.00 31.09    -0.327 OA
HETATM   28  C12   D T9001      -1.223  10.480  -3.178  1.00 29.66     0.181 C 
ENDBRANCH   2  27
TORSDOF 7
ENDMDL
MODEL 8
REMARK VINA RESULT:    -6.851      2.012      2.226
REMARK INTER + INTRA:         -10.521
REMARK INTER:                  -9.699
REMARK INTRA:                  -0.822
REMARK UNBOUND:                -0.866
REMARK  7 active torsions:
REMARK  status: ('A' for Active; 'I' for Inactive)
REMARK    1  A    between atoms: C1_1  and  N13_22 
REMARK    2  A    between atoms: C2_2  and  O11_20 
REMARK    3  A    between atoms: C10_10  and  N14_11 
REMARK    4  A    between atoms: N14_11  and  C15_12 
REMARK       I    between atoms: N13_22  and  C26_23 
REMARK    5  A    between atoms: C26_23  and  C24_24 
REMARK    6  A    between atoms: C24_24  and  C23_25 
REMARK    7  A    between atoms: C23_25  and  C25_26 
ROOT
HETATM    1  C1    D T9001       1.792   9.690   3.208  1.00 30.38     0.107 A 
HETATM    2  C2    D T9001       2.308   8.436   2.734  1.00 29.65     0.113 A 
HETATM    3  C3    D T9001       2.117   8.087   1.359  1.00 28.21     0.045 A 
HETATM    4  C4    D T9001       1.436   8.933   0.460  1.00 27.21     0.088 A 
HETATM    5  C5    D T9001       0.905  10.186   0.941  1.00 26.27     0.055 A 
HETATM    6  C6    D T9001       1.094  10.544   2.311  1.00 29.22     0.026 A 
HETATM    7  N7    D T9001       1.307   8.531  -0.828  1.00 25.99    -0.224 NA
HETATM    8  C8    D T9001       0.649   9.361  -1.663  1.00 24.59     0.200 A 
HETATM    9  N9    D T9001       0.101  10.550  -1.332  1.00 25.70    -0.205 NA
HETATM   10  C10   D T9001       0.222  10.975  -0.026  1.00 27.48     0.166 A 
ENDROOT
BRANCH  10  11
HETATM   11  N14   D T9001      -0.352  12.228   0.359  1.00 23.22    -0.227 NA
BRANCH  11  12
HETATM   12  C15   D T9001      -1.732  12.531   0.472  1.00 24.25     0.084 A 
HETATM   13  C16   D T9001      -2.626  12.405  -0.640  1.00 25.06     0.033 A 
HETATM   14  C17   D T9001      -3.988  12.716  -0.517  1.00 28.28     0.087 A 
HETATM   15  C18   D T9001      -4.501  13.162   0.725  1.00 25.55     0.151 A 
HETATM   16 CL     D T9001      -4.998  12.544  -1.901  1.00 31.70    -0.080 Cl
HETATM   17  C19   D T9001      -3.644  13.298   1.846  1.00 24.70     0.032 A 
HETATM   18  F21   D T9001      -5.800  13.468   0.863  1.00 27.22    -0.203 F 
HETATM   19  C20   D T9001      -2.262  12.982   1.719  1.00 24.32     0.021 A 
ENDBRANCH  11  12
ENDBRANCH  10  11
BRANCH   1  20
HETATM   20  N13   D T9001       2.025  10.032   4.570  1.00 34.61    -0.210 NA
HETATM   21  C26   D T9001       3.219  10.648   4.985  1.00 36.24     0.256 C 
HETATM   22  O27   D T9001       4.163  10.956   4.257  1.00 39.97    -0.270 OA
BRANCH  21  23
HETATM   23  C24   D T9001       3.253  10.875   6.487  1.00 35.38     0.092 C 
BRANCH  23  24
HETATM   24  C23   D T9001       4.674  11.164   7.000  1.00 34.93     0.051 C 
BRANCH  24  25
HETATM   25  C25   D T9001       5.256   9.886   7.617  1.00 37.23     0.339 C 
HETATM   26  N33   D T9001       6.722   9.747   7.285  1.00 41.10     0.618 N 
ENDBRANCH  24  25
ENDBRANCH  23  24
ENDBRANCH  21  23
ENDBRANCH   1  20
BRANCH   2  27
HETATM   27  O11   D T9001       2.963   7.666   3.690  1.00 31.09    -0.327 OA
HETATM   28  C12   D T9001       4.181   6.995   3.357  1.00 29.66     0.181 C 
ENDBRANCH   2  27
TORSDOF 7
ENDMDL
MODEL 9
REMARK VINA RESULT:    -6.658      4.512      8.030
REMARK INTER + INTRA:         -10.248
REMARK INTER:                  -9.180
REMARK INTRA:                  -1.068
REMARK UNBOUND:                -0.866
REMARK  7 active torsions:
REMARK  status: ('A' for Active; 'I' for Inactive)
REMARK    1  A    between atoms: C1_1  and  N13_22 
REMARK    2  A    between atoms: C2_2  and  O11_20 
REMARK    3  A    between atoms: C10_10  and  N14_11 
REMARK    4  A    between atoms: N14_11  and  C15_12 
REMARK       I    between atoms: N13_22  and  C26_23 
REMARK    5  A    between atoms: C26_23  and  C24_24 
REMARK    6  A    between atoms: C24_24  and  C23_25 
REMARK    7  A    between atoms: C23_25  and  C25_26 
ROOT
HETATM    1  C1    D T9001       1.119  10.886  -1.484  1.00 30.38     0.107 A 
HETATM    2  C2    D T9001       1.801  11.495  -2.592  1.00 29.65     0.113 A 
HETATM    3  C3    D T9001       3.038  10.928  -3.037  1.00 28.21     0.045 A 
HETATM    4  C4    D T9001       3.606   9.795  -2.420  1.00 27.21     0.088 A 
HETATM    5  C5    D T9001       2.927   9.193  -1.298  1.00 26.27     0.055 A 
HETATM    6  C6    D T9001       1.691   9.750  -0.849  1.00 29.22     0.026 A 
HETATM    7  N7    D T9001       4.775   9.314  -2.910  1.00 25.99    -0.224 NA
HETATM    8  C8    D T9001       5.294   8.231  -2.297  1.00 24.59     0.200 A 
HETATM    9  N9    D T9001       4.761   7.587  -1.237  1.00 25.70    -0.205 NA
HETATM   10  C10   D T9001       3.572   8.061  -0.725  1.00 27.48     0.166 A 
ENDROOT
BRANCH  10  11
HETATM   11  N14   D T9001       2.982   7.404   0.401  1.00 23.22    -0.227 NA
BRANCH  11  12
HETATM   12  C15   D T9001       3.468   7.401   1.733  1.00 24.25     0.084 A 
HETATM   13  C16   D T9001       3.318   8.535   2.594  1.00 25.06     0.033 A 
HETATM   14  C17   D T9001       3.810   8.522   3.907  1.00 28.28     0.087 A 
HETATM   15  C18   D T9001       4.468   7.371   4.403  1.00 25.55     0.151 A 
HETATM   16 CL     D T9001       3.595   9.928   4.879  1.00 31.70    -0.080 Cl
HETATM   17  C19   D T9001       4.633   6.230   3.578  1.00 24.70     0.032 A 
HETATM   18  F21   D T9001       4.949   7.339   5.655  1.00 27.22    -0.203 F 
HETATM   19  C20   D T9001       4.133   6.246   2.245  1.00 24.32     0.021 A 
ENDBRANCH  11  12
ENDBRANCH  10  11
BRANCH   1  20
HETATM   20  N13   D T9001      -0.126  11.446  -1.083  1.00 34.61    -0.210 NA
HETATM   21  C26   D T9001      -0.213  12.399  -0.054  1.00 36.24     0.256 C 
HETATM   22  O27   D T9001       0.732  12.850   0.595  1.00 39.97    -0.270 OA
BRANCH  21  23
HETATM   23  C24   D T9001      -1.648  12.814   0.223  1.00 35.38     0.092 C 
BRANCH  23  24
HETATM   24  C23   D T9001      -2.632  11.642   0.078  1.00 34.93     0.051 C 
BRANCH  24  25
HETATM   25  C25   D T9001      -3.804  12.074  -0.813  1.00 37.23     0.339 C 
HETATM   26  N33   D T9001      -4.657  13.105  -0.117  1.00 41.10     0.618 N 
ENDBRANCH  24  25
ENDBRANCH  23  24
ENDBRANCH  21  23
ENDBRANCH   1  20
BRANCH   2  27
HETATM   27  O11   D T9001       1.170  12.609  -3.138  1.00 31.09    -0.327 OA
HETATM   28  C12   D T9001       1.946  13.712  -3.611  1.00 29.66     0.181 C 
ENDBRANCH   2  27
TORSDOF 7
ENDMDL
