MODEL 1
REMARK VINA RESULT:    -7.126      0.000      0.000
REMARK INTER + INTRA:         -10.931
REMARK INTER:                 -10.042
REMARK INTRA:                  -0.889
REMARK UNBOUND:                -0.889
REMARK  7 active torsions:
REMARK  status: ('A' for Active; 'I' for Inactive)
REMARK    1  A    between atoms: C1_1  and  N13_22 
REMARK    2  A    between atoms: C2_2  and  O11_20 
REMARK    3  A    between atoms: C10_10  and  N14_11 
REMARK    4  A    between atoms: N14_11  and  C15_12 
REMARK       I    between atoms: N13_22  and  C26_23 
REMARK    5  A    between atoms: C26_23  and  C24_24 
REMARK    6  A    between atoms: C24_24  and  C23_25 
REMARK    7  A    between atoms: C23_25  and  C25_26 
ROOT
HETATM    1  C1    D T9001       3.783  -4.582   2.150  1.00 30.38     0.107 A 
HETATM    2  C2    D T9001       4.907  -5.146   1.455  1.00 29.65     0.113 A 
HETATM    3  C3    D T9001       6.115  -4.383   1.364  1.00 28.21     0.045 A 
HETATM    4  C4    D T9001       6.234  -3.098   1.930  1.00 27.21     0.088 A 
HETATM    5  C5    D T9001       5.098  -2.526   2.615  1.00 26.27     0.055 A 
HETATM    6  C6    D T9001       3.890  -3.281   2.714  1.00 29.22     0.026 A 
HETATM    7  N7    D T9001       7.416  -2.447   1.806  1.00 25.99    -0.224 NA
HETATM    8  C8    D T9001       7.497  -1.218   2.356  1.00 24.59     0.200 A 
HETATM    9  N9    D T9001       6.506  -0.574   3.011  1.00 25.70    -0.205 NA
HETATM   10  C10   D T9001       5.296  -1.222   3.147  1.00 27.48     0.166 A 
ENDROOT
BRANCH  10  11
HETATM   11  N14   D T9001       4.225  -0.565   3.831  1.00 23.22    -0.227 NA
BRANCH  11  12
HETATM   12  C15   D T9001       4.335   0.307   4.945  1.00 24.25     0.084 A 
HETATM   13  C16   D T9001       4.564   1.712   4.784  1.00 25.06     0.033 A 
HETATM   14  C17   D T9001       4.679   2.562   5.894  1.00 28.28     0.087 A 
HETATM   15  C18   D T9001       4.569   2.032   7.203  1.00 25.55     0.151 A 
HETATM   16 CL     D T9001       4.960   4.238   5.618  1.00 31.70    -0.080 Cl
HETATM   17  C19   D T9001       4.341   0.646   7.397  1.00 24.70     0.032 A 
HETATM   18  F21   D T9001       4.679   2.827   8.277  1.00 27.22    -0.203 F 
HETATM   19  C20   D T9001       4.225  -0.213   6.269  1.00 24.32     0.021 A 
ENDBRANCH  11  12
ENDBRANCH  10  11
BRANCH   1  20
HETATM   20  N13   D T9001       2.606  -5.373   2.259  1.00 34.61    -0.210 NA
HETATM   21  C26   D T9001       1.584  -5.316   1.294  1.00 36.24     0.256 C 
HETATM   22  O27   D T9001       1.583  -4.612   0.283  1.00 39.97    -0.270 OA
BRANCH  21  23
HETATM   23  C24   D T9001       0.413  -6.217   1.649  1.00 35.38     0.092 C 
BRANCH  23  24
HETATM   24  C23   D T9001       0.642  -7.672   1.204  1.00 34.93     0.051 C 
BRANCH  24  25
HETATM   25  C25   D T9001       0.024  -7.875  -0.186  1.00 37.23     0.339 C 
HETATM   26  N33   D T9001      -1.200  -7.011  -0.361  1.00 41.10     0.618 N 
ENDBRANCH  24  25
ENDBRANCH  23  24
ENDBRANCH  21  23
ENDBRANCH   1  20
BRANCH   2  27
HETATM   27  O11   D T9001       4.700  -6.417   0.928  1.00 31.09    -0.327 OA
HETATM   28  C12   D T9001       4.844  -6.640  -0.478  1.00 29.66     0.181 C 
ENDBRANCH   2  27
TORSDOF 7
ENDMDL
MODEL 2
REMARK VINA RESULT:    -7.038      6.429     11.558
REMARK INTER + INTRA:         -10.807
REMARK INTER:                  -9.630
REMARK INTRA:                  -1.177
REMARK UNBOUND:                -0.889
REMARK  7 active torsions:
REMARK  status: ('A' for Active; 'I' for Inactive)
REMARK    1  A    between atoms: C1_1  and  N13_22 
REMARK    2  A    between atoms: C2_2  and  O11_20 
REMARK    3  A    between atoms: C10_10  and  N14_11 
REMARK    4  A    between atoms: N14_11  and  C15_12 
REMARK       I    between atoms: N13_22  and  C26_23 
REMARK    5  A    between atoms: C26_23  and  C24_24 
REMARK    6  A    between atoms: C24_24  and  C23_25 
REMARK    7  A    between atoms: C23_25  and  C25_26 
ROOT
HETATM    1  C1    D T9001       1.102  -7.311   1.105  1.00 30.38     0.107 A 
HETATM    2  C2    D T9001       0.321  -6.282   0.477  1.00 29.65     0.113 A 
HETATM    3  C3    D T9001      -0.885  -6.648  -0.202  1.00 28.21     0.045 A 
HETATM    4  C4    D T9001      -1.327  -7.985  -0.274  1.00 27.21     0.088 A 
HETATM    5  C5    D T9001      -0.533  -9.020   0.345  1.00 26.27     0.055 A 
HETATM    6  C6    D T9001       0.670  -8.664   1.026  1.00 29.22     0.026 A 
HETATM    7  N7    D T9001      -2.486  -8.245  -0.928  1.00 25.99    -0.224 NA
HETATM    8  C8    D T9001      -2.879  -9.534  -0.982  1.00 24.59     0.200 A 
HETATM    9  N9    D T9001      -2.222 -10.589  -0.454  1.00 25.70    -0.205 NA
HETATM   10  C10   D T9001      -1.041 -10.342   0.215  1.00 27.48     0.166 A 
ENDROOT
BRANCH  10  11
HETATM   11  N14   D T9001      -0.318 -11.439   0.784  1.00 23.22    -0.227 NA
BRANCH  11  12
HETATM   12  C15   D T9001       0.396 -12.442   0.080  1.00 24.25     0.084 A 
HETATM   13  C16   D T9001       1.646 -12.169  -0.564  1.00 25.06     0.033 A 
HETATM   14  C17   D T9001       2.337 -13.170  -1.264  1.00 28.28     0.087 A 
HETATM   15  C18   D T9001       1.799 -14.478  -1.340  1.00 25.55     0.151 A 
HETATM   16 CL     D T9001       3.831 -12.761  -2.016  1.00 31.70    -0.080 Cl
HETATM   17  C19   D T9001       0.565 -14.782  -0.712  1.00 24.70     0.032 A 
HETATM   18  F21   D T9001       2.444 -15.447  -2.006  1.00 27.22    -0.203 F 
HETATM   19  C20   D T9001      -0.134 -13.765  -0.004  1.00 24.32     0.021 A 
ENDBRANCH  11  12
ENDBRANCH  10  11
BRANCH   1  20
HETATM   20  N13   D T9001       2.278  -6.919   1.803  1.00 34.61    -0.210 NA
HETATM   21  C26   D T9001       3.556  -7.052   1.234  1.00 36.24     0.256 C 
HETATM   22  O27   D T9001       3.805  -7.500   0.113  1.00 39.97    -0.270 OA
BRANCH  21  23
HETATM   23  C24   D T9001       4.655  -6.606   2.185  1.00 35.38     0.092 C 
BRANCH  23  24
HETATM   24  C23   D T9001       4.098  -5.840   3.397  1.00 34.93     0.051 C 
BRANCH  24  25
HETATM   25  C25   D T9001       4.544  -4.375   3.313  1.00 37.23     0.339 C 
HETATM   26  N33   D T9001       3.469  -3.522   2.685  1.00 41.10     0.618 N 
ENDBRANCH  24  25
ENDBRANCH  23  24
ENDBRANCH  21  23
ENDBRANCH   1  20
BRANCH   2  27
HETATM   27  O11   D T9001       0.832  -4.993   0.598  1.00 31.09    -0.327 OA
HETATM   28  C12   D T9001      -0.047  -3.897   0.863  1.00 29.66     0.181 C 
ENDBRANCH   2  27
TORSDOF 7
ENDMDL
MODEL 3
REMARK VINA RESULT:    -6.570      4.728      8.636
REMARK INTER + INTRA:         -10.148
REMARK INTER:                  -9.276
REMARK INTRA:                  -0.872
REMARK UNBOUND:                -0.889
REMARK  7 active torsions:
REMARK  status: ('A' for Active; 'I' for Inactive)
REMARK    1  A    between atoms: C1_1  and  N13_22 
REMARK    2  A    between atoms: C2_2  and  O11_20 
REMARK    3  A    between atoms: C10_10  and  N14_11 
REMARK    4  A    between atoms: N14_11  and  C15_12 
REMARK       I    between atoms: N13_22  and  C26_23 
REMARK    5  A    between atoms: C26_23  and  C24_24 
REMARK    6  A    between atoms: C24_24  and  C23_25 
REMARK    7  A    between atoms: C23_25  and  C25_26 
ROOT
HETATM    1  C1    D T9001       5.010  -2.916   2.773  1.00 30.38     0.107 A 
HETATM    2  C2    D T9001       6.324  -2.832   2.197  1.00 29.65     0.113 A 
HETATM    3  C3    D T9001       6.567  -3.472   0.939  1.00 28.21     0.045 A 
HETATM    4  C4    D T9001       5.562  -4.182   0.254  1.00 27.21     0.088 A 
HETATM    5  C5    D T9001       4.247  -4.279   0.841  1.00 26.27     0.055 A 
HETATM    6  C6    D T9001       3.993  -3.641   2.093  1.00 29.22     0.026 A 
HETATM    7  N7    D T9001       5.874  -4.751  -0.937  1.00 25.99    -0.224 NA
HETATM    8  C8    D T9001       4.890  -5.427  -1.566  1.00 24.59     0.200 A 
HETATM    9  N9    D T9001       3.628  -5.596  -1.117  1.00 25.70    -0.205 NA
HETATM   10  C10   D T9001       3.293  -5.024   0.093  1.00 27.48     0.166 A 
ENDROOT
BRANCH  10  11
HETATM   11  N14   D T9001       1.965  -5.188   0.600  1.00 23.22    -0.227 NA
BRANCH  11  12
HETATM   12  C15   D T9001       1.220  -6.393   0.656  1.00 24.25     0.084 A 
HETATM   13  C16   D T9001      -0.104  -6.488   0.117  1.00 25.06     0.033 A 
HETATM   14  C17   D T9001      -0.834  -7.685   0.187  1.00 28.28     0.087 A 
HETATM   15  C18   D T9001      -0.260  -8.826   0.799  1.00 25.55     0.151 A 
HETATM   16 CL     D T9001      -2.421  -7.718  -0.479  1.00 31.70    -0.080 Cl
HETATM   17  C19   D T9001       1.048  -8.766   1.341  1.00 24.70     0.032 A 
HETATM   18  F21   D T9001      -0.942  -9.978   0.878  1.00 27.22    -0.203 F 
HETATM   19  C20   D T9001       1.785  -7.551   1.269  1.00 24.32     0.021 A 
ENDBRANCH  11  12
ENDBRANCH  10  11
BRANCH   1  20
HETATM   20  N13   D T9001       4.782  -2.242   4.005  1.00 34.61    -0.210 NA
HETATM   21  C26   D T9001       4.365  -0.900   4.049  1.00 36.24     0.256 C 
HETATM   22  O27   D T9001       4.152  -0.178   3.074  1.00 39.97    -0.270 OA
BRANCH  21  23
HETATM   23  C24   D T9001       4.230  -0.390   5.474  1.00 35.38     0.092 C 
BRANCH  23  24
HETATM   24  C23   D T9001       4.476   1.125   5.575  1.00 34.93     0.051 C 
BRANCH  24  25
HETATM   25  C25   D T9001       4.576   1.521   7.053  1.00 37.23     0.339 C 
HETATM   26  N33   D T9001       3.674   0.659   7.902  1.00 41.10     0.618 N 
ENDBRANCH  24  25
ENDBRANCH  23  24
ENDBRANCH  21  23
ENDBRANCH   1  20
BRANCH   2  27
HETATM   27  O11   D T9001       7.253  -2.112   2.942  1.00 31.09    -0.327 OA
HETATM   28  C12   D T9001       7.769  -0.876   2.441  1.00 29.66     0.181 C 
ENDBRANCH   2  27
TORSDOF 7
ENDMDL
MODEL 4
REMARK VINA RESULT:    -6.526      5.511      8.756
REMARK INTER + INTRA:         -10.086
REMARK INTER:                  -8.950
REMARK INTRA:                  -1.136
REMARK UNBOUND:                -0.889
REMARK  7 active torsions:
REMARK  status: ('A' for Active; 'I' for Inactive)
REMARK    1  A    between atoms: C1_1  and  N13_22 
REMARK    2  A    between atoms: C2_2  and  O11_20 
REMARK    3  A    between atoms: C10_10  and  N14_11 
REMARK    4  A    between atoms: N14_11  and  C15_12 
REMARK       I    between atoms: N13_22  and  C26_23 
REMARK    5  A    between atoms: C26_23  and  C24_24 
REMARK    6  A    between atoms: C24_24  and  C23_25 
REMARK    7  A    between atoms: C23_25  and  C25_26 
ROOT
HETATM    1  C1    D T9001       1.564 -11.078   0.132  1.00 30.38     0.107 A 
HETATM    2  C2    D T9001       0.305 -11.753   0.286  1.00 29.65     0.113 A 
HETATM    3  C3    D T9001      -0.902 -10.986   0.209  1.00 28.21     0.045 A 
HETATM    4  C4    D T9001      -0.892  -9.595  -0.011  1.00 27.21     0.088 A 
HETATM    5  C5    D T9001       0.374  -8.915  -0.150  1.00 26.27     0.055 A 
HETATM    6  C6    D T9001       1.584  -9.671  -0.078  1.00 29.22     0.026 A 
HETATM    7  N7    D T9001      -2.080  -8.945  -0.080  1.00 25.99    -0.224 NA
HETATM    8  C8    D T9001      -2.037  -7.613  -0.287  1.00 24.59     0.200 A 
HETATM    9  N9    D T9001      -0.921  -6.866  -0.424  1.00 25.70    -0.205 NA
HETATM   10  C10   D T9001       0.298  -7.510  -0.356  1.00 27.48     0.166 A 
ENDROOT
BRANCH  10  11
HETATM   11  N14   D T9001       1.500  -6.746  -0.492  1.00 23.22    -0.227 NA
BRANCH  11  12
HETATM   12  C15   D T9001       2.059  -5.863   0.466  1.00 24.25     0.084 A 
HETATM   13  C16   D T9001       2.693  -6.344   1.657  1.00 25.06     0.033 A 
HETATM   14  C17   D T9001       3.236  -5.458   2.601  1.00 28.28     0.087 A 
HETATM   15  C18   D T9001       3.161  -4.061   2.382  1.00 25.55     0.151 A 
HETATM   16 CL     D T9001       3.976  -6.114   4.010  1.00 31.70    -0.080 Cl
HETATM   17  C19   D T9001       2.542  -3.552   1.213  1.00 24.70     0.032 A 
HETATM   18  F21   D T9001       3.671  -3.199   3.273  1.00 27.22    -0.203 F 
HETATM   19  C20   D T9001       1.993  -4.453   0.258  1.00 24.32     0.021 A 
ENDBRANCH  11  12
ENDBRANCH  10  11
BRANCH   1  20
HETATM   20  N13   D T9001       2.748 -11.865   0.177  1.00 34.61    -0.210 NA
HETATM   21  C26   D T9001       3.378 -12.323  -0.994  1.00 36.24     0.256 C 
HETATM   22  O27   D T9001       3.004 -12.107  -2.147  1.00 39.97    -0.270 OA
BRANCH  21  23
HETATM   23  C24   D T9001       4.598 -13.177  -0.690  1.00 35.38     0.092 C 
BRANCH  23  24
HETATM   24  C23   D T9001       4.220 -14.628  -0.345  1.00 34.93     0.051 C 
BRANCH  24  25
HETATM   25  C25   D T9001       4.054 -15.426  -1.645  1.00 37.23     0.339 C 
HETATM   26  N33   D T9001       2.636 -15.918  -1.796  1.00 41.10     0.618 N 
ENDBRANCH  24  25
ENDBRANCH  23  24
ENDBRANCH  21  23
ENDBRANCH   1  20
BRANCH   2  27
HETATM   27  O11   D T9001       0.391 -13.125   0.500  1.00 31.09    -0.327 OA
HETATM   28  C12   D T9001      -0.228 -14.032  -0.418  1.00 29.66     0.181 C 
ENDBRANCH   2  27
TORSDOF 7
ENDMDL
MODEL 5
REMARK VINA RESULT:    -6.329      6.307      8.471
REMARK INTER + INTRA:          -9.807
REMARK INTER:                  -8.798
REMARK INTRA:                  -1.010
REMARK UNBOUND:                -0.889
REMARK  7 active torsions:
REMARK  status: ('A' for Active; 'I' for Inactive)
REMARK    1  A    between atoms: C1_1  and  N13_22 
REMARK    2  A    between atoms: C2_2  and  O11_20 
REMARK    3  A    between atoms: C10_10  and  N14_11 
REMARK    4  A    between atoms: N14_11  and  C15_12 
REMARK       I    between atoms: N13_22  and  C26_23 
REMARK    5  A    between atoms: C26_23  and  C24_24 
REMARK    6  A    between atoms: C24_24  and  C23_25 
REMARK    7  A    between atoms: C23_25  and  C25_26 
ROOT
HETATM    1  C1    D T9001       0.770  -9.920   1.102  1.00 30.38     0.107 A 
HETATM    2  C2    D T9001      -0.498  -9.362   0.721  1.00 29.65     0.113 A 
HETATM    3  C3    D T9001      -0.659  -7.939   0.738  1.00 28.21     0.045 A 
HETATM    4  C4    D T9001       0.386  -7.073   1.118  1.00 27.21     0.088 A 
HETATM    5  C5    D T9001       1.655  -7.635   1.515  1.00 26.27     0.055 A 
HETATM    6  C6    D T9001       1.826  -9.052   1.498  1.00 29.22     0.026 A 
HETATM    7  N7    D T9001       0.153  -5.737   1.097  1.00 25.99    -0.224 NA
HETATM    8  C8    D T9001       1.171  -4.934   1.469  1.00 24.59     0.200 A 
HETATM    9  N9    D T9001       2.397  -5.338   1.868  1.00 25.70    -0.205 NA
HETATM   10  C10   D T9001       2.651  -6.694   1.896  1.00 27.48     0.166 A 
ENDROOT
BRANCH  10  11
HETATM   11  N14   D T9001       3.938  -7.155   2.317  1.00 23.22    -0.227 NA
BRANCH  11  12
HETATM   12  C15   D T9001       5.112  -7.241   1.526  1.00 24.25     0.084 A 
HETATM   13  C16   D T9001       5.281  -6.457   0.339  1.00 25.06     0.033 A 
HETATM   14  C17   D T9001       6.444  -6.558  -0.440  1.00 28.28     0.087 A 
HETATM   15  C18   D T9001       7.476  -7.447  -0.054  1.00 25.55     0.151 A 
HETATM   16 CL     D T9001       6.570  -5.587  -1.855  1.00 31.70    -0.080 Cl
HETATM   17  C19   D T9001       7.341  -8.236   1.116  1.00 24.70     0.032 A 
HETATM   18  F21   D T9001       8.594  -7.560  -0.786  1.00 27.22    -0.203 F 
HETATM   19  C20   D T9001       6.161  -8.132   1.903  1.00 24.32     0.021 A 
ENDBRANCH  11  12
ENDBRANCH  10  11
BRANCH   1  20
HETATM   20  N13   D T9001       0.917 -11.333   1.044  1.00 34.61    -0.210 NA
HETATM   21  C26   D T9001       1.462 -11.975  -0.083  1.00 36.24     0.256 C 
HETATM   22  O27   D T9001       1.864 -11.421  -1.107  1.00 39.97    -0.270 OA
BRANCH  21  23
HETATM   23  C24   D T9001       1.477 -13.487   0.073  1.00 35.38     0.092 C 
BRANCH  23  24
HETATM   24  C23   D T9001       0.082 -14.105  -0.124  1.00 34.93     0.051 C 
BRANCH  24  25
HETATM   25  C25   D T9001       0.236 -15.523  -0.688  1.00 37.23     0.339 C 
HETATM   26  N33   D T9001       0.219 -15.506  -2.197  1.00 41.10     0.618 N 
ENDBRANCH  24  25
ENDBRANCH  23  24
ENDBRANCH  21  23
ENDBRANCH   1  20
BRANCH   2  27
HETATM   27  O11   D T9001      -1.470 -10.291   0.363  1.00 31.09    -0.327 OA
HETATM   28  C12   D T9001      -2.007 -10.289  -0.963  1.00 29.66     0.181 C 
ENDBRANCH   2  27
TORSDOF 7
ENDMDL
MODEL 6
REMARK VINA RESULT:    -6.215      6.599      9.805
REMARK INTER + INTRA:          -9.646
REMARK INTER:                  -8.724
REMARK INTRA:                  -0.923
REMARK UNBOUND:                -0.889
REMARK  7 active torsions:
REMARK  status: ('A' for Active; 'I' for Inactive)
REMARK    1  A    between atoms: C1_1  and  N13_22 
REMARK    2  A    between atoms: C2_2  and  O11_20 
REMARK    3  A    between atoms: C10_10  and  N14_11 
REMARK    4  A    between atoms: N14_11  and  C15_12 
REMARK       I    between atoms: N13_22  and  C26_23 
REMARK    5  A    between atoms: C26_23  and  C24_24 
REMARK    6  A    between atoms: C24_24  and  C23_25 
REMARK    7  A    between atoms: C23_25  and  C25_26 
ROOT
HETATM    1  C1    D T9001       1.171 -11.876   0.191  1.00 30.38     0.107 A 
HETATM    2  C2    D T9001       0.063 -12.606  -0.359  1.00 29.65     0.113 A 
HETATM    3  C3    D T9001      -1.145 -11.900  -0.665  1.00 28.21     0.045 A 
HETATM    4  C4    D T9001      -1.279 -10.515  -0.439  1.00 27.21     0.088 A 
HETATM    5  C5    D T9001      -0.170  -9.786   0.129  1.00 26.27     0.055 A 
HETATM    6  C6    D T9001       1.039 -10.481   0.433  1.00 29.22     0.026 A 
HETATM    7  N7    D T9001      -2.454  -9.922  -0.765  1.00 25.99    -0.224 NA
HETATM    8  C8    D T9001      -2.552  -8.596  -0.534  1.00 24.59     0.200 A 
HETATM    9  N9    D T9001      -1.593  -7.809  -0.001  1.00 25.70    -0.205 NA
HETATM   10  C10   D T9001      -0.392  -8.396   0.337  1.00 27.48     0.166 A 
ENDROOT
BRANCH  10  11
HETATM   11  N14   D T9001       0.644  -7.591   0.907  1.00 23.22    -0.227 NA
BRANCH  11  12
HETATM   12  C15   D T9001       1.690  -6.933   0.211  1.00 24.25     0.084 A 
HETATM   13  C16   D T9001       2.306  -5.745   0.721  1.00 25.06     0.033 A 
HETATM   14  C17   D T9001       3.335  -5.099   0.018  1.00 28.28     0.087 A 
HETATM   15  C18   D T9001       3.781  -5.624  -1.220  1.00 25.55     0.151 A 
HETATM   16 CL     D T9001       4.021  -3.673   0.694  1.00 31.70    -0.080 Cl
HETATM   17  C19   D T9001       3.193  -6.800  -1.752  1.00 24.70     0.032 A 
HETATM   18  F21   D T9001       4.760  -5.021  -1.908  1.00 27.22    -0.203 F 
HETATM   19  C20   D T9001       2.150  -7.451  -1.037  1.00 24.32     0.021 A 
ENDBRANCH  11  12
ENDBRANCH  10  11
BRANCH   1  20
HETATM   20  N13   D T9001       2.372 -12.592   0.453  1.00 34.61    -0.210 NA
HETATM   21  C26   D T9001       3.399 -12.690  -0.503  1.00 36.24     0.256 C 
HETATM   22  O27   D T9001       3.389 -12.190  -1.628  1.00 39.97    -0.270 OA
BRANCH  21  23
HETATM   23  C24   D T9001       4.560 -13.539  -0.009  1.00 35.38     0.092 C 
BRANCH  23  24
HETATM   24  C23   D T9001       5.785 -12.687   0.364  1.00 34.93     0.051 C 
BRANCH  24  25
HETATM   25  C25   D T9001       6.933 -13.008  -0.602  1.00 37.23     0.339 C 
HETATM   26  N33   D T9001       8.256 -12.560  -0.032  1.00 41.10     0.618 N 
ENDBRANCH  24  25
ENDBRANCH  23  24
ENDBRANCH  21  23
ENDBRANCH   1  20
BRANCH   2  27
HETATM   27  O11   D T9001       0.284 -13.967  -0.547  1.00 31.09    -0.327 OA
HETATM   28  C12   D T9001       0.492 -14.483  -1.865  1.00 29.66     0.181 C 
ENDBRANCH   2  27
TORSDOF 7
ENDMDL
MODEL 7
REMARK VINA RESULT:    -6.193      5.631      7.599
REMARK INTER + INTRA:          -9.617
REMARK INTER:                  -8.571
REMARK INTRA:                  -1.046
REMARK UNBOUND:                -0.889
REMARK  7 active torsions:
REMARK  status: ('A' for Active; 'I' for Inactive)
REMARK    1  A    between atoms: C1_1  and  N13_22 
REMARK    2  A    between atoms: C2_2  and  O11_20 
REMARK    3  A    between atoms: C10_10  and  N14_11 
REMARK    4  A    between atoms: N14_11  and  C15_12 
REMARK       I    between atoms: N13_22  and  C26_23 
REMARK    5  A    between atoms: C26_23  and  C24_24 
REMARK    6  A    between atoms: C24_24  and  C23_25 
REMARK    7  A    between atoms: C23_25  and  C25_26 
ROOT
HETATM    1  C1    D T9001       1.469  -8.475  -0.610  1.00 30.38     0.107 A 
HETATM    2  C2    D T9001       0.245  -8.453   0.142  1.00 29.65     0.113 A 
HETATM    3  C3    D T9001      -0.227  -7.203   0.656  1.00 28.21     0.045 A 
HETATM    4  C4    D T9001       0.472  -5.997   0.448  1.00 27.21     0.088 A 
HETATM    5  C5    D T9001       1.710  -6.022  -0.294  1.00 26.27     0.055 A 
HETATM    6  C6    D T9001       2.187  -7.264  -0.813  1.00 29.22     0.026 A 
HETATM    7  N7    D T9001      -0.049  -4.855   0.961  1.00 25.99    -0.224 NA
HETATM    8  C8    D T9001       0.645  -3.718   0.748  1.00 24.59     0.200 A 
HETATM    9  N9    D T9001       1.814  -3.614   0.080  1.00 25.70    -0.205 NA
HETATM   10  C10   D T9001       2.359  -4.766  -0.448  1.00 27.48     0.166 A 
ENDROOT
BRANCH  10  11
HETATM   11  N14   D T9001       3.600  -4.691  -1.158  1.00 23.22    -0.227 NA
BRANCH  11  12
HETATM   12  C15   D T9001       4.902  -4.803  -0.607  1.00 24.25     0.084 A 
HETATM   13  C16   D T9001       5.864  -5.728  -1.127  1.00 25.06     0.033 A 
HETATM   14  C17   D T9001       7.147  -5.834  -0.567  1.00 28.28     0.087 A 
HETATM   15  C18   D T9001       7.508  -5.016   0.530  1.00 25.55     0.151 A 
HETATM   16 CL     D T9001       8.245  -6.974  -1.245  1.00 31.70    -0.080 Cl
HETATM   17  C19   D T9001       6.579  -4.088   1.068  1.00 24.70     0.032 A 
HETATM   18  F21   D T9001       8.728  -5.104   1.080  1.00 27.22    -0.203 F 
HETATM   19  C20   D T9001       5.280  -3.984   0.499  1.00 24.32     0.021 A 
ENDBRANCH  11  12
ENDBRANCH  10  11
BRANCH   1  20
HETATM   20  N13   D T9001       1.900  -9.723  -1.140  1.00 34.61    -0.210 NA
HETATM   21  C26   D T9001       2.789 -10.557  -0.440  1.00 36.24     0.256 C 
HETATM   22  O27   D T9001       3.279 -10.325   0.666  1.00 39.97    -0.270 OA
BRANCH  21  23
HETATM   23  C24   D T9001       3.134 -11.812  -1.226  1.00 35.38     0.092 C 
BRANCH  23  24
HETATM   24  C23   D T9001       1.993 -12.241  -2.164  1.00 34.93     0.051 C 
BRANCH  24  25
HETATM   25  C25   D T9001       0.982 -13.083  -1.374  1.00 37.23     0.339 C 
HETATM   26  N33   D T9001       1.156 -14.551  -1.674  1.00 41.10     0.618 N 
ENDBRANCH  24  25
ENDBRANCH  23  24
ENDBRANCH  21  23
ENDBRANCH   1  20
BRANCH   2  27
HETATM   27  O11   D T9001      -0.377  -9.689   0.298  1.00 31.09    -0.327 OA
HETATM   28  C12   D T9001      -1.662  -9.921  -0.285  1.00 29.66     0.181 C 
ENDBRANCH   2  27
TORSDOF 7
ENDMDL
MODEL 8
REMARK VINA RESULT:    -6.162      7.194     11.724
REMARK INTER + INTRA:          -9.573
REMARK INTER:                  -8.461
REMARK INTRA:                  -1.111
REMARK UNBOUND:                -0.889
REMARK  7 active torsions:
REMARK  status: ('A' for Active; 'I' for Inactive)
REMARK    1  A    between atoms: C1_1  and  N13_22 
REMARK    2  A    between atoms: C2_2  and  O11_20 
REMARK    3  A    between atoms: C10_10  and  N14_11 
REMARK    4  A    between atoms: N14_11  and  C15_12 
REMARK       I    between atoms: N13_22  and  C26_23 
REMARK    5  A    between atoms: C26_23  and  C24_24 
REMARK    6  A    between atoms: C24_24  and  C23_25 
REMARK    7  A    between atoms: C23_25  and  C25_26 
ROOT
HETATM    1  C1    D T9001       2.227  -7.958   0.422  1.00 30.38     0.107 A 
HETATM    2  C2    D T9001       1.153  -7.289   1.101  1.00 29.65     0.113 A 
HETATM    3  C3    D T9001      -0.171  -7.825   0.995  1.00 28.21     0.045 A 
HETATM    4  C4    D T9001      -0.450  -8.984   0.244  1.00 27.21     0.088 A 
HETATM    5  C5    D T9001       0.628  -9.647  -0.451  1.00 26.27     0.055 A 
HETATM    6  C6    D T9001       1.952  -9.122  -0.348  1.00 29.22     0.026 A 
HETATM    7  N7    D T9001      -1.729  -9.431   0.203  1.00 25.99    -0.224 NA
HETATM    8  C8    D T9001      -1.965 -10.541  -0.527  1.00 24.59     0.200 A 
HETATM    9  N9    D T9001      -1.047 -11.243  -1.226  1.00 25.70    -0.205 NA
HETATM   10  C10   D T9001       0.260 -10.802  -1.195  1.00 27.48     0.166 A 
ENDROOT
BRANCH  10  11
HETATM   11  N14   D T9001       1.257 -11.520  -1.929  1.00 23.22    -0.227 NA
BRANCH  11  12
HETATM   12  C15   D T9001       2.071 -12.577  -1.446  1.00 24.25     0.084 A 
HETATM   13  C16   D T9001       1.559 -13.581  -0.562  1.00 25.06     0.033 A 
HETATM   14  C17   D T9001       2.378 -14.616  -0.086  1.00 28.28     0.087 A 
HETATM   15  C18   D T9001       3.737 -14.680  -0.480  1.00 25.55     0.151 A 
HETATM   16 CL     D T9001       1.690 -15.782   0.978  1.00 31.70    -0.080 Cl
HETATM   17  C19   D T9001       4.275 -13.702  -1.355  1.00 24.70     0.032 A 
HETATM   18  F21   D T9001       4.536 -15.660  -0.034  1.00 27.22    -0.203 F 
HETATM   19  C20   D T9001       3.442 -12.654  -1.836  1.00 24.32     0.021 A 
ENDBRANCH  11  12
ENDBRANCH  10  11
BRANCH   1  20
HETATM   20  N13   D T9001       3.539  -7.427   0.571  1.00 34.61    -0.210 NA
HETATM   21  C26   D T9001       4.403  -7.865   1.590  1.00 36.24     0.256 C 
HETATM   22  O27   D T9001       4.146  -8.722   2.436  1.00 39.97    -0.270 OA
BRANCH  21  23
HETATM   23  C24   D T9001       5.729  -7.123   1.572  1.00 35.38     0.092 C 
BRANCH  23  24
HETATM   24  C23   D T9001       5.956  -6.370   0.250  1.00 34.93     0.051 C 
BRANCH  24  25
HETATM   25  C25   D T9001       6.063  -4.868   0.539  1.00 37.23     0.339 C 
HETATM   26  N33   D T9001       5.175  -4.078  -0.391  1.00 41.10     0.618 N 
ENDBRANCH  24  25
ENDBRANCH  23  24
ENDBRANCH  21  23
ENDBRANCH   1  20
BRANCH   2  27
HETATM   27  O11   D T9001       1.520  -6.153   1.816  1.00 31.09    -0.327 OA
HETATM   28  C12   D T9001       0.867  -4.905   1.562  1.00 29.66     0.181 C 
ENDBRANCH   2  27
TORSDOF 7
ENDMDL
MODEL 9
REMARK VINA RESULT:    -6.087      3.489      6.690
REMARK INTER + INTRA:          -9.466
REMARK INTER:                  -8.313
REMARK INTRA:                  -1.153
REMARK UNBOUND:                -0.889
REMARK  7 active torsions:
REMARK  status: ('A' for Active; 'I' for Inactive)
REMARK    1  A    between atoms: C1_1  and  N13_22 
REMARK    2  A    between atoms: C2_2  and  O11_20 
REMARK    3  A    between atoms: C10_10  and  N14_11 
REMARK    4  A    between atoms: N14_11  and  C15_12 
REMARK       I    between atoms: N13_22  and  C26_23 
REMARK    5  A    between atoms: C26_23  and  C24_24 
REMARK    6  A    between atoms: C24_24  and  C23_25 
REMARK    7  A    between atoms: C23_25  and  C25_26 
ROOT
HETATM    1  C1    D T9001       8.367  -1.366   2.068  1.00 30.38     0.107 A 
HETATM    2  C2    D T9001       8.780  -2.735   1.927  1.00 29.65     0.113 A 
HETATM    3  C3    D T9001       7.844  -3.773   2.238  1.00 28.21     0.045 A 
HETATM    4  C4    D T9001       6.536  -3.493   2.680  1.00 27.21     0.088 A 
HETATM    5  C5    D T9001       6.127  -2.117   2.836  1.00 26.27     0.055 A 
HETATM    6  C6    D T9001       7.052  -1.075   2.525  1.00 29.22     0.026 A 
HETATM    7  N7    D T9001       5.709  -4.535   2.944  1.00 25.99    -0.224 NA
HETATM    8  C8    D T9001       4.464  -4.234   3.368  1.00 24.59     0.200 A 
HETATM    9  N9    D T9001       3.969  -2.993   3.562  1.00 25.70    -0.205 NA
HETATM   10  C10   D T9001       4.796  -1.921   3.298  1.00 27.48     0.166 A 
ENDROOT
BRANCH  10  11
HETATM   11  N14   D T9001       4.303  -0.592   3.496  1.00 23.22    -0.227 NA
BRANCH  11  12
HETATM   12  C15   D T9001       4.372   0.170   4.690  1.00 24.25     0.084 A 
HETATM   13  C16   D T9001       4.516   1.596   4.669  1.00 25.06     0.033 A 
HETATM   14  C17   D T9001       4.591   2.337   5.858  1.00 28.28     0.087 A 
HETATM   15  C18   D T9001       4.524   1.675   7.108  1.00 25.55     0.151 A 
HETATM   16 CL     D T9001       4.770   4.046   5.749  1.00 31.70    -0.080 Cl
HETATM   17  C19   D T9001       4.380   0.265   7.164  1.00 24.70     0.032 A 
HETATM   18  F21   D T9001       4.597   2.365   8.255  1.00 27.22    -0.203 F 
HETATM   19  C20   D T9001       4.305  -0.484   5.957  1.00 24.32     0.021 A 
ENDBRANCH  11  12
ENDBRANCH  10  11
BRANCH   1  20
HETATM   20  N13   D T9001       9.302  -0.352   1.719  1.00 34.61    -0.210 NA
HETATM   21  C26   D T9001       9.212   0.352   0.506  1.00 36.24     0.256 C 
HETATM   22  O27   D T9001       8.352   0.190  -0.362  1.00 39.97    -0.270 OA
BRANCH  21  23
HETATM   23  C24   D T9001      10.345   1.352   0.340  1.00 35.38     0.092 C 
BRANCH  23  24
HETATM   24  C23   D T9001       9.828   2.780   0.096  1.00 34.93     0.051 C 
BRANCH  24  25
HETATM   25  C25   D T9001       9.152   3.295   1.372  1.00 37.23     0.339 C 
HETATM   26  N33   D T9001      10.160   3.474   2.480  1.00 41.10     0.618 N 
ENDBRANCH  24  25
ENDBRANCH  23  24
ENDBRANCH  21  23
ENDBRANCH   1  20
BRANCH   2  27
HETATM   27  O11   D T9001      10.088  -2.917   1.487  1.00 31.09    -0.327 OA
HETATM   28  C12   D T9001      11.023  -3.631   2.300  1.00 29.66     0.181 C 
ENDBRANCH   2  27
TORSDOF 7
ENDMDL
