MODEL 1
REMARK VINA RESULT:    -5.701      0.000      0.000
REMARK INTER + INTRA:         -11.132
REMARK INTER:                  -9.701
REMARK INTRA:                  -1.432
REMARK UNBOUND:                -1.432
REMARK  24 active torsions:
REMARK  status: ('A' for Active; 'I' for Inactive)
REMARK    1  A    between atoms: CAK_2  and  CAM_3 
REMARK    2  A    between atoms: CAM_3  and  NAS_4 
REMARK    3  A    between atoms: NAS_4  and  CAO_5 
REMARK    4  A    between atoms: CAO_5  and  CAQ_6 
REMARK    5  A    between atoms: CAQ_6  and  NAU_7 
REMARK    6  A    between atoms: NAU_7  and  CAY_8 
REMARK    7  A    between atoms: CAZ_25  and  NAV_26 
REMARK    8  A    between atoms: NAV_26  and  CAR_27 
REMARK    9  A    between atoms: CAR_27  and  CAP_28 
REMARK   10  A    between atoms: CAP_28  and  NAT_29 
REMARK   11  A    between atoms: NAT_29  and  CAN_30 
REMARK   12  A    between atoms: CAN_30  and  CAL_31 
REMARK   13  A    between atoms: CAK_34  and  CAM_35 
REMARK   14  A    between atoms: CAM_35  and  NAS_36 
REMARK   15  A    between atoms: NAS_36  and  CAO_37 
REMARK   16  A    between atoms: CAO_37  and  CAQ_38 
REMARK   17  A    between atoms: CAQ_38  and  NAU_39 
REMARK   18  A    between atoms: NAU_39  and  CAY_40 
REMARK   19  A    between atoms: CAZ_57  and  NAV_58 
REMARK   20  A    between atoms: NAV_58  and  CAR_59 
REMARK   21  A    between atoms: CAR_59  and  CAP_60 
REMARK   22  A    between atoms: CAP_60  and  NAT_61 
REMARK   23  A    between atoms: NAT_61  and  CAN_62 
REMARK   24  A    between atoms: CAN_62  and  CAL_63 
ROOT
HETATM    1  CAY   D T 500       4.739  18.737   0.255  1.00 41.84     0.079 A 
HETATM    2  CAI   D T 500       4.627  19.105  -1.115  1.00 42.25     0.020 A 
HETATM    3  CAJ   D T 500       5.426  18.560  -2.132  1.00 39.39     0.020 A 
HETATM    4  CBE   D T 500       5.767  17.723   0.642  1.00 38.78     0.061 A 
HETATM    5  CBA   D T 500       5.943  17.276   2.054  1.00 38.89     0.199 A 
HETATM    6  OAA   D T 500       5.228  17.766   2.956  1.00 42.15    -0.286 OA
HETATM    7  CBC   D T 500       6.978  16.240   2.374  1.00 38.64     0.069 A 
HETATM    8  CAW   D T 500       7.223  15.747   3.766  1.00 41.35     0.134 A 
HETATM    9  OAE   D T 500       6.471  16.234   4.816  1.00 47.27    -0.190 OA
HETATM   10  CAG   D T 500       8.216  14.777   3.982  1.00 39.87     0.030 A 
HETATM   11  CAH   D T 500       9.003  14.254   2.940  1.00 38.23     0.030 A 
HETATM   12  CAX   D T 500       8.842  14.679   1.625  1.00 35.83     0.134 A 
HETATM   13  OAF   D T 500       9.593  14.161   0.629  1.00 35.23    -0.190 OA
HETATM   14  CBD   D T 500       7.817  15.681   1.289  1.00 35.97     0.069 A 
HETATM   15  CBB   D T 500       7.638  16.136  -0.111  1.00 36.65     0.199 A 
HETATM   16  OAB   D T 500       8.350  15.665  -1.011  1.00 36.71    -0.286 OA
HETATM   17  CBF   D T 500       6.612  17.151  -0.442  1.00 37.01     0.061 A 
HETATM   18  CAZ   D T 500       6.409  17.611  -1.845  1.00 39.54     0.079 A 
ENDROOT
BRANCH   1  19
HETATM   19  NAU   D T 500       3.939  19.287   1.213  1.00 41.74    -0.269 NA
BRANCH  19  20
HETATM   20  CAQ   D T 500       3.196  20.507   0.909  1.00 47.43     0.151 C 
BRANCH  20  21
HETATM   21  CAO   D T 500       3.708  21.754   1.639  1.00 48.34     0.146 C 
BRANCH  21  22
HETATM   22  NAS   D T 500       4.773  21.451   2.567  1.00 49.29    -0.291 NA
BRANCH  22  23
HETATM   23  CAM   D T 500       6.063  22.079   2.410  1.00 49.13     0.155 C 
BRANCH  23  24
HETATM   24  CAK   D T 500       7.082  21.047   1.961  1.00 54.80     0.208 C 
HETATM   25  OAC   D T 500       7.197  21.068   0.531  1.00 60.78    -0.218 OA
ENDBRANCH  23  24
ENDBRANCH  22  23
ENDBRANCH  21  22
ENDBRANCH  20  21
ENDBRANCH  19  20
ENDBRANCH   1  19
BRANCH  18  26
HETATM   26  NAV   D T 500       7.158  17.080  -2.834  1.00 45.82    -0.269 NA
BRANCH  26  27
HETATM   27  CAR   D T 500       8.035  18.002  -3.549  1.00 50.37     0.151 C 
BRANCH  27  28
HETATM   28  CAP   D T 500       8.323  17.608  -4.981  1.00 56.30     0.146 C 
BRANCH  28  29
HETATM   29  NAT   D T 500       7.107  17.708  -5.775  1.00 57.16    -0.291 NA
BRANCH  29  30
HETATM   30  CAN   D T 500       6.501  19.021  -5.938  1.00 55.30     0.155 C 
BRANCH  30  31
HETATM   31  CAL   D T 500       5.361  18.981  -6.943  1.00 53.22     0.208 C 
HETATM   32  OAD   D T 500       5.820  18.141  -8.004  1.00 54.28    -0.218 OA
ENDBRANCH  30  31
ENDBRANCH  29  30
ENDBRANCH  28  29
ENDBRANCH  27  28
ENDBRANCH  26  27
ENDBRANCH  18  26
TORSDOF 24
ENDMDL
MODEL 2
REMARK VINA RESULT:    -5.674      8.242     10.994
REMARK INTER + INTRA:         -11.086
REMARK INTER:                  -9.789
REMARK INTRA:                  -1.297
REMARK UNBOUND:                -1.432
REMARK  24 active torsions:
REMARK  status: ('A' for Active; 'I' for Inactive)
REMARK    1  A    between atoms: CAK_2  and  CAM_3 
REMARK    2  A    between atoms: CAM_3  and  NAS_4 
REMARK    3  A    between atoms: NAS_4  and  CAO_5 
REMARK    4  A    between atoms: CAO_5  and  CAQ_6 
REMARK    5  A    between atoms: CAQ_6  and  NAU_7 
REMARK    6  A    between atoms: NAU_7  and  CAY_8 
REMARK    7  A    between atoms: CAZ_25  and  NAV_26 
REMARK    8  A    between atoms: NAV_26  and  CAR_27 
REMARK    9  A    between atoms: CAR_27  and  CAP_28 
REMARK   10  A    between atoms: CAP_28  and  NAT_29 
REMARK   11  A    between atoms: NAT_29  and  CAN_30 
REMARK   12  A    between atoms: CAN_30  and  CAL_31 
REMARK   13  A    between atoms: CAK_34  and  CAM_35 
REMARK   14  A    between atoms: CAM_35  and  NAS_36 
REMARK   15  A    between atoms: NAS_36  and  CAO_37 
REMARK   16  A    between atoms: CAO_37  and  CAQ_38 
REMARK   17  A    between atoms: CAQ_38  and  NAU_39 
REMARK   18  A    between atoms: NAU_39  and  CAY_40 
REMARK   19  A    between atoms: CAZ_57  and  NAV_58 
REMARK   20  A    between atoms: NAV_58  and  CAR_59 
REMARK   21  A    between atoms: CAR_59  and  CAP_60 
REMARK   22  A    between atoms: CAP_60  and  NAT_61 
REMARK   23  A    between atoms: NAT_61  and  CAN_62 
REMARK   24  A    between atoms: CAN_62  and  CAL_63 
ROOT
HETATM    1  CAY   D T 500       8.094  13.445   7.030  1.00 41.84     0.079 A 
HETATM    2  CAI   D T 500       7.098  14.436   6.804  1.00 42.25     0.020 A 
HETATM    3  CAJ   D T 500       5.719  14.180   6.879  1.00 39.39     0.020 A 
HETATM    4  CBE   D T 500       7.659  12.053   7.358  1.00 38.78     0.061 A 
HETATM    5  CBA   D T 500       8.638  10.959   7.619  1.00 38.89     0.199 A 
HETATM    6  OAA   D T 500       9.866  11.193   7.549  1.00 42.15    -0.286 OA
HETATM    7  CBC   D T 500       8.138   9.589   7.963  1.00 38.64     0.069 A 
HETATM    8  CAW   D T 500       9.056   8.437   8.227  1.00 41.35     0.134 A 
HETATM    9  OAE   D T 500      10.424   8.615   8.177  1.00 47.27    -0.190 OA
HETATM   10  CAG   D T 500       8.505   7.183   8.539  1.00 39.87     0.030 A 
HETATM   11  CAH   D T 500       7.118   6.959   8.602  1.00 38.23     0.030 A 
HETATM   12  CAX   D T 500       6.206   7.980   8.350  1.00 35.83     0.134 A 
HETATM   13  OAF   D T 500       4.875   7.759   8.427  1.00 35.23    -0.190 OA
HETATM   14  CBD   D T 500       6.680   9.336   8.031  1.00 35.97     0.069 A 
HETATM   15  CBB   D T 500       5.713  10.429   7.764  1.00 36.65     0.199 A 
HETATM   16  OAB   D T 500       4.494  10.205   7.819  1.00 36.71    -0.286 OA
HETATM   17  CBF   D T 500       6.196  11.790   7.435  1.00 37.01     0.061 A 
HETATM   18  CAZ   D T 500       5.239  12.903   7.177  1.00 39.54     0.079 A 
ENDROOT
BRANCH   1  19
HETATM   19  NAU   D T 500       9.424  13.736   6.953  1.00 41.74    -0.269 NA
BRANCH  19  20
HETATM   20  CAQ   D T 500       9.992  14.155   5.674  1.00 47.43     0.151 C 
BRANCH  20  21
HETATM   21  CAO   D T 500       9.521  13.325   4.474  1.00 48.34     0.146 C 
BRANCH  21  22
HETATM   22  NAS   D T 500      10.254  12.088   4.338  1.00 49.29    -0.291 NA
BRANCH  22  23
HETATM   23  CAM   D T 500       9.554  10.871   4.003  1.00 49.13     0.155 C 
BRANCH  23  24
HETATM   24  CAK   D T 500      10.491   9.686   4.149  1.00 54.80     0.208 C 
HETATM   25  OAC   D T 500      11.559  10.018   5.047  1.00 60.78    -0.218 OA
ENDBRANCH  23  24
ENDBRANCH  22  23
ENDBRANCH  21  22
ENDBRANCH  20  21
ENDBRANCH  19  20
ENDBRANCH   1  19
BRANCH  18  26
HETATM   26  NAV   D T 500       3.912  12.674   7.265  1.00 45.82    -0.269 NA
BRANCH  26  27
HETATM   27  CAR   D T 500       3.046  13.847   7.197  1.00 50.37     0.151 C 
BRANCH  27  28
HETATM   28  CAP   D T 500       2.052  13.825   6.055  1.00 56.30     0.146 C 
BRANCH  28  29
HETATM   29  NAT   D T 500       0.944  14.724   6.348  1.00 57.16    -0.291 NA
BRANCH  29  30
HETATM   30  CAN   D T 500       1.145  16.149   6.140  1.00 55.30     0.155 C 
BRANCH  30  31
HETATM   31  CAL   D T 500       0.990  16.924   7.439  1.00 53.22     0.208 C 
HETATM   32  OAD   D T 500       2.284  17.467   7.713  1.00 54.28    -0.218 OA
ENDBRANCH  30  31
ENDBRANCH  29  30
ENDBRANCH  28  29
ENDBRANCH  27  28
ENDBRANCH  26  27
ENDBRANCH  18  26
TORSDOF 24
ENDMDL
MODEL 3
REMARK VINA RESULT:    -5.614     12.552     16.485
REMARK INTER + INTRA:         -10.984
REMARK INTER:                  -9.340
REMARK INTRA:                  -1.644
REMARK UNBOUND:                -1.432
REMARK  24 active torsions:
REMARK  status: ('A' for Active; 'I' for Inactive)
REMARK    1  A    between atoms: CAK_2  and  CAM_3 
REMARK    2  A    between atoms: CAM_3  and  NAS_4 
REMARK    3  A    between atoms: NAS_4  and  CAO_5 
REMARK    4  A    between atoms: CAO_5  and  CAQ_6 
REMARK    5  A    between atoms: CAQ_6  and  NAU_7 
REMARK    6  A    between atoms: NAU_7  and  CAY_8 
REMARK    7  A    between atoms: CAZ_25  and  NAV_26 
REMARK    8  A    between atoms: NAV_26  and  CAR_27 
REMARK    9  A    between atoms: CAR_27  and  CAP_28 
REMARK   10  A    between atoms: CAP_28  and  NAT_29 
REMARK   11  A    between atoms: NAT_29  and  CAN_30 
REMARK   12  A    between atoms: CAN_30  and  CAL_31 
REMARK   13  A    between atoms: CAK_34  and  CAM_35 
REMARK   14  A    between atoms: CAM_35  and  NAS_36 
REMARK   15  A    between atoms: NAS_36  and  CAO_37 
REMARK   16  A    between atoms: CAO_37  and  CAQ_38 
REMARK   17  A    between atoms: CAQ_38  and  NAU_39 
REMARK   18  A    between atoms: NAU_39  and  CAY_40 
REMARK   19  A    between atoms: CAZ_57  and  NAV_58 
REMARK   20  A    between atoms: NAV_58  and  CAR_59 
REMARK   21  A    between atoms: CAR_59  and  CAP_60 
REMARK   22  A    between atoms: CAP_60  and  NAT_61 
REMARK   23  A    between atoms: NAT_61  and  CAN_62 
REMARK   24  A    between atoms: CAN_62  and  CAL_63 
ROOT
HETATM    1  CAY   D T 500      11.210   3.138   1.071  1.00 41.84     0.079 A 
HETATM    2  CAI   D T 500      10.796   4.278   1.814  1.00 42.25     0.020 A 
HETATM    3  CAJ   D T 500       9.939   5.267   1.302  1.00 39.39     0.020 A 
HETATM    4  CBE   D T 500      10.719   2.979  -0.332  1.00 38.78     0.061 A 
HETATM    5  CBA   D T 500      11.099   1.808  -1.174  1.00 38.89     0.199 A 
HETATM    6  OAA   D T 500      11.863   0.932  -0.714  1.00 42.15    -0.286 OA
HETATM    7  CBC   D T 500      10.556   1.696  -2.567  1.00 38.64     0.069 A 
HETATM    8  CAW   D T 500      10.898   0.559  -3.478  1.00 41.35     0.134 A 
HETATM    9  OAE   D T 500      11.730  -0.452  -3.042  1.00 47.27    -0.190 OA
HETATM   10  CAG   D T 500      10.349   0.532  -4.771  1.00 39.87     0.030 A 
HETATM   11  CAH   D T 500       9.497   1.541  -5.254  1.00 38.23     0.030 A 
HETATM   12  CAX   D T 500       9.151   2.636  -4.468  1.00 35.83     0.134 A 
HETATM   13  OAF   D T 500       8.320   3.594  -4.936  1.00 35.23    -0.190 OA
HETATM   14  CBD   D T 500       9.659   2.752  -3.091  1.00 35.97     0.069 A 
HETATM   15  CBB   D T 500       9.292   3.916  -2.248  1.00 36.65     0.199 A 
HETATM   16  OAB   D T 500       8.544   4.797  -2.700  1.00 36.71    -0.286 OA
HETATM   17  CBF   D T 500       9.812   4.031  -0.867  1.00 37.01     0.061 A 
HETATM   18  CAZ   D T 500       9.444   5.186  -0.000  1.00 39.54     0.079 A 
ENDROOT
BRANCH   1  19
HETATM   19  NAU   D T 500      12.040   2.197   1.606  1.00 41.74    -0.269 NA
BRANCH  19  20
HETATM   20  CAQ   D T 500      11.980   1.923   3.040  1.00 47.43     0.151 C 
BRANCH  20  21
HETATM   21  CAO   D T 500      12.684   0.629   3.464  1.00 48.34     0.146 C 
BRANCH  21  22
HETATM   22  NAS   D T 500      12.204  -0.523   2.737  1.00 49.29    -0.291 NA
BRANCH  22  23
HETATM   23  CAM   D T 500      10.852  -0.986   2.936  1.00 49.13     0.155 C 
BRANCH  23  24
HETATM   24  CAK   D T 500      10.148  -1.101   1.595  1.00 54.80     0.208 C 
HETATM   25  OAC   D T 500       9.303   0.040   1.391  1.00 60.78    -0.218 OA
ENDBRANCH  23  24
ENDBRANCH  22  23
ENDBRANCH  21  22
ENDBRANCH  20  21
ENDBRANCH  19  20
ENDBRANCH   1  19
BRANCH  18  26
HETATM   26  NAV   D T 500       8.606   6.133  -0.474  1.00 45.82    -0.269 NA
BRANCH  26  27
HETATM   27  CAR   D T 500       9.074   7.513  -0.392  1.00 50.37     0.151 C 
BRANCH  27  28
HETATM   28  CAP   D T 500       9.853   7.982  -1.601  1.00 56.30     0.146 C 
BRANCH  28  29
HETATM   29  NAT   D T 500      11.116   8.571  -1.178  1.00 57.16    -0.291 NA
BRANCH  29  30
HETATM   30  CAN   D T 500      11.600   8.265   0.159  1.00 55.30     0.155 C 
BRANCH  30  31
HETATM   31  CAL   D T 500      12.786   7.315   0.113  1.00 53.22     0.208 C 
HETATM   32  OAD   D T 500      13.659   7.746   1.159  1.00 54.28    -0.218 OA
ENDBRANCH  30  31
ENDBRANCH  29  30
ENDBRANCH  28  29
ENDBRANCH  27  28
ENDBRANCH  26  27
ENDBRANCH  18  26
TORSDOF 24
ENDMDL
MODEL 4
REMARK VINA RESULT:    -5.582     12.752     16.555
REMARK INTER + INTRA:         -10.930
REMARK INTER:                 -10.099
REMARK INTRA:                  -0.831
REMARK UNBOUND:                -1.432
REMARK  24 active torsions:
REMARK  status: ('A' for Active; 'I' for Inactive)
REMARK    1  A    between atoms: CAK_2  and  CAM_3 
REMARK    2  A    between atoms: CAM_3  and  NAS_4 
REMARK    3  A    between atoms: NAS_4  and  CAO_5 
REMARK    4  A    between atoms: CAO_5  and  CAQ_6 
REMARK    5  A    between atoms: CAQ_6  and  NAU_7 
REMARK    6  A    between atoms: NAU_7  and  CAY_8 
REMARK    7  A    between atoms: CAZ_25  and  NAV_26 
REMARK    8  A    between atoms: NAV_26  and  CAR_27 
REMARK    9  A    between atoms: CAR_27  and  CAP_28 
REMARK   10  A    between atoms: CAP_28  and  NAT_29 
REMARK   11  A    between atoms: NAT_29  and  CAN_30 
REMARK   12  A    between atoms: CAN_30  and  CAL_31 
REMARK   13  A    between atoms: CAK_34  and  CAM_35 
REMARK   14  A    between atoms: CAM_35  and  NAS_36 
REMARK   15  A    between atoms: NAS_36  and  CAO_37 
REMARK   16  A    between atoms: CAO_37  and  CAQ_38 
REMARK   17  A    between atoms: CAQ_38  and  NAU_39 
REMARK   18  A    between atoms: NAU_39  and  CAY_40 
REMARK   19  A    between atoms: CAZ_57  and  NAV_58 
REMARK   20  A    between atoms: NAV_58  and  CAR_59 
REMARK   21  A    between atoms: CAR_59  and  CAP_60 
REMARK   22  A    between atoms: CAP_60  and  NAT_61 
REMARK   23  A    between atoms: NAT_61  and  CAN_62 
REMARK   24  A    between atoms: CAN_62  and  CAL_63 
ROOT
HETATM    1  CAY   D T 500      10.107   3.554  -3.820  1.00 41.84     0.079 A 
HETATM    2  CAI   D T 500      10.255   2.140  -3.773  1.00 42.25     0.020 A 
HETATM    3  CAJ   D T 500      10.272   1.402  -2.579  1.00 39.39     0.020 A 
HETATM    4  CBE   D T 500       9.970   4.303  -2.534  1.00 38.78     0.061 A 
HETATM    5  CBA   D T 500       9.803   5.785  -2.496  1.00 38.89     0.199 A 
HETATM    6  OAA   D T 500       9.789   6.437  -3.564  1.00 42.15    -0.286 OA
HETATM    7  CBC   D T 500       9.650   6.475  -1.175  1.00 38.64     0.069 A 
HETATM    8  CAW   D T 500       9.488   7.958  -1.052  1.00 41.35     0.134 A 
HETATM    9  OAE   D T 500       9.456   8.748  -2.184  1.00 47.27    -0.190 OA
HETATM   10  CAG   D T 500       9.356   8.527   0.226  1.00 39.87     0.030 A 
HETATM   11  CAH   D T 500       9.381   7.758   1.403  1.00 38.23     0.030 A 
HETATM   12  CAX   D T 500       9.547   6.377   1.365  1.00 35.83     0.134 A 
HETATM   13  OAF   D T 500       9.556   5.646   2.501  1.00 35.23    -0.190 OA
HETATM   14  CBD   D T 500       9.678   5.681   0.075  1.00 35.97     0.069 A 
HETATM   15  CBB   D T 500       9.851   4.208   0.028  1.00 36.65     0.199 A 
HETATM   16  OAB   D T 500       9.878   3.554   1.081  1.00 36.71    -0.286 OA
HETATM   17  CBF   D T 500       9.991   3.514  -1.272  1.00 37.01     0.061 A 
HETATM   18  CAZ   D T 500      10.153   2.034  -1.340  1.00 39.54     0.079 A 
ENDROOT
BRANCH   1  19
HETATM   19  NAU   D T 500      10.089   4.234  -5.003  1.00 41.74    -0.269 NA
BRANCH  19  20
HETATM   20  CAQ   D T 500       9.040   3.946  -5.977  1.00 47.43     0.151 C 
BRANCH  20  21
HETATM   21  CAO   D T 500       7.616   4.115  -5.436  1.00 48.34     0.146 C 
BRANCH  21  22
HETATM   22  NAS   D T 500       6.614   3.977  -6.467  1.00 49.29    -0.291 NA
BRANCH  22  23
HETATM   23  CAM   D T 500       6.925   4.352  -7.826  1.00 49.13     0.155 C 
BRANCH  23  24
HETATM   24  CAK   D T 500       5.947   3.686  -8.777  1.00 54.80     0.208 C 
HETATM   25  OAC   D T 500       4.999   4.652  -9.254  1.00 60.78    -0.218 OA
ENDBRANCH  23  24
ENDBRANCH  22  23
ENDBRANCH  21  22
ENDBRANCH  20  21
ENDBRANCH  19  20
ENDBRANCH   1  19
BRANCH  18  26
HETATM   26  NAV   D T 500      10.152   1.311  -0.200  1.00 45.82    -0.269 NA
BRANCH  26  27
HETATM   27  CAR   D T 500      11.363   0.547   0.084  1.00 50.37     0.151 C 
BRANCH  27  28
HETATM   28  CAP   D T 500      11.147  -0.659   0.972  1.00 56.30     0.146 C 
BRANCH  28  29
HETATM   29  NAT   D T 500      12.150  -1.673   0.681  1.00 57.16    -0.291 NA
BRANCH  29  30
HETATM   30  CAN   D T 500      11.704  -2.937   0.116  1.00 55.30     0.155 C 
BRANCH  30  31
HETATM   31  CAL   D T 500      11.278  -3.909   1.205  1.00 53.22     0.208 C 
HETATM   32  OAD   D T 500      12.461  -4.171   1.963  1.00 54.28    -0.218 OA
ENDBRANCH  30  31
ENDBRANCH  29  30
ENDBRANCH  28  29
ENDBRANCH  27  28
ENDBRANCH  26  27
ENDBRANCH  18  26
TORSDOF 24
ENDMDL
MODEL 5
REMARK VINA RESULT:    -5.546      6.845     11.437
REMARK INTER + INTRA:         -10.867
REMARK INTER:                  -9.333
REMARK INTRA:                  -1.534
REMARK UNBOUND:                -1.432
REMARK  24 active torsions:
REMARK  status: ('A' for Active; 'I' for Inactive)
REMARK    1  A    between atoms: CAK_2  and  CAM_3 
REMARK    2  A    between atoms: CAM_3  and  NAS_4 
REMARK    3  A    between atoms: NAS_4  and  CAO_5 
REMARK    4  A    between atoms: CAO_5  and  CAQ_6 
REMARK    5  A    between atoms: CAQ_6  and  NAU_7 
REMARK    6  A    between atoms: NAU_7  and  CAY_8 
REMARK    7  A    between atoms: CAZ_25  and  NAV_26 
REMARK    8  A    between atoms: NAV_26  and  CAR_27 
REMARK    9  A    between atoms: CAR_27  and  CAP_28 
REMARK   10  A    between atoms: CAP_28  and  NAT_29 
REMARK   11  A    between atoms: NAT_29  and  CAN_30 
REMARK   12  A    between atoms: CAN_30  and  CAL_31 
REMARK   13  A    between atoms: CAK_34  and  CAM_35 
REMARK   14  A    between atoms: CAM_35  and  NAS_36 
REMARK   15  A    between atoms: NAS_36  and  CAO_37 
REMARK   16  A    between atoms: CAO_37  and  CAQ_38 
REMARK   17  A    between atoms: CAQ_38  and  NAU_39 
REMARK   18  A    between atoms: NAU_39  and  CAY_40 
REMARK   19  A    between atoms: CAZ_57  and  NAV_58 
REMARK   20  A    between atoms: NAV_58  and  CAR_59 
REMARK   21  A    between atoms: CAR_59  and  CAP_60 
REMARK   22  A    between atoms: CAP_60  and  NAT_61 
REMARK   23  A    between atoms: NAT_61  and  CAN_62 
REMARK   24  A    between atoms: CAN_62  and  CAL_63 
ROOT
HETATM    1  CAY   D T 500       8.162  13.398   7.090  1.00 41.84     0.079 A 
HETATM    2  CAI   D T 500       7.136  14.358   6.867  1.00 42.25     0.020 A 
HETATM    3  CAJ   D T 500       5.766  14.059   6.942  1.00 39.39     0.020 A 
HETATM    4  CBE   D T 500       7.770  11.993   7.414  1.00 38.78     0.061 A 
HETATM    5  CBA   D T 500       8.784  10.929   7.671  1.00 38.89     0.199 A 
HETATM    6  OAA   D T 500      10.003  11.201   7.601  1.00 42.15    -0.286 OA
HETATM    7  CBC   D T 500       8.326   9.543   8.011  1.00 38.64     0.069 A 
HETATM    8  CAW   D T 500       9.279   8.419   8.272  1.00 41.35     0.134 A 
HETATM    9  OAE   D T 500      10.642   8.639   8.221  1.00 47.27    -0.190 OA
HETATM   10  CAG   D T 500       8.768   7.147   8.580  1.00 39.87     0.030 A 
HETATM   11  CAH   D T 500       7.388   6.881   8.644  1.00 38.23     0.030 A 
HETATM   12  CAX   D T 500       6.445   7.873   8.396  1.00 35.83     0.134 A 
HETATM   13  OAF   D T 500       5.122   7.611   8.472  1.00 35.23    -0.190 OA
HETATM   14  CBD   D T 500       6.877   9.245   8.079  1.00 35.97     0.069 A 
HETATM   15  CBB   D T 500       5.876  10.308   7.817  1.00 36.65     0.199 A 
HETATM   16  OAB   D T 500       4.665  10.045   7.871  1.00 36.71    -0.286 OA
HETATM   17  CBF   D T 500       6.316  11.684   7.491  1.00 37.01     0.061 A 
HETATM   18  CAZ   D T 500       5.326  12.768   7.237  1.00 39.54     0.079 A 
ENDROOT
BRANCH   1  19
HETATM   19  NAU   D T 500       9.483  13.730   7.013  1.00 41.74    -0.269 NA
BRANCH  19  20
HETATM   20  CAQ   D T 500      10.033  14.181   5.737  1.00 47.43     0.151 C 
BRANCH  20  21
HETATM   21  CAO   D T 500       9.567  13.365   4.526  1.00 48.34     0.146 C 
BRANCH  21  22
HETATM   22  NAS   D T 500       9.301  14.192   3.373  1.00 49.29    -0.291 NA
BRANCH  22  23
HETATM   23  CAM   D T 500       8.536  15.407   3.520  1.00 49.13     0.155 C 
BRANCH  23  24
HETATM   24  CAK   D T 500       7.219  15.276   2.775  1.00 54.80     0.208 C 
HETATM   25  OAC   D T 500       6.381  16.402   3.069  1.00 60.78    -0.218 OA
ENDBRANCH  23  24
ENDBRANCH  22  23
ENDBRANCH  21  22
ENDBRANCH  20  21
ENDBRANCH  19  20
ENDBRANCH   1  19
BRANCH  18  26
HETATM   26  NAV   D T 500       4.006  12.498   7.325  1.00 45.82    -0.269 NA
BRANCH  26  27
HETATM   27  CAR   D T 500       3.278  13.166   8.399  1.00 50.37     0.151 C 
BRANCH  27  28
HETATM   28  CAP   D T 500       3.223  12.388   9.696  1.00 56.30     0.146 C 
BRANCH  28  29
HETATM   29  NAT   D T 500       3.673  13.229  10.796  1.00 57.16    -0.291 NA
BRANCH  29  30
HETATM   30  CAN   D T 500       4.797  12.769  11.596  1.00 55.30     0.155 C 
BRANCH  30  31
HETATM   31  CAL   D T 500       6.121  13.069  10.912  1.00 53.22     0.208 C 
HETATM   32  OAD   D T 500       6.826  11.826  10.889  1.00 54.28    -0.218 OA
ENDBRANCH  30  31
ENDBRANCH  29  30
ENDBRANCH  28  29
ENDBRANCH  27  28
ENDBRANCH  26  27
ENDBRANCH  18  26
TORSDOF 24
ENDMDL
MODEL 6
REMARK VINA RESULT:    -5.541     12.108     16.111
REMARK INTER + INTRA:         -10.859
REMARK INTER:                  -9.984
REMARK INTRA:                  -0.875
REMARK UNBOUND:                -1.432
REMARK  24 active torsions:
REMARK  status: ('A' for Active; 'I' for Inactive)
REMARK    1  A    between atoms: CAK_2  and  CAM_3 
REMARK    2  A    between atoms: CAM_3  and  NAS_4 
REMARK    3  A    between atoms: NAS_4  and  CAO_5 
REMARK    4  A    between atoms: CAO_5  and  CAQ_6 
REMARK    5  A    between atoms: CAQ_6  and  NAU_7 
REMARK    6  A    between atoms: NAU_7  and  CAY_8 
REMARK    7  A    between atoms: CAZ_25  and  NAV_26 
REMARK    8  A    between atoms: NAV_26  and  CAR_27 
REMARK    9  A    between atoms: CAR_27  and  CAP_28 
REMARK   10  A    between atoms: CAP_28  and  NAT_29 
REMARK   11  A    between atoms: NAT_29  and  CAN_30 
REMARK   12  A    between atoms: CAN_30  and  CAL_31 
REMARK   13  A    between atoms: CAK_34  and  CAM_35 
REMARK   14  A    between atoms: CAM_35  and  NAS_36 
REMARK   15  A    between atoms: NAS_36  and  CAO_37 
REMARK   16  A    between atoms: CAO_37  and  CAQ_38 
REMARK   17  A    between atoms: CAQ_38  and  NAU_39 
REMARK   18  A    between atoms: NAU_39  and  CAY_40 
REMARK   19  A    between atoms: CAZ_57  and  NAV_58 
REMARK   20  A    between atoms: NAV_58  and  CAR_59 
REMARK   21  A    between atoms: CAR_59  and  CAP_60 
REMARK   22  A    between atoms: CAP_60  and  NAT_61 
REMARK   23  A    between atoms: NAT_61  and  CAN_62 
REMARK   24  A    between atoms: CAN_62  and  CAL_63 
ROOT
HETATM    1  CAY   D T 500       9.950   3.924  -1.832  1.00 41.84     0.079 A 
HETATM    2  CAI   D T 500      10.352   2.567  -1.690  1.00 42.25     0.020 A 
HETATM    3  CAJ   D T 500      10.704   1.987  -0.460  1.00 39.39     0.020 A 
HETATM    4  CBE   D T 500       9.903   4.789  -0.613  1.00 38.78     0.061 A 
HETATM    5  CBA   D T 500       9.483   6.219  -0.674  1.00 38.89     0.199 A 
HETATM    6  OAA   D T 500       9.172   6.730  -1.772  1.00 42.15    -0.286 OA
HETATM    7  CBC   D T 500       9.437   7.027   0.588  1.00 38.64     0.069 A 
HETATM    8  CAW   D T 500       9.037   8.469   0.609  1.00 41.35     0.134 A 
HETATM    9  OAE   D T 500       8.674   9.104  -0.562  1.00 47.27    -0.190 OA
HETATM   10  CAG   D T 500       9.026   9.156   1.834  1.00 39.87     0.030 A 
HETATM   11  CAH   D T 500       9.387   8.546   3.048  1.00 38.23     0.030 A 
HETATM   12  CAX   D T 500       9.787   7.214   3.100  1.00 35.83     0.134 A 
HETATM   13  OAF   D T 500      10.120   6.633   4.274  1.00 35.23    -0.190 OA
HETATM   14  CBD   D T 500       9.818   6.400   1.874  1.00 35.97     0.069 A 
HETATM   15  CBB   D T 500      10.240   4.979   1.924  1.00 36.65     0.199 A 
HETATM   16  OAB   D T 500      10.562   4.466   3.007  1.00 36.71    -0.286 OA
HETATM   17  CBF   D T 500      10.278   4.167   0.687  1.00 37.01     0.061 A 
HETATM   18  CAZ   D T 500      10.687   2.734   0.719  1.00 39.54     0.079 A 
ENDROOT
BRANCH   1  19
HETATM   19  NAU   D T 500       9.611   4.449  -3.044  1.00 41.74    -0.269 NA
BRANCH  19  20
HETATM   20  CAQ   D T 500       8.728   3.692  -3.929  1.00 47.43     0.151 C 
BRANCH  20  21
HETATM   21  CAO   D T 500       7.254   3.706  -3.509  1.00 48.34     0.146 C 
BRANCH  21  22
HETATM   22  NAS   D T 500       6.370   3.329  -4.587  1.00 49.29    -0.291 NA
BRANCH  22  23
HETATM   23  CAM   D T 500       6.495   3.966  -5.876  1.00 49.13     0.155 C 
BRANCH  23  24
HETATM   24  CAK   D T 500       6.318   2.935  -6.976  1.00 54.80     0.208 C 
HETATM   25  OAC   D T 500       6.515   1.617  -6.443  1.00 60.78    -0.218 OA
ENDBRANCH  23  24
ENDBRANCH  22  23
ENDBRANCH  21  22
ENDBRANCH  20  21
ENDBRANCH  19  20
ENDBRANCH   1  19
BRANCH  18  26
HETATM   26  NAV   D T 500      11.008   2.160   1.898  1.00 45.82    -0.269 NA
BRANCH  26  27
HETATM   27  CAR   D T 500      10.861   0.710   1.974  1.00 50.37     0.151 C 
BRANCH  27  28
HETATM   28  CAP   D T 500      11.293   0.106   3.293  1.00 56.30     0.146 C 
BRANCH  28  29
HETATM   29  NAT   D T 500      10.713  -1.221   3.442  1.00 57.16    -0.291 NA
BRANCH  29  30
HETATM   30  CAN   D T 500      11.335  -2.325   2.727  1.00 55.30     0.155 C 
BRANCH  30  31
HETATM   31  CAL   D T 500      10.384  -2.926   1.705  1.00 53.22     0.208 C 
HETATM   32  OAD   D T 500      11.156  -3.077   0.512  1.00 54.28    -0.218 OA
ENDBRANCH  30  31
ENDBRANCH  29  30
ENDBRANCH  28  29
ENDBRANCH  27  28
ENDBRANCH  26  27
ENDBRANCH  18  26
TORSDOF 24
ENDMDL
MODEL 7
REMARK VINA RESULT:    -5.528     13.145     17.008
REMARK INTER + INTRA:         -10.837
REMARK INTER:                  -9.200
REMARK INTRA:                  -1.638
REMARK UNBOUND:                -1.432
REMARK  24 active torsions:
REMARK  status: ('A' for Active; 'I' for Inactive)
REMARK    1  A    between atoms: CAK_2  and  CAM_3 
REMARK    2  A    between atoms: CAM_3  and  NAS_4 
REMARK    3  A    between atoms: NAS_4  and  CAO_5 
REMARK    4  A    between atoms: CAO_5  and  CAQ_6 
REMARK    5  A    between atoms: CAQ_6  and  NAU_7 
REMARK    6  A    between atoms: NAU_7  and  CAY_8 
REMARK    7  A    between atoms: CAZ_25  and  NAV_26 
REMARK    8  A    between atoms: NAV_26  and  CAR_27 
REMARK    9  A    between atoms: CAR_27  and  CAP_28 
REMARK   10  A    between atoms: CAP_28  and  NAT_29 
REMARK   11  A    between atoms: NAT_29  and  CAN_30 
REMARK   12  A    between atoms: CAN_30  and  CAL_31 
REMARK   13  A    between atoms: CAK_34  and  CAM_35 
REMARK   14  A    between atoms: CAM_35  and  NAS_36 
REMARK   15  A    between atoms: NAS_36  and  CAO_37 
REMARK   16  A    between atoms: CAO_37  and  CAQ_38 
REMARK   17  A    between atoms: CAQ_38  and  NAU_39 
REMARK   18  A    between atoms: NAU_39  and  CAY_40 
REMARK   19  A    between atoms: CAZ_57  and  NAV_58 
REMARK   20  A    between atoms: NAV_58  and  CAR_59 
REMARK   21  A    between atoms: CAR_59  and  CAP_60 
REMARK   22  A    between atoms: CAP_60  and  NAT_61 
REMARK   23  A    between atoms: NAT_61  and  CAN_62 
REMARK   24  A    between atoms: CAN_62  and  CAL_63 
ROOT
HETATM    1  CAY   D T 500      10.115   4.836   0.934  1.00 41.84     0.079 A 
HETATM    2  CAI   D T 500      10.531   4.461   2.241  1.00 42.25     0.020 A 
HETATM    3  CAJ   D T 500      11.111   3.218   2.543  1.00 39.39     0.020 A 
HETATM    4  CBE   D T 500      10.293   3.859  -0.183  1.00 38.78     0.061 A 
HETATM    5  CBA   D T 500       9.892   4.177  -1.584  1.00 38.89     0.199 A 
HETATM    6  OAA   D T 500       9.375   5.286  -1.847  1.00 42.15    -0.286 OA
HETATM    7  CBC   D T 500      10.115   3.161  -2.663  1.00 38.64     0.069 A 
HETATM    8  CAW   D T 500       9.731   3.400  -4.090  1.00 41.35     0.134 A 
HETATM    9  OAE   D T 500       9.162   4.602  -4.462  1.00 47.27    -0.190 OA
HETATM   10  CAG   D T 500       9.971   2.393  -5.040  1.00 39.87     0.030 A 
HETATM   11  CAH   D T 500      10.550   1.157  -4.702  1.00 38.23     0.030 A 
HETATM   12  CAX   D T 500      10.915   0.859  -3.393  1.00 35.83     0.134 A 
HETATM   13  OAF   D T 500      11.483  -0.327  -3.081  1.00 35.23    -0.190 OA
HETATM   14  CBD   D T 500      10.721   1.853  -2.324  1.00 35.97     0.069 A 
HETATM   15  CBB   D T 500      11.112   1.543  -0.928  1.00 36.65     0.199 A 
HETATM   16  OAB   D T 500      11.613   0.442  -0.654  1.00 36.71    -0.286 OA
HETATM   17  CBF   D T 500      10.906   2.543   0.145  1.00 37.01     0.061 A 
HETATM   18  CAZ   D T 500      11.304   2.254   1.552  1.00 39.54     0.079 A 
ENDROOT
BRANCH   1  19
HETATM   19  NAU   D T 500       9.561   6.057   0.680  1.00 41.74    -0.269 NA
BRANCH  19  20
HETATM   20  CAQ   D T 500      10.282   7.265   1.075  1.00 47.43     0.151 C 
BRANCH  20  21
HETATM   21  CAO   D T 500      11.280   7.772   0.028  1.00 48.34     0.146 C 
BRANCH  21  22
HETATM   22  NAS   D T 500      12.618   7.282   0.258  1.00 49.29    -0.291 NA
BRANCH  22  23
HETATM   23  CAM   D T 500      13.208   6.342  -0.664  1.00 49.13     0.155 C 
BRANCH  23  24
HETATM   24  CAK   D T 500      13.902   5.234   0.108  1.00 54.80     0.208 C 
HETATM   25  OAC   D T 500      13.854   4.013  -0.643  1.00 60.78    -0.218 OA
ENDBRANCH  23  24
ENDBRANCH  22  23
ENDBRANCH  21  22
ENDBRANCH  20  21
ENDBRANCH  19  20
ENDBRANCH   1  19
BRANCH  18  26
HETATM   26  NAV   D T 500      11.880   1.070   1.852  1.00 45.82    -0.269 NA
BRANCH  26  27
HETATM   27  CAR   D T 500      11.839   0.666   3.253  1.00 50.37     0.151 C 
BRANCH  27  28
HETATM   28  CAP   D T 500      10.925  -0.506   3.540  1.00 56.30     0.146 C 
BRANCH  28  29
HETATM   29  NAT   D T 500      11.327  -1.653   2.739  1.00 57.16    -0.291 NA
BRANCH  29  30
HETATM   30  CAN   D T 500      10.291  -2.403   2.046  1.00 55.30     0.155 C 
BRANCH  30  31
HETATM   31  CAL   D T 500      10.886  -3.517   1.201  1.00 53.22     0.208 C 
HETATM   32  OAD   D T 500      11.607  -2.858   0.157  1.00 54.28    -0.218 OA
ENDBRANCH  30  31
ENDBRANCH  29  30
ENDBRANCH  28  29
ENDBRANCH  27  28
ENDBRANCH  26  27
ENDBRANCH  18  26
TORSDOF 24
ENDMDL
MODEL 8
REMARK VINA RESULT:    -5.483     12.686     16.154
REMARK INTER + INTRA:         -10.761
REMARK INTER:                  -9.957
REMARK INTRA:                  -0.805
REMARK UNBOUND:                -1.432
REMARK  24 active torsions:
REMARK  status: ('A' for Active; 'I' for Inactive)
REMARK    1  A    between atoms: CAK_2  and  CAM_3 
REMARK    2  A    between atoms: CAM_3  and  NAS_4 
REMARK    3  A    between atoms: NAS_4  and  CAO_5 
REMARK    4  A    between atoms: CAO_5  and  CAQ_6 
REMARK    5  A    between atoms: CAQ_6  and  NAU_7 
REMARK    6  A    between atoms: NAU_7  and  CAY_8 
REMARK    7  A    between atoms: CAZ_25  and  NAV_26 
REMARK    8  A    between atoms: NAV_26  and  CAR_27 
REMARK    9  A    between atoms: CAR_27  and  CAP_28 
REMARK   10  A    between atoms: CAP_28  and  NAT_29 
REMARK   11  A    between atoms: NAT_29  and  CAN_30 
REMARK   12  A    between atoms: CAN_30  and  CAL_31 
REMARK   13  A    between atoms: CAK_34  and  CAM_35 
REMARK   14  A    between atoms: CAM_35  and  NAS_36 
REMARK   15  A    between atoms: NAS_36  and  CAO_37 
REMARK   16  A    between atoms: CAO_37  and  CAQ_38 
REMARK   17  A    between atoms: CAQ_38  and  NAU_39 
REMARK   18  A    between atoms: NAU_39  and  CAY_40 
REMARK   19  A    between atoms: CAZ_57  and  NAV_58 
REMARK   20  A    between atoms: NAV_58  and  CAR_59 
REMARK   21  A    between atoms: CAR_59  and  CAP_60 
REMARK   22  A    between atoms: CAP_60  and  NAT_61 
REMARK   23  A    between atoms: NAT_61  and  CAN_62 
REMARK   24  A    between atoms: CAN_62  and  CAL_63 
ROOT
HETATM    1  CAY   D T 500      10.918   2.171   0.685  1.00 41.84     0.079 A 
HETATM    2  CAI   D T 500      11.064   1.320  -0.445  1.00 42.25     0.020 A 
HETATM    3  CAJ   D T 500      10.860   1.745  -1.768  1.00 39.39     0.020 A 
HETATM    4  CBE   D T 500      10.518   3.594   0.463  1.00 38.78     0.061 A 
HETATM    5  CBA   D T 500      10.352   4.554   1.592  1.00 38.89     0.199 A 
HETATM    6  OAA   D T 500      10.534   4.169   2.769  1.00 42.15    -0.286 OA
HETATM    7  CBC   D T 500       9.969   5.974   1.302  1.00 38.64     0.069 A 
HETATM    8  CAW   D T 500       9.773   6.994   2.380  1.00 41.35     0.134 A 
HETATM    9  OAE   D T 500       9.962   6.649   3.703  1.00 47.27    -0.190 OA
HETATM   10  CAG   D T 500       9.408   8.303   2.022  1.00 39.87     0.030 A 
HETATM   11  CAH   D T 500       9.208   8.695   0.687  1.00 38.23     0.030 A 
HETATM   12  CAX   D T 500       9.355   7.796  -0.364  1.00 35.83     0.134 A 
HETATM   13  OAF   D T 500       9.173   8.186  -1.645  1.00 35.23    -0.190 OA
HETATM   14  CBD   D T 500       9.750   6.403  -0.099  1.00 35.97     0.069 A 
HETATM   15  CBB   D T 500       9.912   5.440  -1.215  1.00 36.65     0.199 A 
HETATM   16  OAB   D T 500       9.721   5.808  -2.384  1.00 36.71    -0.286 OA
HETATM   17  CBF   D T 500      10.302   4.037  -0.942  1.00 37.01     0.061 A 
HETATM   18  CAZ   D T 500      10.481   3.059  -2.051  1.00 39.54     0.079 A 
ENDROOT
BRANCH   1  19
HETATM   19  NAU   D T 500      11.131   1.720   1.955  1.00 41.74    -0.269 NA
BRANCH  19  20
HETATM   20  CAQ   D T 500      11.678   0.380   2.155  1.00 47.43     0.151 C 
BRANCH  20  21
HETATM   21  CAO   D T 500      11.018  -0.404   3.295  1.00 48.34     0.146 C 
BRANCH  21  22
HETATM   22  NAS   D T 500      10.683  -1.756   2.912  1.00 49.29    -0.291 NA
BRANCH  22  23
HETATM   23  CAM   D T 500      11.711  -2.638   2.416  1.00 49.13     0.155 C 
BRANCH  23  24
HETATM   24  CAK   D T 500      11.309  -3.177   1.054  1.00 54.80     0.208 C 
HETATM   25  OAC   D T 500      10.360  -4.241   1.214  1.00 60.78    -0.218 OA
ENDBRANCH  23  24
ENDBRANCH  22  23
ENDBRANCH  21  22
ENDBRANCH  20  21
ENDBRANCH  19  20
ENDBRANCH   1  19
BRANCH  18  26
HETATM   26  NAV   D T 500      10.306   3.460  -3.328  1.00 45.82    -0.269 NA
BRANCH  26  27
HETATM   27  CAR   D T 500      10.104   2.407  -4.317  1.00 50.37     0.151 C 
BRANCH  27  28
HETATM   28  CAP   D T 500       8.832   2.544  -5.126  1.00 56.30     0.146 C 
BRANCH  28  29
HETATM   29  NAT   D T 500       7.687   2.640  -4.232  1.00 57.16    -0.291 NA
BRANCH  29  30
HETATM   30  CAN   D T 500       6.433   3.139  -4.776  1.00 55.30     0.155 C 
BRANCH  30  31
HETATM   31  CAL   D T 500       6.402   3.019  -6.291  1.00 53.22     0.208 C 
HETATM   32  OAD   D T 500       5.807   1.747  -6.558  1.00 54.28    -0.218 OA
ENDBRANCH  30  31
ENDBRANCH  29  30
ENDBRANCH  28  29
ENDBRANCH  27  28
ENDBRANCH  26  27
ENDBRANCH  18  26
TORSDOF 24
ENDMDL
MODEL 9
REMARK VINA RESULT:    -5.377      3.306      6.301
REMARK INTER + INTRA:         -10.581
REMARK INTER:                  -9.554
REMARK INTRA:                  -1.028
REMARK UNBOUND:                -1.432
REMARK  24 active torsions:
REMARK  status: ('A' for Active; 'I' for Inactive)
REMARK    1  A    between atoms: CAK_2  and  CAM_3 
REMARK    2  A    between atoms: CAM_3  and  NAS_4 
REMARK    3  A    between atoms: NAS_4  and  CAO_5 
REMARK    4  A    between atoms: CAO_5  and  CAQ_6 
REMARK    5  A    between atoms: CAQ_6  and  NAU_7 
REMARK    6  A    between atoms: NAU_7  and  CAY_8 
REMARK    7  A    between atoms: CAZ_25  and  NAV_26 
REMARK    8  A    between atoms: NAV_26  and  CAR_27 
REMARK    9  A    between atoms: CAR_27  and  CAP_28 
REMARK   10  A    between atoms: CAP_28  and  NAT_29 
REMARK   11  A    between atoms: NAT_29  and  CAN_30 
REMARK   12  A    between atoms: CAN_30  and  CAL_31 
REMARK   13  A    between atoms: CAK_34  and  CAM_35 
REMARK   14  A    between atoms: CAM_35  and  NAS_36 
REMARK   15  A    between atoms: NAS_36  and  CAO_37 
REMARK   16  A    between atoms: CAO_37  and  CAQ_38 
REMARK   17  A    between atoms: CAQ_38  and  NAU_39 
REMARK   18  A    between atoms: NAU_39  and  CAY_40 
REMARK   19  A    between atoms: CAZ_57  and  NAV_58 
REMARK   20  A    between atoms: NAV_58  and  CAR_59 
REMARK   21  A    between atoms: CAR_59  and  CAP_60 
REMARK   22  A    between atoms: CAP_60  and  NAT_61 
REMARK   23  A    between atoms: NAT_61  and  CAN_62 
REMARK   24  A    between atoms: CAN_62  and  CAL_63 
ROOT
HETATM    1  CAY   D T 500       7.464  15.551   3.784  1.00 41.84     0.079 A 
HETATM    2  CAI   D T 500       8.449  14.530   3.893  1.00 42.25     0.020 A 
HETATM    3  CAJ   D T 500       9.126  13.986   2.790  1.00 39.39     0.020 A 
HETATM    4  CBE   D T 500       7.119  16.073   2.427  1.00 38.78     0.061 A 
HETATM    5  CBA   D T 500       6.106  17.148   2.227  1.00 38.89     0.199 A 
HETATM    6  OAA   D T 500       5.505  17.629   3.214  1.00 42.15    -0.286 OA
HETATM    7  CBC   D T 500       5.820  17.643   0.841  1.00 38.64     0.069 A 
HETATM    8  CAW   D T 500       4.811  18.711   0.557  1.00 41.35     0.134 A 
HETATM    9  OAE   D T 500       4.110  19.296   1.593  1.00 47.27    -0.190 OA
HETATM   10  CAG   D T 500       4.599  19.114  -0.772  1.00 39.87     0.030 A 
HETATM   11  CAH   D T 500       5.293  18.545  -1.856  1.00 38.23     0.030 A 
HETATM   12  CAX   D T 500       6.231  17.536  -1.667  1.00 35.83     0.134 A 
HETATM   13  OAF   D T 500       6.902  17.005  -2.713  1.00 35.23    -0.190 OA
HETATM   14  CBD   D T 500       6.539  17.052  -0.311  1.00 35.97     0.069 A 
HETATM   15  CBB   D T 500       7.541  15.979  -0.103  1.00 36.65     0.199 A 
HETATM   16  OAB   D T 500       8.133  15.487  -1.076  1.00 36.71    -0.286 OA
HETATM   17  CBF   D T 500       7.841  15.490   1.262  1.00 37.01     0.061 A 
HETATM   18  CAZ   D T 500       8.854  14.421   1.492  1.00 39.54     0.079 A 
ENDROOT
BRANCH   1  19
HETATM   19  NAU   D T 500       6.832  16.058   4.882  1.00 41.74    -0.269 NA
BRANCH  19  20
HETATM   20  CAQ   D T 500       5.799  15.263   5.543  1.00 47.43     0.151 C 
BRANCH  20  21
HETATM   21  CAO   D T 500       4.741  16.093   6.277  1.00 48.34     0.146 C 
BRANCH  21  22
HETATM   22  NAS   D T 500       3.417  15.906   5.731  1.00 49.29    -0.291 NA
BRANCH  22  23
HETATM   23  CAM   D T 500       2.364  15.376   6.565  1.00 49.13     0.155 C 
BRANCH  23  24
HETATM   24  CAK   D T 500       1.853  14.072   5.976  1.00 54.80     0.208 C 
HETATM   25  OAC   D T 500       2.871  13.065   6.070  1.00 60.78    -0.218 OA
ENDBRANCH  23  24
ENDBRANCH  22  23
ENDBRANCH  21  22
ENDBRANCH  20  21
ENDBRANCH  19  20
ENDBRANCH   1  19
BRANCH  18  26
HETATM   26  NAV   D T 500       9.525  13.904   0.441  1.00 45.82    -0.269 NA
BRANCH  26  27
HETATM   27  CAR   D T 500       9.985  12.526   0.581  1.00 50.37     0.151 C 
BRANCH  27  28
HETATM   28  CAP   D T 500       9.593  11.616  -0.563  1.00 56.30     0.146 C 
BRANCH  28  29
HETATM   29  NAT   D T 500       8.302  12.023  -1.098  1.00 57.16    -0.291 NA
BRANCH  29  30
HETATM   30  CAN   D T 500       7.896  11.490  -2.389  1.00 55.30     0.155 C 
BRANCH  30  31
HETATM   31  CAL   D T 500       6.482  11.921  -2.744  1.00 53.22     0.208 C 
HETATM   32  OAD   D T 500       6.330  11.617  -4.132  1.00 54.28    -0.218 OA
ENDBRANCH  30  31
ENDBRANCH  29  30
ENDBRANCH  28  29
ENDBRANCH  27  28
ENDBRANCH  26  27
ENDBRANCH  18  26
TORSDOF 24
ENDMDL
