MODEL 1
REMARK VINA RESULT:    -6.020      0.000      0.000
REMARK INTER + INTRA:         -11.642
REMARK INTER:                 -10.243
REMARK INTRA:                  -1.399
REMARK UNBOUND:                -1.399
REMARK  24 active torsions:
REMARK  status: ('A' for Active; 'I' for Inactive)
REMARK    1  A    between atoms: CAK_2  and  CAM_3 
REMARK    2  A    between atoms: CAM_3  and  NAS_4 
REMARK    3  A    between atoms: NAS_4  and  CAO_5 
REMARK    4  A    between atoms: CAO_5  and  CAQ_6 
REMARK    5  A    between atoms: CAQ_6  and  NAU_7 
REMARK    6  A    between atoms: NAU_7  and  CAY_8 
REMARK    7  A    between atoms: CAZ_25  and  NAV_26 
REMARK    8  A    between atoms: NAV_26  and  CAR_27 
REMARK    9  A    between atoms: CAR_27  and  CAP_28 
REMARK   10  A    between atoms: CAP_28  and  NAT_29 
REMARK   11  A    between atoms: NAT_29  and  CAN_30 
REMARK   12  A    between atoms: CAN_30  and  CAL_31 
REMARK   13  A    between atoms: CAK_34  and  CAM_35 
REMARK   14  A    between atoms: CAM_35  and  NAS_36 
REMARK   15  A    between atoms: NAS_36  and  CAO_37 
REMARK   16  A    between atoms: CAO_37  and  CAQ_38 
REMARK   17  A    between atoms: CAQ_38  and  NAU_39 
REMARK   18  A    between atoms: NAU_39  and  CAY_40 
REMARK   19  A    between atoms: CAZ_57  and  NAV_58 
REMARK   20  A    between atoms: NAV_58  and  CAR_59 
REMARK   21  A    between atoms: CAR_59  and  CAP_60 
REMARK   22  A    between atoms: CAP_60  and  NAT_61 
REMARK   23  A    between atoms: NAT_61  and  CAN_62 
REMARK   24  A    between atoms: CAN_62  and  CAL_63 
ROOT
HETATM    1  CAY   D T 500      -8.943  -3.541  -8.296  1.00 41.84     0.079 A 
HETATM    2  CAI   D T 500      -9.564  -2.327  -8.697  1.00 42.25     0.020 A 
HETATM    3  CAJ   D T 500      -8.980  -1.062  -8.522  1.00 39.39     0.020 A 
HETATM    4  CBE   D T 500      -7.598  -3.478  -7.647  1.00 38.78     0.061 A 
HETATM    5  CBA   D T 500      -6.873  -4.705  -7.206  1.00 38.89     0.199 A 
HETATM    6  OAA   D T 500      -7.400  -5.830  -7.364  1.00 42.15    -0.286 OA
HETATM    7  CBC   D T 500      -5.518  -4.576  -6.579  1.00 38.64     0.069 A 
HETATM    8  CAW   D T 500      -4.733  -5.757  -6.103  1.00 41.35     0.134 A 
HETATM    9  OAE   D T 500      -5.242  -7.033  -6.246  1.00 47.27    -0.190 OA
HETATM   10  CAG   D T 500      -3.471  -5.548  -5.520  1.00 39.87     0.030 A 
HETATM   11  CAH   D T 500      -2.916  -4.267  -5.356  1.00 38.23     0.030 A 
HETATM   12  CAX   D T 500      -3.597  -3.124  -5.759  1.00 35.83     0.134 A 
HETATM   13  OAF   D T 500      -3.048  -1.898  -5.610  1.00 35.23    -0.190 OA
HETATM   14  CBD   D T 500      -4.920  -3.234  -6.396  1.00 35.97     0.069 A 
HETATM   15  CBB   D T 500      -5.650  -2.019  -6.832  1.00 36.65     0.199 A 
HETATM   16  OAB   D T 500      -5.142  -0.899  -6.669  1.00 36.71    -0.286 OA
HETATM   17  CBF   D T 500      -6.985  -2.134  -7.463  1.00 37.01     0.061 A 
HETATM   18  CAZ   D T 500      -7.727  -0.925  -7.920  1.00 39.54     0.079 A 
ENDROOT
BRANCH   1  19
HETATM   19  NAU   D T 500      -9.541  -4.752  -8.490  1.00 41.74    -0.269 NA
BRANCH  19  20
HETATM   20  CAQ   D T 500     -10.827  -5.025  -7.852  1.00 47.43     0.151 C 
BRANCH  20  21
HETATM   21  CAO   D T 500     -10.890  -4.635  -6.370  1.00 48.34     0.146 C 
BRANCH  21  22
HETATM   22  NAS   D T 500     -11.819  -3.559  -6.122  1.00 49.29    -0.291 NA
BRANCH  22  23
HETATM   23  CAM   D T 500     -11.381  -2.381  -5.414  1.00 49.13     0.155 C 
BRANCH  23  24
HETATM   24  CAK   D T 500      -9.976  -2.599  -4.878  1.00 54.80     0.208 C 
HETATM   25  OAC   D T 500      -9.292  -1.342  -4.780  1.00 60.78    -0.218 OA
ENDBRANCH  23  24
ENDBRANCH  22  23
ENDBRANCH  21  22
ENDBRANCH  20  21
ENDBRANCH  19  20
ENDBRANCH   1  19
BRANCH  18  26
HETATM   26  NAV   D T 500      -7.168   0.294  -7.773  1.00 45.82    -0.269 NA
BRANCH  26  27
HETATM   27  CAR   D T 500      -7.819   1.195  -6.826  1.00 50.37     0.151 C 
BRANCH  27  28
HETATM   28  CAP   D T 500      -8.383   2.455  -7.448  1.00 56.30     0.146 C 
BRANCH  28  29
HETATM   29  NAT   D T 500      -7.922   3.621  -6.708  1.00 57.16    -0.291 NA
BRANCH  29  30
HETATM   30  CAN   D T 500      -7.481   4.782  -7.463  1.00 55.30     0.155 C 
BRANCH  30  31
HETATM   31  CAL   D T 500      -7.016   5.898  -6.539  1.00 53.22     0.208 C 
HETATM   32  OAD   D T 500      -5.691   6.218  -6.970  1.00 54.28    -0.218 OA
ENDBRANCH  30  31
ENDBRANCH  29  30
ENDBRANCH  28  29
ENDBRANCH  27  28
ENDBRANCH  26  27
ENDBRANCH  18  26
TORSDOF 24
ENDMDL
MODEL 2
REMARK VINA RESULT:    -5.994      3.538      8.108
REMARK INTER + INTRA:         -11.598
REMARK INTER:                 -10.177
REMARK INTRA:                  -1.421
REMARK UNBOUND:                -1.399
REMARK  24 active torsions:
REMARK  status: ('A' for Active; 'I' for Inactive)
REMARK    1  A    between atoms: CAK_2  and  CAM_3 
REMARK    2  A    between atoms: CAM_3  and  NAS_4 
REMARK    3  A    between atoms: NAS_4  and  CAO_5 
REMARK    4  A    between atoms: CAO_5  and  CAQ_6 
REMARK    5  A    between atoms: CAQ_6  and  NAU_7 
REMARK    6  A    between atoms: NAU_7  and  CAY_8 
REMARK    7  A    between atoms: CAZ_25  and  NAV_26 
REMARK    8  A    between atoms: NAV_26  and  CAR_27 
REMARK    9  A    between atoms: CAR_27  and  CAP_28 
REMARK   10  A    between atoms: CAP_28  and  NAT_29 
REMARK   11  A    between atoms: NAT_29  and  CAN_30 
REMARK   12  A    between atoms: CAN_30  and  CAL_31 
REMARK   13  A    between atoms: CAK_34  and  CAM_35 
REMARK   14  A    between atoms: CAM_35  and  NAS_36 
REMARK   15  A    between atoms: NAS_36  and  CAO_37 
REMARK   16  A    between atoms: CAO_37  and  CAQ_38 
REMARK   17  A    between atoms: CAQ_38  and  NAU_39 
REMARK   18  A    between atoms: NAU_39  and  CAY_40 
REMARK   19  A    between atoms: CAZ_57  and  NAV_58 
REMARK   20  A    between atoms: NAV_58  and  CAR_59 
REMARK   21  A    between atoms: CAR_59  and  CAP_60 
REMARK   22  A    between atoms: CAP_60  and  NAT_61 
REMARK   23  A    between atoms: NAT_61  and  CAN_62 
REMARK   24  A    between atoms: CAN_62  and  CAL_63 
ROOT
HETATM    1  CAY   D T 500      -8.591  -5.681  -7.912  1.00 41.84     0.079 A 
HETATM    2  CAI   D T 500      -9.044  -7.013  -8.124  1.00 42.25     0.020 A 
HETATM    3  CAJ   D T 500      -8.291  -8.151  -7.793  1.00 39.39     0.020 A 
HETATM    4  CBE   D T 500      -7.239  -5.472  -7.309  1.00 38.78     0.061 A 
HETATM    5  CBA   D T 500      -6.693  -4.110  -7.043  1.00 38.89     0.199 A 
HETATM    6  OAA   D T 500      -7.369  -3.100  -7.343  1.00 42.15    -0.286 OA
HETATM    7  CBC   D T 500      -5.339  -3.967  -6.418  1.00 38.64     0.069 A 
HETATM    8  CAW   D T 500      -4.719  -2.637  -6.129  1.00 41.35     0.134 A 
HETATM    9  OAE   D T 500      -5.402  -1.473  -6.425  1.00 47.27    -0.190 OA
HETATM   10  CAG   D T 500      -3.441  -2.591  -5.546  1.00 39.87     0.030 A 
HETATM   11  CAH   D T 500      -2.712  -3.751  -5.229  1.00 38.23     0.030 A 
HETATM   12  CAX   D T 500      -3.218  -5.020  -5.486  1.00 35.83     0.134 A 
HETATM   13  OAF   D T 500      -2.516  -6.128  -5.164  1.00 35.23    -0.190 OA
HETATM   14  CBD   D T 500      -4.557  -5.178  -6.081  1.00 35.97     0.069 A 
HETATM   15  CBB   D T 500      -5.104  -6.529  -6.354  1.00 36.65     0.199 A 
HETATM   16  OAB   D T 500      -4.438  -7.537  -6.072  1.00 36.71    -0.286 OA
HETATM   17  CBF   D T 500      -6.446  -6.683  -6.961  1.00 37.01     0.061 A 
HETATM   18  CAZ   D T 500      -7.019  -8.032  -7.229  1.00 39.54     0.079 A 
ENDROOT
BRANCH   1  19
HETATM   19  NAU   D T 500      -9.356  -4.601  -8.243  1.00 41.74    -0.269 NA
BRANCH  19  20
HETATM   20  CAQ   D T 500     -10.644  -4.407  -7.582  1.00 47.43     0.151 C 
BRANCH  20  21
HETATM   21  CAO   D T 500     -10.542  -4.037  -6.098  1.00 48.34     0.146 C 
BRANCH  21  22
HETATM   22  NAS   D T 500     -10.581  -2.610  -5.882  1.00 49.29    -0.291 NA
BRANCH  22  23
HETATM   23  CAM   D T 500      -9.871  -2.034  -4.766  1.00 49.13     0.155 C 
BRANCH  23  24
HETATM   24  CAK   D T 500      -8.885  -3.047  -4.208  1.00 54.80     0.208 C 
HETATM   25  OAC   D T 500      -7.639  -2.400  -3.911  1.00 60.78    -0.218 OA
ENDBRANCH  23  24
ENDBRANCH  22  23
ENDBRANCH  21  22
ENDBRANCH  20  21
ENDBRANCH  19  20
ENDBRANCH   1  19
BRANCH  18  26
HETATM   26  NAV   D T 500      -6.313  -9.133  -6.898  1.00 45.82    -0.269 NA
BRANCH  26  27
HETATM   27  CAR   D T 500      -6.197 -10.163  -7.927  1.00 50.37     0.151 C 
BRANCH  27  28
HETATM   28  CAP   D T 500      -4.779 -10.605  -8.214  1.00 56.30     0.146 C 
BRANCH  28  29
HETATM   29  NAT   D T 500      -4.662 -12.044  -8.026  1.00 57.16    -0.291 NA
BRANCH  29  30
HETATM   30  CAN   D T 500      -5.462 -12.667  -6.985  1.00 55.30     0.155 C 
BRANCH  30  31
HETATM   31  CAL   D T 500      -4.594 -13.463  -6.022  1.00 53.22     0.208 C 
HETATM   32  OAD   D T 500      -5.452 -14.471  -5.483  1.00 54.28    -0.218 OA
ENDBRANCH  30  31
ENDBRANCH  29  30
ENDBRANCH  28  29
ENDBRANCH  27  28
ENDBRANCH  26  27
ENDBRANCH  18  26
TORSDOF 24
ENDMDL
MODEL 3
REMARK VINA RESULT:    -5.895      2.836      4.897
REMARK INTER + INTRA:         -11.429
REMARK INTER:                 -10.127
REMARK INTRA:                  -1.302
REMARK UNBOUND:                -1.399
REMARK  24 active torsions:
REMARK  status: ('A' for Active; 'I' for Inactive)
REMARK    1  A    between atoms: CAK_2  and  CAM_3 
REMARK    2  A    between atoms: CAM_3  and  NAS_4 
REMARK    3  A    between atoms: NAS_4  and  CAO_5 
REMARK    4  A    between atoms: CAO_5  and  CAQ_6 
REMARK    5  A    between atoms: CAQ_6  and  NAU_7 
REMARK    6  A    between atoms: NAU_7  and  CAY_8 
REMARK    7  A    between atoms: CAZ_25  and  NAV_26 
REMARK    8  A    between atoms: NAV_26  and  CAR_27 
REMARK    9  A    between atoms: CAR_27  and  CAP_28 
REMARK   10  A    between atoms: CAP_28  and  NAT_29 
REMARK   11  A    between atoms: NAT_29  and  CAN_30 
REMARK   12  A    between atoms: CAN_30  and  CAL_31 
REMARK   13  A    between atoms: CAK_34  and  CAM_35 
REMARK   14  A    between atoms: CAM_35  and  NAS_36 
REMARK   15  A    between atoms: NAS_36  and  CAO_37 
REMARK   16  A    between atoms: CAO_37  and  CAQ_38 
REMARK   17  A    between atoms: CAQ_38  and  NAU_39 
REMARK   18  A    between atoms: NAU_39  and  CAY_40 
REMARK   19  A    between atoms: CAZ_57  and  NAV_58 
REMARK   20  A    between atoms: NAV_58  and  CAR_59 
REMARK   21  A    between atoms: CAR_59  and  CAP_60 
REMARK   22  A    between atoms: CAP_60  and  NAT_61 
REMARK   23  A    between atoms: NAT_61  and  CAN_62 
REMARK   24  A    between atoms: CAN_62  and  CAL_63 
ROOT
HETATM    1  CAY   D T 500      -7.973  -6.881  -7.654  1.00 41.84     0.079 A 
HETATM    2  CAI   D T 500      -9.230  -6.446  -8.158  1.00 42.25     0.020 A 
HETATM    3  CAJ   D T 500      -9.645  -5.104  -8.154  1.00 39.39     0.020 A 
HETATM    4  CBE   D T 500      -7.039  -5.863  -7.084  1.00 38.78     0.061 A 
HETATM    5  CBA   D T 500      -5.698  -6.233  -6.545  1.00 38.89     0.199 A 
HETATM    6  OAA   D T 500      -5.335  -7.431  -6.549  1.00 42.15    -0.286 OA
HETATM    7  CBC   D T 500      -4.799  -5.163  -6.005  1.00 38.64     0.069 A 
HETATM    8  CAW   D T 500      -3.446  -5.454  -5.438  1.00 41.35     0.134 A 
HETATM    9  OAE   D T 500      -2.969  -6.751  -5.412  1.00 47.27    -0.190 OA
HETATM   10  CAG   D T 500      -2.667  -4.392  -4.946  1.00 39.87     0.030 A 
HETATM   11  CAH   D T 500      -3.115  -3.060  -4.955  1.00 38.23     0.030 A 
HETATM   12  CAX   D T 500      -4.369  -2.717  -5.449  1.00 35.83     0.134 A 
HETATM   13  OAF   D T 500      -4.784  -1.431  -5.466  1.00 35.23    -0.190 OA
HETATM   14  CBD   D T 500      -5.256  -3.755  -6.003  1.00 35.97     0.069 A 
HETATM   15  CBB   D T 500      -6.593  -3.395  -6.535  1.00 36.65     0.199 A 
HETATM   16  OAB   D T 500      -6.968  -2.213  -6.524  1.00 36.71    -0.286 OA
HETATM   17  CBF   D T 500      -7.486  -4.443  -7.082  1.00 37.01     0.061 A 
HETATM   18  CAZ   D T 500      -8.827  -4.100  -7.635  1.00 39.54     0.079 A 
ENDROOT
BRANCH   1  19
HETATM   19  NAU   D T 500      -7.604  -8.194  -7.681  1.00 41.74    -0.269 NA
BRANCH  19  20
HETATM   20  CAQ   D T 500      -8.299  -9.115  -8.577  1.00 47.43     0.151 C 
BRANCH  20  21
HETATM   21  CAO   D T 500      -7.930 -10.589  -8.377  1.00 48.34     0.146 C 
BRANCH  21  22
HETATM   22  NAS   D T 500      -7.166 -10.807  -7.173  1.00 49.29    -0.291 NA
BRANCH  22  23
HETATM   23  CAM   D T 500      -5.871 -11.440  -7.248  1.00 49.13     0.155 C 
BRANCH  23  24
HETATM   24  CAK   D T 500      -5.233 -11.139  -8.594  1.00 54.80     0.208 C 
HETATM   25  OAC   D T 500      -4.223 -10.132  -8.439  1.00 60.78    -0.218 OA
ENDBRANCH  23  24
ENDBRANCH  22  23
ENDBRANCH  21  22
ENDBRANCH  20  21
ENDBRANCH  19  20
ENDBRANCH   1  19
BRANCH  18  26
HETATM   26  NAV   D T 500      -9.229  -2.812  -7.654  1.00 45.82    -0.269 NA
BRANCH  26  27
HETATM   27  CAR   D T 500      -9.620  -2.275  -8.954  1.00 50.37     0.151 C 
BRANCH  27  28
HETATM   28  CAP   D T 500      -8.746  -1.145  -9.454  1.00 56.30     0.146 C 
BRANCH  28  29
HETATM   29  NAT   D T 500      -9.014   0.063  -8.686  1.00 57.16    -0.291 NA
BRANCH  29  30
HETATM   30  CAN   D T 500      -7.900   0.703  -8.004  1.00 55.30     0.155 C 
BRANCH  30  31
HETATM   31  CAL   D T 500      -8.351   1.363  -6.710  1.00 53.22     0.208 C 
HETATM   32  OAD   D T 500      -9.063   0.350  -5.997  1.00 54.28    -0.218 OA
ENDBRANCH  30  31
ENDBRANCH  29  30
ENDBRANCH  28  29
ENDBRANCH  27  28
ENDBRANCH  26  27
ENDBRANCH  18  26
TORSDOF 24
ENDMDL
MODEL 4
REMARK VINA RESULT:    -5.883      0.661      5.839
REMARK INTER + INTRA:         -11.409
REMARK INTER:                  -9.871
REMARK INTRA:                  -1.539
REMARK UNBOUND:                -1.399
REMARK  24 active torsions:
REMARK  status: ('A' for Active; 'I' for Inactive)
REMARK    1  A    between atoms: CAK_2  and  CAM_3 
REMARK    2  A    between atoms: CAM_3  and  NAS_4 
REMARK    3  A    between atoms: NAS_4  and  CAO_5 
REMARK    4  A    between atoms: CAO_5  and  CAQ_6 
REMARK    5  A    between atoms: CAQ_6  and  NAU_7 
REMARK    6  A    between atoms: NAU_7  and  CAY_8 
REMARK    7  A    between atoms: CAZ_25  and  NAV_26 
REMARK    8  A    between atoms: NAV_26  and  CAR_27 
REMARK    9  A    between atoms: CAR_27  and  CAP_28 
REMARK   10  A    between atoms: CAP_28  and  NAT_29 
REMARK   11  A    between atoms: NAT_29  and  CAN_30 
REMARK   12  A    between atoms: CAN_30  and  CAL_31 
REMARK   13  A    between atoms: CAK_34  and  CAM_35 
REMARK   14  A    between atoms: CAM_35  and  NAS_36 
REMARK   15  A    between atoms: NAS_36  and  CAO_37 
REMARK   16  A    between atoms: CAO_37  and  CAQ_38 
REMARK   17  A    between atoms: CAQ_38  and  NAU_39 
REMARK   18  A    between atoms: NAU_39  and  CAY_40 
REMARK   19  A    between atoms: CAZ_57  and  NAV_58 
REMARK   20  A    between atoms: NAV_58  and  CAR_59 
REMARK   21  A    between atoms: CAR_59  and  CAP_60 
REMARK   22  A    between atoms: CAP_60  and  NAT_61 
REMARK   23  A    between atoms: NAT_61  and  CAN_62 
REMARK   24  A    between atoms: CAN_62  and  CAL_63 
ROOT
HETATM    1  CAY   D T 500      -7.937  -0.497  -7.819  1.00 41.84     0.079 A 
HETATM    2  CAI   D T 500      -9.179  -0.722  -8.475  1.00 42.25     0.020 A 
HETATM    3  CAJ   D T 500      -9.693  -2.000  -8.747  1.00 39.39     0.020 A 
HETATM    4  CBE   D T 500      -7.125  -1.680  -7.398  1.00 38.78     0.061 A 
HETATM    5  CBA   D T 500      -5.818  -1.533  -6.696  1.00 38.89     0.199 A 
HETATM    6  OAA   D T 500      -5.364  -0.391  -6.458  1.00 42.15    -0.286 OA
HETATM    7  CBC   D T 500      -5.061  -2.758  -6.282  1.00 38.64     0.069 A 
HETATM    8  CAW   D T 500      -3.740  -2.694  -5.583  1.00 41.35     0.134 A 
HETATM    9  OAE   D T 500      -3.174  -1.471  -5.279  1.00 47.27    -0.190 OA
HETATM   10  CAG   D T 500      -3.093  -3.892  -5.234  1.00 39.87     0.030 A 
HETATM   11  CAH   D T 500      -3.634  -5.157  -5.525  1.00 38.23     0.030 A 
HETATM   12  CAX   D T 500      -4.849  -5.292  -6.188  1.00 35.83     0.134 A 
HETATM   13  OAF   D T 500      -5.367  -6.512  -6.450  1.00 35.23    -0.190 OA
HETATM   14  CBD   D T 500      -5.615  -4.098  -6.583  1.00 35.97     0.069 A 
HETATM   15  CBB   D T 500      -6.913  -4.235  -7.287  1.00 36.65     0.199 A 
HETATM   16  OAB   D T 500      -7.366  -5.363  -7.539  1.00 36.71    -0.286 OA
HETATM   17  CBF   D T 500      -7.676  -3.032  -7.691  1.00 37.01     0.061 A 
HETATM   18  CAZ   D T 500      -8.989  -3.150  -8.386  1.00 39.54     0.079 A 
ENDROOT
BRANCH   1  19
HETATM   19  NAU   D T 500      -7.475   0.761  -7.567  1.00 41.74    -0.269 NA
BRANCH  19  20
HETATM   20  CAQ   D T 500      -8.237   1.640  -6.684  1.00 47.43     0.151 C 
BRANCH  20  21
HETATM   21  CAO   D T 500      -8.412   3.068  -7.214  1.00 48.34     0.146 C 
BRANCH  21  22
HETATM   22  NAS   D T 500      -7.657   4.035  -6.453  1.00 49.29    -0.291 NA
BRANCH  22  23
HETATM   23  CAM   D T 500      -7.801   5.443  -6.736  1.00 49.13     0.155 C 
BRANCH  23  24
HETATM   24  CAK   D T 500      -6.469   6.010  -7.198  1.00 54.80     0.208 C 
HETATM   25  OAC   D T 500      -6.407   5.998  -8.632  1.00 60.78    -0.218 OA
ENDBRANCH  23  24
ENDBRANCH  22  23
ENDBRANCH  21  22
ENDBRANCH  20  21
ENDBRANCH  19  20
ENDBRANCH   1  19
BRANCH  18  26
HETATM   26  NAV   D T 500      -9.501  -4.373  -8.636  1.00 45.82    -0.269 NA
BRANCH  26  27
HETATM   27  CAR   D T 500     -10.853  -4.622  -8.143  1.00 50.37     0.151 C 
BRANCH  27  28
HETATM   28  CAP   D T 500     -10.933  -4.932  -6.664  1.00 56.30     0.146 C 
BRANCH  28  29
HETATM   29  NAT   D T 500     -11.342  -3.743  -5.931  1.00 57.16    -0.291 NA
BRANCH  29  30
HETATM   30  CAN   D T 500     -10.404  -3.165  -4.983  1.00 55.30     0.155 C 
BRANCH  30  31
HETATM   31  CAL   D T 500     -10.376  -1.647  -5.089  1.00 53.22     0.208 C 
HETATM   32  OAD   D T 500      -9.117  -1.253  -4.539  1.00 54.28    -0.218 OA
ENDBRANCH  30  31
ENDBRANCH  29  30
ENDBRANCH  28  29
ENDBRANCH  27  28
ENDBRANCH  26  27
ENDBRANCH  18  26
TORSDOF 24
ENDMDL
MODEL 5
REMARK VINA RESULT:    -5.779      2.983      7.658
REMARK INTER + INTRA:         -11.233
REMARK INTER:                 -10.314
REMARK INTRA:                  -0.918
REMARK UNBOUND:                -1.399
REMARK  24 active torsions:
REMARK  status: ('A' for Active; 'I' for Inactive)
REMARK    1  A    between atoms: CAK_2  and  CAM_3 
REMARK    2  A    between atoms: CAM_3  and  NAS_4 
REMARK    3  A    between atoms: NAS_4  and  CAO_5 
REMARK    4  A    between atoms: CAO_5  and  CAQ_6 
REMARK    5  A    between atoms: CAQ_6  and  NAU_7 
REMARK    6  A    between atoms: NAU_7  and  CAY_8 
REMARK    7  A    between atoms: CAZ_25  and  NAV_26 
REMARK    8  A    between atoms: NAV_26  and  CAR_27 
REMARK    9  A    between atoms: CAR_27  and  CAP_28 
REMARK   10  A    between atoms: CAP_28  and  NAT_29 
REMARK   11  A    between atoms: NAT_29  and  CAN_30 
REMARK   12  A    between atoms: CAN_30  and  CAL_31 
REMARK   13  A    between atoms: CAK_34  and  CAM_35 
REMARK   14  A    between atoms: CAM_35  and  NAS_36 
REMARK   15  A    between atoms: NAS_36  and  CAO_37 
REMARK   16  A    between atoms: CAO_37  and  CAQ_38 
REMARK   17  A    between atoms: CAQ_38  and  NAU_39 
REMARK   18  A    between atoms: NAU_39  and  CAY_40 
REMARK   19  A    between atoms: CAZ_57  and  NAV_58 
REMARK   20  A    between atoms: NAV_58  and  CAR_59 
REMARK   21  A    between atoms: CAR_59  and  CAP_60 
REMARK   22  A    between atoms: CAP_60  and  NAT_61 
REMARK   23  A    between atoms: NAT_61  and  CAN_62 
REMARK   24  A    between atoms: CAN_62  and  CAL_63 
ROOT
HETATM    1  CAY   D T 500      -8.642  -3.825  -7.684  1.00 41.84     0.079 A 
HETATM    2  CAI   D T 500      -9.525  -4.854  -8.112  1.00 42.25     0.020 A 
HETATM    3  CAJ   D T 500      -9.209  -6.221  -8.056  1.00 39.39     0.020 A 
HETATM    4  CBE   D T 500      -7.300  -4.210  -7.150  1.00 38.78     0.061 A 
HETATM    5  CBA   D T 500      -6.318  -3.195  -6.670  1.00 38.89     0.199 A 
HETATM    6  OAA   D T 500      -6.605  -1.977  -6.724  1.00 42.15    -0.286 OA
HETATM    7  CBC   D T 500      -4.996  -3.645  -6.127  1.00 38.64     0.069 A 
HETATM    8  CAW   D T 500      -3.956  -2.689  -5.636  1.00 41.35     0.134 A 
HETATM    9  OAE   D T 500      -4.198  -1.329  -5.657  1.00 47.27    -0.190 OA
HETATM   10  CAG   D T 500      -2.739  -3.195  -5.147  1.00 39.87     0.030 A 
HETATM   11  CAH   D T 500      -2.453  -4.571  -5.108  1.00 38.23     0.030 A 
HETATM   12  CAX   D T 500      -3.366  -5.516  -5.564  1.00 35.83     0.134 A 
HETATM   13  OAF   D T 500      -3.087  -6.837  -5.509  1.00 35.23    -0.190 OA
HETATM   14  CBD   D T 500      -4.678  -5.091  -6.082  1.00 35.97     0.069 A 
HETATM   15  CBB   D T 500      -5.657  -6.094  -6.566  1.00 36.65     0.199 A 
HETATM   16  OAB   D T 500      -5.378  -7.302  -6.528  1.00 36.71    -0.286 OA
HETATM   17  CBF   D T 500      -6.971  -5.661  -7.095  1.00 37.01     0.061 A 
HETATM   18  CAZ   D T 500      -7.974  -6.655  -7.572  1.00 39.54     0.079 A 
ENDROOT
BRANCH   1  19
HETATM   19  NAU   D T 500      -8.989  -2.507  -7.749  1.00 41.74    -0.269 NA
BRANCH  19  20
HETATM   20  CAQ   D T 500      -9.487  -1.960  -9.008  1.00 47.43     0.151 C 
BRANCH  20  21
HETATM   21  CAO   D T 500      -8.450  -1.156  -9.800  1.00 48.34     0.146 C 
BRANCH  21  22
HETATM   22  NAS   D T 500      -7.891  -0.069  -9.032  1.00 49.29    -0.291 NA
BRANCH  22  23
HETATM   23  CAM   D T 500      -8.755   0.762  -8.229  1.00 49.13     0.155 C 
BRANCH  23  24
HETATM   24  CAK   D T 500      -7.930   1.505  -7.192  1.00 54.80     0.208 C 
HETATM   25  OAC   D T 500      -8.745   2.487  -6.536  1.00 60.78    -0.218 OA
ENDBRANCH  23  24
ENDBRANCH  22  23
ENDBRANCH  21  22
ENDBRANCH  20  21
ENDBRANCH  19  20
ENDBRANCH   1  19
BRANCH  18  26
HETATM   26  NAV   D T 500      -7.688  -7.972  -7.506  1.00 45.82    -0.269 NA
BRANCH  26  27
HETATM   27  CAR   D T 500      -8.446  -8.844  -8.399  1.00 50.37     0.151 C 
BRANCH  27  28
HETATM   28  CAP   D T 500      -7.774 -10.165  -8.703  1.00 56.30     0.146 C 
BRANCH  28  29
HETATM   29  NAT   D T 500      -6.365 -10.097  -8.344  1.00 57.16    -0.291 NA
BRANCH  29  30
HETATM   30  CAN   D T 500      -5.502 -11.199  -8.739  1.00 55.30     0.155 C 
BRANCH  30  31
HETATM   31  CAL   D T 500      -5.770 -12.439  -7.900  1.00 53.22     0.208 C 
HETATM   32  OAD   D T 500      -4.657 -12.539  -7.009  1.00 54.28    -0.218 OA
ENDBRANCH  30  31
ENDBRANCH  29  30
ENDBRANCH  28  29
ENDBRANCH  27  28
ENDBRANCH  26  27
ENDBRANCH  18  26
TORSDOF 24
ENDMDL
MODEL 6
REMARK VINA RESULT:    -5.676      1.805      2.397
REMARK INTER + INTRA:         -11.057
REMARK INTER:                 -10.157
REMARK INTRA:                  -0.900
REMARK UNBOUND:                -1.399
REMARK  24 active torsions:
REMARK  status: ('A' for Active; 'I' for Inactive)
REMARK    1  A    between atoms: CAK_2  and  CAM_3 
REMARK    2  A    between atoms: CAM_3  and  NAS_4 
REMARK    3  A    between atoms: NAS_4  and  CAO_5 
REMARK    4  A    between atoms: CAO_5  and  CAQ_6 
REMARK    5  A    between atoms: CAQ_6  and  NAU_7 
REMARK    6  A    between atoms: NAU_7  and  CAY_8 
REMARK    7  A    between atoms: CAZ_25  and  NAV_26 
REMARK    8  A    between atoms: NAV_26  and  CAR_27 
REMARK    9  A    between atoms: CAR_27  and  CAP_28 
REMARK   10  A    between atoms: CAP_28  and  NAT_29 
REMARK   11  A    between atoms: NAT_29  and  CAN_30 
REMARK   12  A    between atoms: CAN_30  and  CAL_31 
REMARK   13  A    between atoms: CAK_34  and  CAM_35 
REMARK   14  A    between atoms: CAM_35  and  NAS_36 
REMARK   15  A    between atoms: NAS_36  and  CAO_37 
REMARK   16  A    between atoms: CAO_37  and  CAQ_38 
REMARK   17  A    between atoms: CAQ_38  and  NAU_39 
REMARK   18  A    between atoms: NAU_39  and  CAY_40 
REMARK   19  A    between atoms: CAZ_57  and  NAV_58 
REMARK   20  A    between atoms: NAV_58  and  CAR_59 
REMARK   21  A    between atoms: CAR_59  and  CAP_60 
REMARK   22  A    between atoms: CAP_60  and  NAT_61 
REMARK   23  A    between atoms: NAT_61  and  CAN_62 
REMARK   24  A    between atoms: CAN_62  and  CAL_63 
ROOT
HETATM    1  CAY   D T 500      -9.131  -3.777  -8.223  1.00 41.84     0.079 A 
HETATM    2  CAI   D T 500      -9.835  -2.653  -8.737  1.00 42.25     0.020 A 
HETATM    3  CAJ   D T 500      -9.314  -1.350  -8.750  1.00 39.39     0.020 A 
HETATM    4  CBE   D T 500      -7.764  -3.567  -7.657  1.00 38.78     0.061 A 
HETATM    5  CBA   D T 500      -6.953  -4.692  -7.107  1.00 38.89     0.199 A 
HETATM    6  OAA   D T 500      -7.425  -5.852  -7.098  1.00 42.15    -0.286 OA
HETATM    7  CBC   D T 500      -5.580  -4.420  -6.572  1.00 38.64     0.069 A 
HETATM    8  CAW   D T 500      -4.711  -5.491  -5.996  1.00 41.35     0.134 A 
HETATM    9  OAE   D T 500      -5.155  -6.799  -5.954  1.00 47.27    -0.190 OA
HETATM   10  CAG   D T 500      -3.436  -5.150  -5.510  1.00 39.87     0.030 A 
HETATM   11  CAH   D T 500      -2.946  -3.833  -5.534  1.00 38.23     0.030 A 
HETATM   12  CAX   D T 500      -3.706  -2.783  -6.039  1.00 35.83     0.134 A 
HETATM   13  OAF   D T 500      -3.219  -1.523  -6.070  1.00 35.23    -0.190 OA
HETATM   14  CBD   D T 500      -5.049  -3.038  -6.587  1.00 35.97     0.069 A 
HETATM   15  CBB   D T 500      -5.864  -1.923  -7.131  1.00 36.65     0.199 A 
HETATM   16  OAB   D T 500      -5.411  -0.768  -7.134  1.00 36.71    -0.286 OA
HETATM   17  CBF   D T 500      -7.218  -2.182  -7.672  1.00 37.01     0.061 A 
HETATM   18  CAZ   D T 500      -8.045  -1.078  -8.235  1.00 39.54     0.079 A 
ENDROOT
BRANCH   1  19
HETATM   19  NAU   D T 500      -9.671  -5.030  -8.234  1.00 41.74    -0.269 NA
BRANCH  19  20
HETATM   20  CAQ   D T 500     -10.966  -5.257  -7.598  1.00 47.43     0.151 C 
BRANCH  20  21
HETATM   21  CAO   D T 500     -11.919  -6.142  -8.409  1.00 48.34     0.146 C 
BRANCH  21  22
HETATM   22  NAS   D T 500     -12.408  -5.484  -9.597  1.00 49.29    -0.291 NA
BRANCH  22  23
HETATM   23  CAM   D T 500     -13.107  -4.227  -9.485  1.00 49.13     0.155 C 
BRANCH  23  24
HETATM   24  CAK   D T 500     -13.643  -3.817 -10.846  1.00 54.80     0.208 C 
HETATM   25  OAC   D T 500     -13.278  -4.798 -11.828  1.00 60.78    -0.218 OA
ENDBRANCH  23  24
ENDBRANCH  22  23
ENDBRANCH  21  22
ENDBRANCH  20  21
ENDBRANCH  19  20
ENDBRANCH   1  19
BRANCH  18  26
HETATM   26  NAV   D T 500      -7.547   0.176  -8.269  1.00 45.82    -0.269 NA
BRANCH  26  27
HETATM   27  CAR   D T 500      -8.460   1.246  -7.877  1.00 50.37     0.151 C 
BRANCH  27  28
HETATM   28  CAP   D T 500      -8.006   2.049  -6.677  1.00 56.30     0.146 C 
BRANCH  28  29
HETATM   29  NAT   D T 500      -7.922   3.459  -7.029  1.00 57.16    -0.291 NA
BRANCH  29  30
HETATM   30  CAN   D T 500      -7.672   4.417  -5.964  1.00 55.30     0.155 C 
BRANCH  30  31
HETATM   31  CAL   D T 500      -7.649   5.842  -6.498  1.00 53.22     0.208 C 
HETATM   32  OAD   D T 500      -6.269   6.142  -6.714  1.00 54.28    -0.218 OA
ENDBRANCH  30  31
ENDBRANCH  29  30
ENDBRANCH  28  29
ENDBRANCH  27  28
ENDBRANCH  26  27
ENDBRANCH  18  26
TORSDOF 24
ENDMDL
MODEL 7
REMARK VINA RESULT:    -5.578      3.617      6.697
REMARK INTER + INTRA:         -10.890
REMARK INTER:                  -9.536
REMARK INTRA:                  -1.354
REMARK UNBOUND:                -1.399
REMARK  24 active torsions:
REMARK  status: ('A' for Active; 'I' for Inactive)
REMARK    1  A    between atoms: CAK_2  and  CAM_3 
REMARK    2  A    between atoms: CAM_3  and  NAS_4 
REMARK    3  A    between atoms: NAS_4  and  CAO_5 
REMARK    4  A    between atoms: CAO_5  and  CAQ_6 
REMARK    5  A    between atoms: CAQ_6  and  NAU_7 
REMARK    6  A    between atoms: NAU_7  and  CAY_8 
REMARK    7  A    between atoms: CAZ_25  and  NAV_26 
REMARK    8  A    between atoms: NAV_26  and  CAR_27 
REMARK    9  A    between atoms: CAR_27  and  CAP_28 
REMARK   10  A    between atoms: CAP_28  and  NAT_29 
REMARK   11  A    between atoms: NAT_29  and  CAN_30 
REMARK   12  A    between atoms: CAN_30  and  CAL_31 
REMARK   13  A    between atoms: CAK_34  and  CAM_35 
REMARK   14  A    between atoms: CAM_35  and  NAS_36 
REMARK   15  A    between atoms: NAS_36  and  CAO_37 
REMARK   16  A    between atoms: CAO_37  and  CAQ_38 
REMARK   17  A    between atoms: CAQ_38  and  NAU_39 
REMARK   18  A    between atoms: NAU_39  and  CAY_40 
REMARK   19  A    between atoms: CAZ_57  and  NAV_58 
REMARK   20  A    between atoms: NAV_58  and  CAR_59 
REMARK   21  A    between atoms: CAR_59  and  CAP_60 
REMARK   22  A    between atoms: CAP_60  and  NAT_61 
REMARK   23  A    between atoms: NAT_61  and  CAN_62 
REMARK   24  A    between atoms: CAN_62  and  CAL_63 
ROOT
HETATM    1  CAY   D T 500      -7.253  -7.594  -7.222  1.00 41.84     0.079 A 
HETATM    2  CAI   D T 500      -8.525  -7.591  -7.857  1.00 42.25     0.020 A 
HETATM    3  CAJ   D T 500      -9.201  -6.421  -8.237  1.00 39.39     0.020 A 
HETATM    4  CBE   D T 500      -6.593  -6.284  -6.934  1.00 38.78     0.061 A 
HETATM    5  CBA   D T 500      -5.255  -6.197  -6.281  1.00 38.89     0.199 A 
HETATM    6  OAA   D T 500      -4.659  -7.245  -5.943  1.00 42.15    -0.286 OA
HETATM    7  CBC   D T 500      -4.638  -4.854  -6.038  1.00 38.64     0.069 A 
HETATM    8  CAW   D T 500      -3.306  -4.684  -5.380  1.00 41.35     0.134 A 
HETATM    9  OAE   D T 500      -2.581  -5.791  -4.982  1.00 47.27    -0.190 OA
HETATM   10  CAG   D T 500      -2.801  -3.387  -5.184  1.00 39.87     0.030 A 
HETATM   11  CAH   D T 500      -3.505  -2.234  -5.573  1.00 38.23     0.030 A 
HETATM   12  CAX   D T 500      -4.757  -2.316  -6.174  1.00 35.83     0.134 A 
HETATM   13  OAF   D T 500      -5.419  -1.202  -6.558  1.00 35.23    -0.190 OA
HETATM   14  CBD   D T 500      -5.368  -3.629  -6.439  1.00 35.97     0.069 A 
HETATM   15  CBB   D T 500      -6.701  -3.723  -7.083  1.00 36.65     0.199 A 
HETATM   16  OAB   D T 500      -7.305  -2.691  -7.410  1.00 36.71    -0.286 OA
HETATM   17  CBF   D T 500      -7.316  -5.046  -7.339  1.00 37.01     0.061 A 
HETATM   18  CAZ   D T 500      -8.647  -5.161  -7.997  1.00 39.54     0.079 A 
ENDROOT
BRANCH   1  19
HETATM   19  NAU   D T 500      -6.626  -8.754  -6.873  1.00 41.74    -0.269 NA
BRANCH  19  20
HETATM   20  CAQ   D T 500      -6.425  -9.791  -7.883  1.00 47.43     0.151 C 
BRANCH  20  21
HETATM   21  CAO   D T 500      -6.558 -11.223  -7.352  1.00 48.34     0.146 C 
BRANCH  21  22
HETATM   22  NAS   D T 500      -5.314 -11.951  -7.413  1.00 49.29    -0.291 NA
BRANCH  22  23
HETATM   23  CAM   D T 500      -5.007 -12.753  -8.572  1.00 49.13     0.155 C 
BRANCH  23  24
HETATM   24  CAK   D T 500      -6.284 -13.369  -9.120  1.00 54.80     0.208 C 
HETATM   25  OAC   D T 500      -6.131 -13.638 -10.521  1.00 60.78    -0.218 OA
ENDBRANCH  23  24
ENDBRANCH  22  23
ENDBRANCH  21  22
ENDBRANCH  20  21
ENDBRANCH  19  20
ENDBRANCH   1  19
BRANCH  18  26
HETATM   26  NAV   D T 500      -9.297  -4.043  -8.383  1.00 45.82    -0.269 NA
BRANCH  26  27
HETATM   27  CAR   D T 500     -10.721  -3.979  -8.063  1.00 50.37     0.151 C 
BRANCH  27  28
HETATM   28  CAP   D T 500     -11.039  -3.275  -6.762  1.00 56.30     0.146 C 
BRANCH  28  29
HETATM   29  NAT   D T 500     -11.439  -4.250  -5.757  1.00 57.16    -0.291 NA
BRANCH  29  30
HETATM   30  CAN   D T 500     -10.811  -4.182  -4.448  1.00 55.30     0.155 C 
BRANCH  30  31
HETATM   31  CAL   D T 500      -9.427  -3.557  -4.530  1.00 53.22     0.208 C 
HETATM   32  OAD   D T 500      -8.518  -4.602  -4.179  1.00 54.28    -0.218 OA
ENDBRANCH  30  31
ENDBRANCH  29  30
ENDBRANCH  28  29
ENDBRANCH  27  28
ENDBRANCH  26  27
ENDBRANCH  18  26
TORSDOF 24
ENDMDL
MODEL 8
REMARK VINA RESULT:    -5.470      1.826      6.685
REMARK INTER + INTRA:         -10.707
REMARK INTER:                  -9.439
REMARK INTRA:                  -1.268
REMARK UNBOUND:                -1.399
REMARK  24 active torsions:
REMARK  status: ('A' for Active; 'I' for Inactive)
REMARK    1  A    between atoms: CAK_2  and  CAM_3 
REMARK    2  A    between atoms: CAM_3  and  NAS_4 
REMARK    3  A    between atoms: NAS_4  and  CAO_5 
REMARK    4  A    between atoms: CAO_5  and  CAQ_6 
REMARK    5  A    between atoms: CAQ_6  and  NAU_7 
REMARK    6  A    between atoms: NAU_7  and  CAY_8 
REMARK    7  A    between atoms: CAZ_25  and  NAV_26 
REMARK    8  A    between atoms: NAV_26  and  CAR_27 
REMARK    9  A    between atoms: CAR_27  and  CAP_28 
REMARK   10  A    between atoms: CAP_28  and  NAT_29 
REMARK   11  A    between atoms: NAT_29  and  CAN_30 
REMARK   12  A    between atoms: CAN_30  and  CAL_31 
REMARK   13  A    between atoms: CAK_34  and  CAM_35 
REMARK   14  A    between atoms: CAM_35  and  NAS_36 
REMARK   15  A    between atoms: NAS_36  and  CAO_37 
REMARK   16  A    between atoms: CAO_37  and  CAQ_38 
REMARK   17  A    between atoms: CAQ_38  and  NAU_39 
REMARK   18  A    between atoms: NAU_39  and  CAY_40 
REMARK   19  A    between atoms: CAZ_57  and  NAV_58 
REMARK   20  A    between atoms: NAV_58  and  CAR_59 
REMARK   21  A    between atoms: CAR_59  and  CAP_60 
REMARK   22  A    between atoms: CAP_60  and  NAT_61 
REMARK   23  A    between atoms: NAT_61  and  CAN_62 
REMARK   24  A    between atoms: CAN_62  and  CAL_63 
ROOT
HETATM    1  CAY   D T 500      -8.767   0.762  -6.334  1.00 41.84     0.079 A 
HETATM    2  CAI   D T 500     -10.044   0.990  -5.750  1.00 42.25     0.020 A 
HETATM    3  CAJ   D T 500     -10.780  -0.002  -5.083  1.00 39.39     0.020 A 
HETATM    4  CBE   D T 500      -8.171  -0.605  -6.242  1.00 38.78     0.061 A 
HETATM    5  CBA   D T 500      -6.833  -0.926  -6.817  1.00 38.89     0.199 A 
HETATM    6  OAA   D T 500      -6.183  -0.037  -7.412  1.00 42.15    -0.286 OA
HETATM    7  CBC   D T 500      -6.281  -2.311  -6.674  1.00 38.64     0.069 A 
HETATM    8  CAW   D T 500      -4.953  -2.714  -7.231  1.00 41.35     0.134 A 
HETATM    9  OAE   D T 500      -4.170  -1.789  -7.897  1.00 47.27    -0.190 OA
HETATM   10  CAG   D T 500      -4.511  -4.037  -7.058  1.00 39.87     0.030 A 
HETATM   11  CAH   D T 500      -5.275  -5.007  -6.387  1.00 38.23     0.030 A 
HETATM   12  CAX   D T 500      -6.526  -4.709  -5.859  1.00 35.83     0.134 A 
HETATM   13  OAF   D T 500      -7.246  -5.646  -5.203  1.00 35.23    -0.190 OA
HETATM   14  CBD   D T 500      -7.074  -3.347  -5.973  1.00 35.97     0.069 A 
HETATM   15  CBB   D T 500      -8.406  -3.022  -5.408  1.00 36.65     0.199 A 
HETATM   16  OAB   D T 500      -9.065  -3.898  -4.827  1.00 36.71    -0.286 OA
HETATM   17  CBF   D T 500      -8.958  -1.652  -5.533  1.00 37.01     0.061 A 
HETATM   18  CAZ   D T 500     -10.288  -1.303  -4.960  1.00 39.54     0.079 A 
ENDROOT
BRANCH   1  19
HETATM   19  NAU   D T 500      -8.081   1.755  -6.969  1.00 41.74    -0.269 NA
BRANCH  19  20
HETATM   20  CAQ   D T 500      -7.975   3.069  -6.339  1.00 47.43     0.151 C 
BRANCH  20  21
HETATM   21  CAO   D T 500      -8.104   4.247  -7.311  1.00 48.34     0.146 C 
BRANCH  21  22
HETATM   22  NAS   D T 500      -7.077   5.241  -7.114  1.00 49.29    -0.291 NA
BRANCH  22  23
HETATM   23  CAM   D T 500      -6.429   5.841  -8.255  1.00 49.13     0.155 C 
BRANCH  23  24
HETATM   24  CAK   D T 500      -5.115   6.471  -7.824  1.00 54.80     0.208 C 
HETATM   25  OAC   D T 500      -5.333   7.322  -6.689  1.00 60.78    -0.218 OA
ENDBRANCH  23  24
ENDBRANCH  22  23
ENDBRANCH  21  22
ENDBRANCH  20  21
ENDBRANCH  19  20
ENDBRANCH   1  19
BRANCH  18  26
HETATM   26  NAV   D T 500     -10.996  -2.244  -4.301  1.00 45.82    -0.269 NA
BRANCH  26  27
HETATM   27  CAR   D T 500     -12.331  -2.530  -4.818  1.00 50.37     0.151 C 
BRANCH  27  28
HETATM   28  CAP   D T 500     -12.575  -3.986  -5.151  1.00 56.30     0.146 C 
BRANCH  28  29
HETATM   29  NAT   D T 500     -12.864  -4.127  -6.571  1.00 57.16    -0.291 NA
BRANCH  29  30
HETATM   30  CAN   D T 500     -12.230  -3.201  -7.495  1.00 55.30     0.155 C 
BRANCH  30  31
HETATM   31  CAL   D T 500     -10.962  -3.794  -8.089  1.00 53.22     0.208 C 
HETATM   32  OAD   D T 500     -10.245  -2.685  -8.634  1.00 54.28    -0.218 OA
ENDBRANCH  30  31
ENDBRANCH  29  30
ENDBRANCH  28  29
ENDBRANCH  27  28
ENDBRANCH  26  27
ENDBRANCH  18  26
TORSDOF 24
ENDMDL
MODEL 9
REMARK VINA RESULT:    -5.397      1.976      5.775
REMARK INTER + INTRA:         -10.582
REMARK INTER:                  -9.088
REMARK INTRA:                  -1.493
REMARK UNBOUND:                -1.399
REMARK  24 active torsions:
REMARK  status: ('A' for Active; 'I' for Inactive)
REMARK    1  A    between atoms: CAK_2  and  CAM_3 
REMARK    2  A    between atoms: CAM_3  and  NAS_4 
REMARK    3  A    between atoms: NAS_4  and  CAO_5 
REMARK    4  A    between atoms: CAO_5  and  CAQ_6 
REMARK    5  A    between atoms: CAQ_6  and  NAU_7 
REMARK    6  A    between atoms: NAU_7  and  CAY_8 
REMARK    7  A    between atoms: CAZ_25  and  NAV_26 
REMARK    8  A    between atoms: NAV_26  and  CAR_27 
REMARK    9  A    between atoms: CAR_27  and  CAP_28 
REMARK   10  A    between atoms: CAP_28  and  NAT_29 
REMARK   11  A    between atoms: NAT_29  and  CAN_30 
REMARK   12  A    between atoms: CAN_30  and  CAL_31 
REMARK   13  A    between atoms: CAK_34  and  CAM_35 
REMARK   14  A    between atoms: CAM_35  and  NAS_36 
REMARK   15  A    between atoms: NAS_36  and  CAO_37 
REMARK   16  A    between atoms: CAO_37  and  CAQ_38 
REMARK   17  A    between atoms: CAQ_38  and  NAU_39 
REMARK   18  A    between atoms: NAU_39  and  CAY_40 
REMARK   19  A    between atoms: CAZ_57  and  NAV_58 
REMARK   20  A    between atoms: NAV_58  and  CAR_59 
REMARK   21  A    between atoms: CAR_59  and  CAP_60 
REMARK   22  A    between atoms: CAP_60  and  NAT_61 
REMARK   23  A    between atoms: NAT_61  and  CAN_62 
REMARK   24  A    between atoms: CAN_62  and  CAL_63 
ROOT
HETATM    1  CAY   D T 500      -8.068  -1.049  -8.198  1.00 41.84     0.079 A 
HETATM    2  CAI   D T 500      -9.348  -1.360  -8.734  1.00 42.25     0.020 A 
HETATM    3  CAJ   D T 500      -9.887  -2.657  -8.753  1.00 39.39     0.020 A 
HETATM    4  CBE   D T 500      -7.241  -2.156  -7.628  1.00 38.78     0.061 A 
HETATM    5  CBA   D T 500      -5.893  -1.915  -7.037  1.00 38.89     0.199 A 
HETATM    6  OAA   D T 500      -5.418  -0.757  -7.025  1.00 42.15    -0.286 OA
HETATM    7  CBC   D T 500      -5.123  -3.064  -6.463  1.00 38.64     0.069 A 
HETATM    8  CAW   D T 500      -3.762  -2.905  -5.862  1.00 41.35     0.134 A 
HETATM    9  OAE   D T 500      -3.170  -1.658  -5.805  1.00 47.27    -0.190 OA
HETATM   10  CAG   D T 500      -3.105  -4.037  -5.350  1.00 39.87     0.030 A 
HETATM   11  CAH   D T 500      -3.671  -5.323  -5.388  1.00 38.23     0.030 A 
HETATM   12  CAX   D T 500      -4.925  -5.548  -5.948  1.00 35.83     0.134 A 
HETATM   13  OAF   D T 500      -5.467  -6.786  -5.966  1.00 35.23    -0.190 OA
HETATM   14  CBD   D T 500      -5.704  -4.426  -6.497  1.00 35.97     0.069 A 
HETATM   15  CBB   D T 500      -7.043  -4.659  -7.092  1.00 36.65     0.199 A 
HETATM   16  OAB   D T 500      -7.518  -5.804  -7.120  1.00 36.71    -0.286 OA
HETATM   17  CBF   D T 500      -7.819  -3.529  -7.652  1.00 37.01     0.061 A 
HETATM   18  CAZ   D T 500      -9.171  -3.741  -8.241  1.00 39.54     0.079 A 
ENDROOT
BRANCH   1  19
HETATM   19  NAU   D T 500      -7.582   0.226  -8.193  1.00 41.74    -0.269 NA
BRANCH  19  20
HETATM   20  CAQ   D T 500      -8.483   1.334  -7.885  1.00 47.43     0.151 C 
BRANCH  20  21
HETATM   21  CAO   D T 500      -8.799   1.493  -6.394  1.00 48.34     0.146 C 
BRANCH  21  22
HETATM   22  NAS   D T 500     -10.211   1.662  -6.144  1.00 49.29    -0.291 NA
BRANCH  22  23
HETATM   23  CAM   D T 500     -11.065   0.504  -6.039  1.00 49.13     0.155 C 
BRANCH  23  24
HETATM   24  CAK   D T 500     -10.418  -0.529  -5.132  1.00 54.80     0.208 C 
HETATM   25  OAC   D T 500     -10.615  -0.161  -3.759  1.00 60.78    -0.218 OA
ENDBRANCH  23  24
ENDBRANCH  22  23
ENDBRANCH  21  22
ENDBRANCH  20  21
ENDBRANCH  19  20
ENDBRANCH   1  19
BRANCH  18  26
HETATM   26  NAV   D T 500      -9.707  -4.979  -8.248  1.00 45.82    -0.269 NA
BRANCH  26  27
HETATM   27  CAR   D T 500     -11.165  -5.054  -8.266  1.00 50.37     0.151 C 
BRANCH  27  28
HETATM   28  CAP   D T 500     -11.727  -6.414  -7.914  1.00 56.30     0.146 C 
BRANCH  28  29
HETATM   29  NAT   D T 500     -12.448  -6.339  -6.651  1.00 57.16    -0.291 NA
BRANCH  29  30
HETATM   30  CAN   D T 500     -12.828  -5.026  -6.156  1.00 55.30     0.155 C 
BRANCH  30  31
HETATM   31  CAL   D T 500     -12.392  -4.835  -4.711  1.00 53.22     0.208 C 
HETATM   32  OAD   D T 500     -11.204  -4.043  -4.776  1.00 54.28    -0.218 OA
ENDBRANCH  30  31
ENDBRANCH  29  30
ENDBRANCH  28  29
ENDBRANCH  27  28
ENDBRANCH  26  27
ENDBRANCH  18  26
TORSDOF 24
ENDMDL
