MODEL 1
REMARK VINA RESULT:    -6.065      0.000      0.000
REMARK INTER + INTRA:         -11.282
REMARK INTER:                 -10.320
REMARK INTRA:                  -0.962
REMARK UNBOUND:                -0.962
REMARK  24 active torsions:
REMARK  status: ('A' for Active; 'I' for Inactive)
REMARK    1  A    between atoms: CAK_2  and  CAM_3 
REMARK    2  A    between atoms: CAM_3  and  NAS_4 
REMARK    3  A    between atoms: NAS_4  and  CAO_5 
REMARK    4  A    between atoms: CAO_5  and  CAQ_6 
REMARK    5  A    between atoms: CAQ_6  and  NAU_7 
REMARK    6  A    between atoms: NAU_7  and  CAY_8 
REMARK    7  A    between atoms: CAZ_25  and  NAV_26 
REMARK    8  A    between atoms: NAV_26  and  CAR_27 
REMARK    9  A    between atoms: CAR_27  and  CAP_28 
REMARK   10  A    between atoms: CAP_28  and  NAT_29 
REMARK   11  A    between atoms: NAT_29  and  CAN_30 
REMARK   12  A    between atoms: CAN_30  and  CAL_31 
REMARK   13  A    between atoms: CAK_34  and  CAM_35 
REMARK   14  A    between atoms: CAM_35  and  NAS_36 
REMARK   15  A    between atoms: NAS_36  and  CAO_37 
REMARK   16  A    between atoms: CAO_37  and  CAQ_38 
REMARK   17  A    between atoms: CAQ_38  and  NAU_39 
REMARK   18  A    between atoms: NAU_39  and  CAY_40 
REMARK   19  A    between atoms: CAZ_57  and  NAV_58 
REMARK   20  A    between atoms: NAV_58  and  CAR_59 
REMARK   21  A    between atoms: CAR_59  and  CAP_60 
REMARK   22  A    between atoms: CAP_60  and  NAT_61 
REMARK   23  A    between atoms: NAT_61  and  CAN_62 
REMARK   24  A    between atoms: CAN_62  and  CAL_63 
ROOT
HETATM    1  CAY   D T 500      10.208  -3.547  -3.598  1.00 41.84     0.079 A 
HETATM    2  CAI   D T 500       9.935  -4.227  -4.818  1.00 42.25     0.020 A 
HETATM    3  CAJ   D T 500       9.516  -5.566  -4.882  1.00 39.39     0.020 A 
HETATM    4  CBE   D T 500      10.050  -4.292  -2.312  1.00 38.78     0.061 A 
HETATM    5  CBA   D T 500      10.305  -3.651  -0.990  1.00 38.89     0.199 A 
HETATM    6  OAA   D T 500      10.679  -2.457  -0.939  1.00 42.15    -0.286 OA
HETATM    7  CBC   D T 500      10.109  -4.445   0.265  1.00 38.64     0.069 A 
HETATM    8  CAW   D T 500      10.354  -3.877   1.627  1.00 41.35     0.134 A 
HETATM    9  OAE   D T 500      10.763  -2.565   1.769  1.00 47.27    -0.190 OA
HETATM   10  CAG   D T 500      10.152  -4.693   2.755  1.00 39.87     0.030 A 
HETATM   11  CAH   D T 500       9.735  -6.032   2.654  1.00 38.23     0.030 A 
HETATM   12  CAX   D T 500       9.506  -6.631   1.419  1.00 35.83     0.134 A 
HETATM   13  OAF   D T 500       9.092  -7.915   1.335  1.00 35.23    -0.190 OA
HETATM   14  CBD   D T 500       9.674  -5.858   0.178  1.00 35.97     0.069 A 
HETATM   15  CBB   D T 500       9.428  -6.489  -1.141  1.00 36.65     0.199 A 
HETATM   16  OAB   D T 500       9.068  -7.675  -1.204  1.00 36.71    -0.286 OA
HETATM   17  CBF   D T 500       9.606  -5.711  -2.389  1.00 37.01     0.061 A 
HETATM   18  CAZ   D T 500       9.352  -6.324  -3.722  1.00 39.54     0.079 A 
ENDROOT
BRANCH   1  19
HETATM   19  NAU   D T 500      10.607  -2.242  -3.578  1.00 41.74    -0.269 NA
BRANCH  19  20
HETATM   20  CAQ   D T 500      10.224  -1.360  -4.678  1.00 47.43     0.151 C 
BRANCH  20  21
HETATM   21  CAO   D T 500       8.844  -0.716  -4.517  1.00 48.34     0.146 C 
BRANCH  21  22
HETATM   22  NAS   D T 500       8.219  -0.427  -5.787  1.00 49.29    -0.291 NA
BRANCH  22  23
HETATM   23  CAM   D T 500       7.872   0.933  -6.124  1.00 49.13     0.155 C 
BRANCH  23  24
HETATM   24  CAK   D T 500       7.559   1.028  -7.607  1.00 54.80     0.208 C 
HETATM   25  OAC   D T 500       7.214  -0.268  -8.115  1.00 60.78    -0.218 OA
ENDBRANCH  23  24
ENDBRANCH  22  23
ENDBRANCH  21  22
ENDBRANCH  20  21
ENDBRANCH  19  20
ENDBRANCH   1  19
BRANCH  18  26
HETATM   26  NAV   D T 500       8.930  -7.605  -3.796  1.00 45.82    -0.269 NA
BRANCH  26  27
HETATM   27  CAR   D T 500       8.683  -8.130  -5.135  1.00 50.37     0.151 C 
BRANCH  27  28
HETATM   28  CAP   D T 500       7.484  -9.049  -5.235  1.00 56.30     0.146 C 
BRANCH  28  29
HETATM   29  NAT   D T 500       6.992  -9.364  -3.901  1.00 57.16    -0.291 NA
BRANCH  29  30
HETATM   30  CAN   D T 500       5.627  -9.851  -3.772  1.00 55.30     0.155 C 
BRANCH  30  31
HETATM   31  CAL   D T 500       4.894  -9.148  -2.640  1.00 53.22     0.208 C 
HETATM   32  OAD   D T 500       5.915  -8.542  -1.846  1.00 54.28    -0.218 OA
ENDBRANCH  30  31
ENDBRANCH  29  30
ENDBRANCH  28  29
ENDBRANCH  27  28
ENDBRANCH  26  27
ENDBRANCH  18  26
TORSDOF 24
ENDMDL
MODEL 2
REMARK VINA RESULT:    -5.885      2.629      8.472
REMARK INTER + INTRA:         -10.976
REMARK INTER:                 -10.125
REMARK INTRA:                  -0.851
REMARK UNBOUND:                -0.962
REMARK  24 active torsions:
REMARK  status: ('A' for Active; 'I' for Inactive)
REMARK    1  A    between atoms: CAK_2  and  CAM_3 
REMARK    2  A    between atoms: CAM_3  and  NAS_4 
REMARK    3  A    between atoms: NAS_4  and  CAO_5 
REMARK    4  A    between atoms: CAO_5  and  CAQ_6 
REMARK    5  A    between atoms: CAQ_6  and  NAU_7 
REMARK    6  A    between atoms: NAU_7  and  CAY_8 
REMARK    7  A    between atoms: CAZ_25  and  NAV_26 
REMARK    8  A    between atoms: NAV_26  and  CAR_27 
REMARK    9  A    between atoms: CAR_27  and  CAP_28 
REMARK   10  A    between atoms: CAP_28  and  NAT_29 
REMARK   11  A    between atoms: NAT_29  and  CAN_30 
REMARK   12  A    between atoms: CAN_30  and  CAL_31 
REMARK   13  A    between atoms: CAK_34  and  CAM_35 
REMARK   14  A    between atoms: CAM_35  and  NAS_36 
REMARK   15  A    between atoms: NAS_36  and  CAO_37 
REMARK   16  A    between atoms: CAO_37  and  CAQ_38 
REMARK   17  A    between atoms: CAQ_38  and  NAU_39 
REMARK   18  A    between atoms: NAU_39  and  CAY_40 
REMARK   19  A    between atoms: CAZ_57  and  NAV_58 
REMARK   20  A    between atoms: NAV_58  and  CAR_59 
REMARK   21  A    between atoms: CAR_59  and  CAP_60 
REMARK   22  A    between atoms: CAP_60  and  NAT_61 
REMARK   23  A    between atoms: NAT_61  and  CAN_62 
REMARK   24  A    between atoms: CAN_62  and  CAL_63 
ROOT
HETATM    1  CAY   D T 500       9.394  -5.369  -3.637  1.00 41.84     0.079 A 
HETATM    2  CAI   D T 500       9.965  -5.872  -2.434  1.00 42.25     0.020 A 
HETATM    3  CAJ   D T 500      10.339  -5.056  -1.353  1.00 39.39     0.020 A 
HETATM    4  CBE   D T 500       9.185  -3.895  -3.769  1.00 38.78     0.061 A 
HETATM    5  CBA   D T 500       8.583  -3.288  -4.991  1.00 38.89     0.199 A 
HETATM    6  OAA   D T 500       8.252  -4.020  -5.951  1.00 42.15    -0.286 OA
HETATM    7  CBC   D T 500       8.379  -1.805  -5.054  1.00 38.64     0.069 A 
HETATM    8  CAW   D T 500       7.792  -1.120  -6.248  1.00 41.35     0.134 A 
HETATM    9  OAE   D T 500       7.396  -1.859  -7.346  1.00 47.27    -0.190 OA
HETATM   10  CAG   D T 500       7.640   0.277  -6.228  1.00 39.87     0.030 A 
HETATM   11  CAH   D T 500       8.029   1.065  -5.130  1.00 38.23     0.030 A 
HETATM   12  CAX   D T 500       8.598   0.498  -3.994  1.00 35.83     0.134 A 
HETATM   13  OAF   D T 500       8.955   1.263  -2.939  1.00 35.23    -0.190 OA
HETATM   14  CBD   D T 500       8.786  -0.960  -3.908  1.00 35.97     0.069 A 
HETATM   15  CBB   D T 500       9.388  -1.572  -2.699  1.00 36.65     0.199 A 
HETATM   16  OAB   D T 500       9.730  -0.854  -1.746  1.00 36.71    -0.286 OA
HETATM   17  CBF   D T 500       9.584  -3.037  -2.619  1.00 37.01     0.061 A 
HETATM   18  CAZ   D T 500      10.176  -3.671  -1.408  1.00 39.54     0.079 A 
ENDROOT
BRANCH   1  19
HETATM   19  NAU   D T 500       9.038  -6.196  -4.662  1.00 41.74    -0.269 NA
BRANCH  19  20
HETATM   20  CAQ   D T 500       9.114  -7.643  -4.473  1.00 47.43     0.151 C 
BRANCH  20  21
HETATM   21  CAO   D T 500       7.869  -8.405  -4.937  1.00 48.34     0.146 C 
BRANCH  21  22
HETATM   22  NAS   D T 500       7.527  -9.494  -4.052  1.00 49.29    -0.291 NA
BRANCH  22  23
HETATM   23  CAM   D T 500       6.687  -9.249  -2.904  1.00 49.13     0.155 C 
BRANCH  23  24
HETATM   24  CAK   D T 500       5.259  -9.657  -3.219  1.00 54.80     0.208 C 
HETATM   25  OAC   D T 500       4.344  -8.797  -2.526  1.00 60.78    -0.218 OA
ENDBRANCH  23  24
ENDBRANCH  22  23
ENDBRANCH  21  22
ENDBRANCH  20  21
ENDBRANCH  19  20
ENDBRANCH   1  19
BRANCH  18  26
HETATM   26  NAV   D T 500      10.521  -2.899  -0.355  1.00 45.82    -0.269 NA
BRANCH  26  27
HETATM   27  CAR   D T 500      11.890  -3.040   0.131  1.00 50.37     0.151 C 
BRANCH  27  28
HETATM   28  CAP   D T 500      12.511  -1.754   0.634  1.00 56.30     0.146 C 
BRANCH  28  29
HETATM   29  NAT   D T 500      13.264  -1.118  -0.438  1.00 57.16    -0.291 NA
BRANCH  29  30
HETATM   30  CAN   D T 500      14.639  -0.729  -0.170  1.00 55.30     0.155 C 
BRANCH  30  31
HETATM   31  CAL   D T 500      14.715   0.314   0.934  1.00 53.22     0.208 C 
HETATM   32  OAD   D T 500      14.483   1.567   0.287  1.00 54.28    -0.218 OA
ENDBRANCH  30  31
ENDBRANCH  29  30
ENDBRANCH  28  29
ENDBRANCH  27  28
ENDBRANCH  26  27
ENDBRANCH  18  26
TORSDOF 24
ENDMDL
MODEL 3
REMARK VINA RESULT:    -5.882      3.550      6.584
REMARK INTER + INTRA:         -10.971
REMARK INTER:                 -10.213
REMARK INTRA:                  -0.758
REMARK UNBOUND:                -0.962
REMARK  24 active torsions:
REMARK  status: ('A' for Active; 'I' for Inactive)
REMARK    1  A    between atoms: CAK_2  and  CAM_3 
REMARK    2  A    between atoms: CAM_3  and  NAS_4 
REMARK    3  A    between atoms: NAS_4  and  CAO_5 
REMARK    4  A    between atoms: CAO_5  and  CAQ_6 
REMARK    5  A    between atoms: CAQ_6  and  NAU_7 
REMARK    6  A    between atoms: NAU_7  and  CAY_8 
REMARK    7  A    between atoms: CAZ_25  and  NAV_26 
REMARK    8  A    between atoms: NAV_26  and  CAR_27 
REMARK    9  A    between atoms: CAR_27  and  CAP_28 
REMARK   10  A    between atoms: CAP_28  and  NAT_29 
REMARK   11  A    between atoms: NAT_29  and  CAN_30 
REMARK   12  A    between atoms: CAN_30  and  CAL_31 
REMARK   13  A    between atoms: CAK_34  and  CAM_35 
REMARK   14  A    between atoms: CAM_35  and  NAS_36 
REMARK   15  A    between atoms: NAS_36  and  CAO_37 
REMARK   16  A    between atoms: CAO_37  and  CAQ_38 
REMARK   17  A    between atoms: CAQ_38  and  NAU_39 
REMARK   18  A    between atoms: NAU_39  and  CAY_40 
REMARK   19  A    between atoms: CAZ_57  and  NAV_58 
REMARK   20  A    between atoms: NAV_58  and  CAR_59 
REMARK   21  A    between atoms: CAR_59  and  CAP_60 
REMARK   22  A    between atoms: CAP_60  and  NAT_61 
REMARK   23  A    between atoms: NAT_61  and  CAN_62 
REMARK   24  A    between atoms: CAN_62  and  CAL_63 
ROOT
HETATM    1  CAY   D T 500      12.148  -1.781  -1.497  1.00 41.84     0.079 A 
HETATM    2  CAI   D T 500      12.052  -2.863  -0.578  1.00 42.25     0.020 A 
HETATM    3  CAJ   D T 500      10.979  -3.769  -0.557  1.00 39.39     0.020 A 
HETATM    4  CBE   D T 500      11.049  -1.586  -2.491  1.00 38.78     0.061 A 
HETATM    5  CBA   D T 500      11.077  -0.483  -3.495  1.00 38.89     0.199 A 
HETATM    6  OAA   D T 500      12.036   0.322  -3.509  1.00 42.15    -0.286 OA
HETATM    7  CBC   D T 500       9.955  -0.353  -4.480  1.00 38.64     0.069 A 
HETATM    8  CAW   D T 500       9.905   0.731  -5.509  1.00 41.35     0.134 A 
HETATM    9  OAE   D T 500      10.928   1.655  -5.593  1.00 47.27    -0.190 OA
HETATM   10  CAG   D T 500       8.812   0.785  -6.392  1.00 39.87     0.030 A 
HETATM   11  CAH   D T 500       7.752  -0.137  -6.341  1.00 38.23     0.030 A 
HETATM   12  CAX   D T 500       7.724  -1.160  -5.398  1.00 35.83     0.134 A 
HETATM   13  OAF   D T 500       6.707  -2.049  -5.367  1.00 35.23    -0.190 OA
HETATM   14  CBD   D T 500       8.828  -1.313  -4.438  1.00 35.97     0.069 A 
HETATM   15  CBB   D T 500       8.807  -2.404  -3.432  1.00 36.65     0.199 A 
HETATM   16  OAB   D T 500       7.855  -3.200  -3.403  1.00 36.71    -0.286 OA
HETATM   17  CBF   D T 500       9.915  -2.550  -2.462  1.00 37.01     0.061 A 
HETATM   18  CAZ   D T 500       9.917  -3.646  -1.453  1.00 39.54     0.079 A 
ENDROOT
BRANCH   1  19
HETATM   19  NAU   D T 500      13.211  -0.925  -1.490  1.00 41.74    -0.269 NA
BRANCH  19  20
HETATM   20  CAQ   D T 500      14.520  -1.415  -1.063  1.00 47.43     0.151 C 
BRANCH  20  21
HETATM   21  CAO   D T 500      15.633  -0.364  -1.117  1.00 48.34     0.146 C 
BRANCH  21  22
HETATM   22  NAS   D T 500      15.621   0.513   0.031  1.00 49.29    -0.291 NA
BRANCH  22  23
HETATM   23  CAM   D T 500      14.736   1.653   0.054  1.00 49.13     0.155 C 
BRANCH  23  24
HETATM   24  CAK   D T 500      14.741   2.331  -1.306  1.00 54.80     0.208 C 
HETATM   25  OAC   D T 500      13.943   3.522  -1.258  1.00 60.78    -0.218 OA
ENDBRANCH  23  24
ENDBRANCH  22  23
ENDBRANCH  21  22
ENDBRANCH  20  21
ENDBRANCH  19  20
ENDBRANCH   1  19
BRANCH  18  26
HETATM   26  NAV   D T 500       8.900  -4.536  -1.436  1.00 45.82    -0.269 NA
BRANCH  26  27
HETATM   27  CAR   D T 500       8.566  -5.112  -0.138  1.00 50.37     0.151 C 
BRANCH  27  28
HETATM   28  CAP   D T 500       8.512  -6.625  -0.121  1.00 56.30     0.146 C 
BRANCH  28  29
HETATM   29  NAT   D T 500       7.329  -7.084  -0.835  1.00 57.16    -0.291 NA
BRANCH  29  30
HETATM   30  CAN   D T 500       7.413  -8.340  -1.563  1.00 55.30     0.155 C 
BRANCH  30  31
HETATM   31  CAL   D T 500       6.032  -8.911  -1.844  1.00 53.22     0.208 C 
HETATM   32  OAD   D T 500       5.994  -9.135  -3.255  1.00 54.28    -0.218 OA
ENDBRANCH  30  31
ENDBRANCH  29  30
ENDBRANCH  28  29
ENDBRANCH  27  28
ENDBRANCH  26  27
ENDBRANCH  18  26
TORSDOF 24
ENDMDL
MODEL 4
REMARK VINA RESULT:    -5.645      3.869      9.259
REMARK INTER + INTRA:         -10.567
REMARK INTER:                  -9.904
REMARK INTRA:                  -0.662
REMARK UNBOUND:                -0.962
REMARK  24 active torsions:
REMARK  status: ('A' for Active; 'I' for Inactive)
REMARK    1  A    between atoms: CAK_2  and  CAM_3 
REMARK    2  A    between atoms: CAM_3  and  NAS_4 
REMARK    3  A    between atoms: NAS_4  and  CAO_5 
REMARK    4  A    between atoms: CAO_5  and  CAQ_6 
REMARK    5  A    between atoms: CAQ_6  and  NAU_7 
REMARK    6  A    between atoms: NAU_7  and  CAY_8 
REMARK    7  A    between atoms: CAZ_25  and  NAV_26 
REMARK    8  A    between atoms: NAV_26  and  CAR_27 
REMARK    9  A    between atoms: CAR_27  and  CAP_28 
REMARK   10  A    between atoms: CAP_28  and  NAT_29 
REMARK   11  A    between atoms: NAT_29  and  CAN_30 
REMARK   12  A    between atoms: CAN_30  and  CAL_31 
REMARK   13  A    between atoms: CAK_34  and  CAM_35 
REMARK   14  A    between atoms: CAM_35  and  NAS_36 
REMARK   15  A    between atoms: NAS_36  and  CAO_37 
REMARK   16  A    between atoms: CAO_37  and  CAQ_38 
REMARK   17  A    between atoms: CAQ_38  and  NAU_39 
REMARK   18  A    between atoms: NAU_39  and  CAY_40 
REMARK   19  A    between atoms: CAZ_57  and  NAV_58 
REMARK   20  A    between atoms: NAV_58  and  CAR_59 
REMARK   21  A    between atoms: CAR_59  and  CAP_60 
REMARK   22  A    between atoms: CAP_60  and  NAT_61 
REMARK   23  A    between atoms: NAT_61  and  CAN_62 
REMARK   24  A    between atoms: CAN_62  and  CAL_63 
ROOT
HETATM    1  CAY   D T 500      10.046  -3.708  -1.476  1.00 41.84     0.079 A 
HETATM    2  CAI   D T 500      11.139  -3.758  -0.567  1.00 42.25     0.020 A 
HETATM    3  CAJ   D T 500      12.187  -2.823  -0.564  1.00 39.39     0.020 A 
HETATM    4  CBE   D T 500      10.006  -2.610  -2.489  1.00 38.78     0.061 A 
HETATM    5  CBA   D T 500       8.890  -2.480  -3.470  1.00 38.89     0.199 A 
HETATM    6  OAA   D T 500       7.959  -3.317  -3.469  1.00 42.15    -0.286 OA
HETATM    7  CBC   D T 500       8.896  -1.345  -4.448  1.00 38.64     0.069 A 
HETATM    8  CAW   D T 500       7.820  -1.152  -5.469  1.00 41.35     0.134 A 
HETATM    9  OAE   D T 500       6.755  -2.030  -5.529  1.00 47.27    -0.190 OA
HETATM   10  CAG   D T 500       7.905  -0.062  -6.354  1.00 39.87     0.030 A 
HETATM   11  CAH   D T 500       8.971   0.854  -6.325  1.00 38.23     0.030 A 
HETATM   12  CAX   D T 500      10.015   0.726  -5.414  1.00 35.83     0.134 A 
HETATM   13  OAF   D T 500      11.027   1.621  -5.386  1.00 35.23    -0.190 OA
HETATM   14  CBD   D T 500      10.013  -0.372  -4.434  1.00 35.97     0.069 A 
HETATM   15  CBB   D T 500      11.121  -0.512  -3.458  1.00 36.65     0.199 A 
HETATM   16  OAB   D T 500      12.054   0.305  -3.458  1.00 36.71    -0.286 OA
HETATM   17  CBF   D T 500      11.120  -1.623  -2.479  1.00 37.01     0.061 A 
HETATM   18  CAZ   D T 500      12.217  -1.774  -1.483  1.00 39.54     0.079 A 
ENDROOT
BRANCH   1  19
HETATM   19  NAU   D T 500       9.043  -4.634  -1.443  1.00 41.74    -0.269 NA
BRANCH  19  20
HETATM   20  CAQ   D T 500       9.364  -6.044  -1.649  1.00 47.43     0.151 C 
BRANCH  20  21
HETATM   21  CAO   D T 500       8.502  -7.012  -0.832  1.00 48.34     0.146 C 
BRANCH  21  22
HETATM   22  NAS   D T 500       7.954  -8.078  -1.638  1.00 49.29    -0.291 NA
BRANCH  22  23
HETATM   23  CAM   D T 500       6.651  -8.614  -1.329  1.00 49.13     0.155 C 
BRANCH  23  24
HETATM   24  CAK   D T 500       6.009  -9.159  -2.593  1.00 54.80     0.208 C 
HETATM   25  OAC   D T 500       4.581  -9.059  -2.495  1.00 60.78    -0.218 OA
ENDBRANCH  23  24
ENDBRANCH  22  23
ENDBRANCH  21  22
ENDBRANCH  20  21
ENDBRANCH  19  20
ENDBRANCH   1  19
BRANCH  18  26
HETATM   26  NAV   D T 500      13.220  -0.869  -1.457  1.00 45.82    -0.269 NA
BRANCH  26  27
HETATM   27  CAR   D T 500      14.530  -1.364  -1.046  1.00 50.37     0.151 C 
BRANCH  27  28
HETATM   28  CAP   D T 500      15.691  -0.495  -1.476  1.00 56.30     0.146 C 
BRANCH  28  29
HETATM   29  NAT   D T 500      16.772  -0.600  -0.505  1.00 57.16    -0.291 NA
BRANCH  29  30
HETATM   30  CAN   D T 500      17.736  -1.677  -0.667  1.00 55.30     0.155 C 
BRANCH  30  31
HETATM   31  CAL   D T 500      19.145  -1.135  -0.851  1.00 53.22     0.208 C 
HETATM   32  OAD   D T 500      19.059   0.258  -0.540  1.00 54.28    -0.218 OA
ENDBRANCH  30  31
ENDBRANCH  29  30
ENDBRANCH  28  29
ENDBRANCH  27  28
ENDBRANCH  26  27
ENDBRANCH  18  26
TORSDOF 24
ENDMDL
MODEL 5
REMARK VINA RESULT:    -5.632      1.747      2.278
REMARK INTER + INTRA:         -10.545
REMARK INTER:                  -9.578
REMARK INTRA:                  -0.968
REMARK UNBOUND:                -0.962
REMARK  24 active torsions:
REMARK  status: ('A' for Active; 'I' for Inactive)
REMARK    1  A    between atoms: CAK_2  and  CAM_3 
REMARK    2  A    between atoms: CAM_3  and  NAS_4 
REMARK    3  A    between atoms: NAS_4  and  CAO_5 
REMARK    4  A    between atoms: CAO_5  and  CAQ_6 
REMARK    5  A    between atoms: CAQ_6  and  NAU_7 
REMARK    6  A    between atoms: NAU_7  and  CAY_8 
REMARK    7  A    between atoms: CAZ_25  and  NAV_26 
REMARK    8  A    between atoms: NAV_26  and  CAR_27 
REMARK    9  A    between atoms: CAR_27  and  CAP_28 
REMARK   10  A    between atoms: CAP_28  and  NAT_29 
REMARK   11  A    between atoms: NAT_29  and  CAN_30 
REMARK   12  A    between atoms: CAN_30  and  CAL_31 
REMARK   13  A    between atoms: CAK_34  and  CAM_35 
REMARK   14  A    between atoms: CAM_35  and  NAS_36 
REMARK   15  A    between atoms: NAS_36  and  CAO_37 
REMARK   16  A    between atoms: CAO_37  and  CAQ_38 
REMARK   17  A    between atoms: CAQ_38  and  NAU_39 
REMARK   18  A    between atoms: NAU_39  and  CAY_40 
REMARK   19  A    between atoms: CAZ_57  and  NAV_58 
REMARK   20  A    between atoms: NAV_58  and  CAR_59 
REMARK   21  A    between atoms: CAR_59  and  CAP_60 
REMARK   22  A    between atoms: CAP_60  and  NAT_61 
REMARK   23  A    between atoms: NAT_61  and  CAN_62 
REMARK   24  A    between atoms: CAN_62  and  CAL_63 
ROOT
HETATM    1  CAY   D T 500      10.725  -2.908  -2.571  1.00 41.84     0.079 A 
HETATM    2  CAI   D T 500      10.096  -3.805  -3.479  1.00 42.25     0.020 A 
HETATM    3  CAJ   D T 500       9.474  -5.001  -3.083  1.00 39.39     0.020 A 
HETATM    4  CBE   D T 500      10.735  -3.252  -1.117  1.00 38.78     0.061 A 
HETATM    5  CBA   D T 500      11.364  -2.362  -0.098  1.00 38.89     0.199 A 
HETATM    6  OAA   D T 500      11.917  -1.298  -0.458  1.00 42.15    -0.286 OA
HETATM    7  CBC   D T 500      11.323  -2.752   1.348  1.00 38.64     0.069 A 
HETATM    8  CAW   D T 500      11.939  -1.919   2.427  1.00 41.35     0.134 A 
HETATM    9  OAE   D T 500      12.564  -0.728   2.112  1.00 47.27    -0.190 OA
HETATM   10  CAG   D T 500      11.862  -2.360   3.759  1.00 39.87     0.030 A 
HETATM   11  CAH   D T 500      11.234  -3.565   4.121  1.00 38.23     0.030 A 
HETATM   12  CAX   D T 500      10.657  -4.399   3.169  1.00 35.83     0.134 A 
HETATM   13  OAF   D T 500      10.044  -5.547   3.530  1.00 35.23    -0.190 OA
HETATM   14  CBD   D T 500      10.670  -4.019   1.747  1.00 35.97     0.069 A 
HETATM   15  CBB   D T 500      10.052  -4.901   0.726  1.00 36.65     0.199 A 
HETATM   16  OAB   D T 500       9.511  -5.964   1.071  1.00 36.71    -0.286 OA
HETATM   17  CBF   D T 500      10.074  -4.521  -0.704  1.00 37.01     0.061 A 
HETATM   18  CAZ   D T 500       9.449  -5.387  -1.742  1.00 39.54     0.079 A 
ENDROOT
BRANCH   1  19
HETATM   19  NAU   D T 500      11.313  -1.752  -2.996  1.00 41.74    -0.269 NA
BRANCH  19  20
HETATM   20  CAQ   D T 500      10.556  -0.835  -3.846  1.00 47.43     0.151 C 
BRANCH  20  21
HETATM   21  CAO   D T 500       9.418  -0.106  -3.126  1.00 48.34     0.146 C 
BRANCH  21  22
HETATM   22  NAS   D T 500       8.516   0.552  -4.044  1.00 49.29    -0.291 NA
BRANCH  22  23
HETATM   23  CAM   D T 500       9.040   1.212  -5.215  1.00 49.13     0.155 C 
BRANCH  23  24
HETATM   24  CAK   D T 500       8.188   0.862  -6.423  1.00 54.80     0.208 C 
HETATM   25  OAC   D T 500       7.828  -0.526  -6.377  1.00 60.78    -0.218 OA
ENDBRANCH  23  24
ENDBRANCH  22  23
ENDBRANCH  21  22
ENDBRANCH  20  21
ENDBRANCH  19  20
ENDBRANCH   1  19
BRANCH  18  26
HETATM   26  NAV   D T 500       8.831  -6.529  -1.370  1.00 45.82    -0.269 NA
BRANCH  26  27
HETATM   27  CAR   D T 500       9.328  -7.761  -1.974  1.00 50.37     0.151 C 
BRANCH  27  28
HETATM   28  CAP   D T 500       8.528  -8.997  -1.622  1.00 56.30     0.146 C 
BRANCH  28  29
HETATM   29  NAT   D T 500       7.140  -8.817  -2.023  1.00 57.16    -0.291 NA
BRANCH  29  30
HETATM   30  CAN   D T 500       6.765  -9.185  -3.379  1.00 55.30     0.155 C 
BRANCH  30  31
HETATM   31  CAL   D T 500       5.449  -9.947  -3.402  1.00 53.22     0.208 C 
HETATM   32  OAD   D T 500       4.515  -9.109  -2.717  1.00 54.28    -0.218 OA
ENDBRANCH  30  31
ENDBRANCH  29  30
ENDBRANCH  28  29
ENDBRANCH  27  28
ENDBRANCH  26  27
ENDBRANCH  18  26
TORSDOF 24
ENDMDL
MODEL 6
REMARK VINA RESULT:    -5.597      3.011      5.834
REMARK INTER + INTRA:         -10.486
REMARK INTER:                  -9.567
REMARK INTRA:                  -0.919
REMARK UNBOUND:                -0.962
REMARK  24 active torsions:
REMARK  status: ('A' for Active; 'I' for Inactive)
REMARK    1  A    between atoms: CAK_2  and  CAM_3 
REMARK    2  A    between atoms: CAM_3  and  NAS_4 
REMARK    3  A    between atoms: NAS_4  and  CAO_5 
REMARK    4  A    between atoms: CAO_5  and  CAQ_6 
REMARK    5  A    between atoms: CAQ_6  and  NAU_7 
REMARK    6  A    between atoms: NAU_7  and  CAY_8 
REMARK    7  A    between atoms: CAZ_25  and  NAV_26 
REMARK    8  A    between atoms: NAV_26  and  CAR_27 
REMARK    9  A    between atoms: CAR_27  and  CAP_28 
REMARK   10  A    between atoms: CAP_28  and  NAT_29 
REMARK   11  A    between atoms: NAT_29  and  CAN_30 
REMARK   12  A    between atoms: CAN_30  and  CAL_31 
REMARK   13  A    between atoms: CAK_34  and  CAM_35 
REMARK   14  A    between atoms: CAM_35  and  NAS_36 
REMARK   15  A    between atoms: NAS_36  and  CAO_37 
REMARK   16  A    between atoms: CAO_37  and  CAQ_38 
REMARK   17  A    between atoms: CAQ_38  and  NAU_39 
REMARK   18  A    between atoms: NAU_39  and  CAY_40 
REMARK   19  A    between atoms: CAZ_57  and  NAV_58 
REMARK   20  A    between atoms: NAV_58  and  CAR_59 
REMARK   21  A    between atoms: CAR_59  and  CAP_60 
REMARK   22  A    between atoms: CAP_60  and  NAT_61 
REMARK   23  A    between atoms: NAT_61  and  CAN_62 
REMARK   24  A    between atoms: CAN_62  and  CAL_63 
ROOT
HETATM    1  CAY   D T 500      10.676  -3.390   0.489  1.00 41.84     0.079 A 
HETATM    2  CAI   D T 500      11.074  -4.699   0.880  1.00 42.25     0.020 A 
HETATM    3  CAJ   D T 500      10.969  -5.823   0.045  1.00 39.39     0.020 A 
HETATM    4  CBE   D T 500      10.108  -3.193  -0.879  1.00 38.78     0.061 A 
HETATM    5  CBA   D T 500       9.676  -1.852  -1.371  1.00 38.89     0.199 A 
HETATM    6  OAA   D T 500       9.772  -0.854  -0.621  1.00 42.15    -0.286 OA
HETATM    7  CBC   D T 500       9.134  -1.716  -2.761  1.00 38.64     0.069 A 
HETATM    8  CAW   D T 500       8.671  -0.410  -3.323  1.00 41.35     0.134 A 
HETATM    9  OAE   D T 500       8.749   0.740  -2.561  1.00 47.27    -0.190 OA
HETATM   10  CAG   D T 500       8.168  -0.370  -4.635  1.00 39.87     0.030 A 
HETATM   11  CAH   D T 500       8.074  -1.516  -5.444  1.00 38.23     0.030 A 
HETATM   12  CAX   D T 500       8.468  -2.767  -4.980  1.00 35.83     0.134 A 
HETATM   13  OAF   D T 500       8.386  -3.860  -5.771  1.00 35.23    -0.190 OA
HETATM   14  CBD   D T 500       9.023  -2.914  -3.625  1.00 35.97     0.069 A 
HETATM   15  CBB   D T 500       9.450  -4.244  -3.125  1.00 36.65     0.199 A 
HETATM   16  OAB   D T 500       9.348  -5.242  -3.856  1.00 36.71    -0.286 OA
HETATM   17  CBF   D T 500       9.999  -4.389  -1.758  1.00 37.01     0.061 A 
HETATM   18  CAZ   D T 500      10.445  -5.714  -1.243  1.00 39.54     0.079 A 
ENDROOT
BRANCH   1  19
HETATM   19  NAU   D T 500      10.801  -2.321   1.329  1.00 41.74    -0.269 NA
BRANCH  19  20
HETATM   20  CAQ   D T 500      12.055  -2.122   2.051  1.00 47.43     0.151 C 
BRANCH  20  21
HETATM   21  CAO   D T 500      12.676  -0.734   1.863  1.00 48.34     0.146 C 
BRANCH  21  22
HETATM   22  NAS   D T 500      13.859  -0.766   1.034  1.00 49.29    -0.291 NA
BRANCH  22  23
HETATM   23  CAM   D T 500      14.411   0.465   0.523  1.00 49.13     0.155 C 
BRANCH  23  24
HETATM   24  CAK   D T 500      15.733   0.184  -0.169  1.00 54.80     0.208 C 
HETATM   25  OAC   D T 500      15.499  -0.173  -1.538  1.00 60.78    -0.218 OA
ENDBRANCH  23  24
ENDBRANCH  22  23
ENDBRANCH  21  22
ENDBRANCH  20  21
ENDBRANCH  19  20
ENDBRANCH   1  19
BRANCH  18  26
HETATM   26  NAV   D T 500      10.366  -6.799  -2.045  1.00 45.82    -0.269 NA
BRANCH  26  27
HETATM   27  CAR   D T 500       9.491  -7.876  -1.594  1.00 50.37     0.151 C 
BRANCH  27  28
HETATM   28  CAP   D T 500       8.559  -8.412  -2.659  1.00 56.30     0.146 C 
BRANCH  28  29
HETATM   29  NAT   D T 500       7.446  -9.113  -2.033  1.00 57.16    -0.291 NA
BRANCH  29  30
HETATM   30  CAN   D T 500       6.763 -10.140  -2.803  1.00 55.30     0.155 C 
BRANCH  30  31
HETATM   31  CAL   D T 500       5.416  -9.646  -3.310  1.00 53.22     0.208 C 
HETATM   32  OAD   D T 500       4.859  -8.892  -2.232  1.00 54.28    -0.218 OA
ENDBRANCH  30  31
ENDBRANCH  29  30
ENDBRANCH  28  29
ENDBRANCH  27  28
ENDBRANCH  26  27
ENDBRANCH  18  26
TORSDOF 24
ENDMDL
MODEL 7
REMARK VINA RESULT:    -5.527      1.979      6.626
REMARK INTER + INTRA:         -10.366
REMARK INTER:                  -9.527
REMARK INTRA:                  -0.839
REMARK UNBOUND:                -0.962
REMARK  24 active torsions:
REMARK  status: ('A' for Active; 'I' for Inactive)
REMARK    1  A    between atoms: CAK_2  and  CAM_3 
REMARK    2  A    between atoms: CAM_3  and  NAS_4 
REMARK    3  A    between atoms: NAS_4  and  CAO_5 
REMARK    4  A    between atoms: CAO_5  and  CAQ_6 
REMARK    5  A    between atoms: CAQ_6  and  NAU_7 
REMARK    6  A    between atoms: NAU_7  and  CAY_8 
REMARK    7  A    between atoms: CAZ_25  and  NAV_26 
REMARK    8  A    between atoms: NAV_26  and  CAR_27 
REMARK    9  A    between atoms: CAR_27  and  CAP_28 
REMARK   10  A    between atoms: CAP_28  and  NAT_29 
REMARK   11  A    between atoms: NAT_29  and  CAN_30 
REMARK   12  A    between atoms: CAN_30  and  CAL_31 
REMARK   13  A    between atoms: CAK_34  and  CAM_35 
REMARK   14  A    between atoms: CAM_35  and  NAS_36 
REMARK   15  A    between atoms: NAS_36  and  CAO_37 
REMARK   16  A    between atoms: CAO_37  and  CAQ_38 
REMARK   17  A    between atoms: CAQ_38  and  NAU_39 
REMARK   18  A    between atoms: NAU_39  and  CAY_40 
REMARK   19  A    between atoms: CAZ_57  and  NAV_58 
REMARK   20  A    between atoms: NAV_58  and  CAR_59 
REMARK   21  A    between atoms: CAR_59  and  CAP_60 
REMARK   22  A    between atoms: CAP_60  and  NAT_61 
REMARK   23  A    between atoms: NAT_61  and  CAN_62 
REMARK   24  A    between atoms: CAN_62  and  CAL_63 
ROOT
HETATM    1  CAY   D T 500       8.798  -8.167  -1.426  1.00 41.84     0.079 A 
HETATM    2  CAI   D T 500       8.955  -7.773  -2.785  1.00 42.25     0.020 A 
HETATM    3  CAJ   D T 500       9.433  -6.511  -3.175  1.00 39.39     0.020 A 
HETATM    4  CBE   D T 500       9.151  -7.191  -0.352  1.00 38.78     0.061 A 
HETATM    5  CBA   D T 500       9.025  -7.528   1.096  1.00 38.89     0.199 A 
HETATM    6  OAA   D T 500       8.598  -8.654   1.438  1.00 42.15    -0.286 OA
HETATM    7  CBC   D T 500       9.415  -6.513   2.126  1.00 38.64     0.069 A 
HETATM    8  CAW   D T 500       9.309  -6.771   3.596  1.00 41.35     0.134 A 
HETATM    9  OAE   D T 500       8.852  -7.991   4.054  1.00 47.27    -0.190 OA
HETATM   10  CAG   D T 500       9.690  -5.761   4.497  1.00 39.87     0.030 A 
HETATM   11  CAH   D T 500      10.161  -4.506   4.071  1.00 38.23     0.030 A 
HETATM   12  CAX   D T 500      10.269  -4.190   2.720  1.00 35.83     0.134 A 
HETATM   13  OAF   D T 500      10.736  -2.987   2.323  1.00 35.23    -0.190 OA
HETATM   14  CBD   D T 500       9.910  -5.184   1.696  1.00 35.97     0.069 A 
HETATM   15  CBB   D T 500      10.026  -4.856   0.254  1.00 36.65     0.199 A 
HETATM   16  OAB   D T 500      10.437  -3.738  -0.095  1.00 36.71    -0.286 OA
HETATM   17  CBF   D T 500       9.656  -5.855  -0.774  1.00 37.01     0.061 A 
HETATM   18  CAZ   D T 500       9.777  -5.548  -2.226  1.00 39.54     0.079 A 
ENDROOT
BRANCH   1  19
HETATM   19  NAU   D T 500       8.336  -9.407  -1.088  1.00 41.74    -0.269 NA
BRANCH  19  20
HETATM   20  CAQ   D T 500       7.332 -10.050  -1.931  1.00 47.43     0.151 C 
BRANCH  20  21
HETATM   21  CAO   D T 500       6.028  -9.259  -2.072  1.00 48.34     0.146 C 
BRANCH  21  22
HETATM   22  NAS   D T 500       5.347  -9.534  -3.316  1.00 49.29    -0.291 NA
BRANCH  22  23
HETATM   23  CAM   D T 500       5.962 -10.396  -4.296  1.00 49.13     0.155 C 
BRANCH  23  24
HETATM   24  CAK   D T 500       6.375  -9.580  -5.508  1.00 54.80     0.208 C 
HETATM   25  OAC   D T 500       6.119 -10.326  -6.706  1.00 60.78    -0.218 OA
ENDBRANCH  23  24
ENDBRANCH  22  23
ENDBRANCH  21  22
ENDBRANCH  20  21
ENDBRANCH  19  20
ENDBRANCH   1  19
BRANCH  18  26
HETATM   26  NAV   D T 500      10.254  -4.345  -2.614  1.00 45.82    -0.269 NA
BRANCH  26  27
HETATM   27  CAR   D T 500       9.456  -3.617  -3.595  1.00 50.37     0.151 C 
BRANCH  27  28
HETATM   28  CAP   D T 500       8.455  -2.653  -2.996  1.00 56.30     0.146 C 
BRANCH  28  29
HETATM   29  NAT   D T 500       7.876  -1.828  -4.048  1.00 57.16    -0.291 NA
BRANCH  29  30
HETATM   30  CAN   D T 500       8.731  -0.847  -4.697  1.00 55.30     0.155 C 
BRANCH  30  31
HETATM   31  CAL   D T 500       8.255   0.571  -4.422  1.00 53.22     0.208 C 
HETATM   32  OAD   D T 500       8.666   0.855  -3.083  1.00 54.28    -0.218 OA
ENDBRANCH  30  31
ENDBRANCH  29  30
ENDBRANCH  28  29
ENDBRANCH  27  28
ENDBRANCH  26  27
ENDBRANCH  18  26
TORSDOF 24
ENDMDL
MODEL 8
REMARK VINA RESULT:    -5.500      3.218      9.014
REMARK INTER + INTRA:         -10.321
REMARK INTER:                  -9.464
REMARK INTRA:                  -0.857
REMARK UNBOUND:                -0.962
REMARK  24 active torsions:
REMARK  status: ('A' for Active; 'I' for Inactive)
REMARK    1  A    between atoms: CAK_2  and  CAM_3 
REMARK    2  A    between atoms: CAM_3  and  NAS_4 
REMARK    3  A    between atoms: NAS_4  and  CAO_5 
REMARK    4  A    between atoms: CAO_5  and  CAQ_6 
REMARK    5  A    between atoms: CAQ_6  and  NAU_7 
REMARK    6  A    between atoms: NAU_7  and  CAY_8 
REMARK    7  A    between atoms: CAZ_25  and  NAV_26 
REMARK    8  A    between atoms: NAV_26  and  CAR_27 
REMARK    9  A    between atoms: CAR_27  and  CAP_28 
REMARK   10  A    between atoms: CAP_28  and  NAT_29 
REMARK   11  A    between atoms: NAT_29  and  CAN_30 
REMARK   12  A    between atoms: CAN_30  and  CAL_31 
REMARK   13  A    between atoms: CAK_34  and  CAM_35 
REMARK   14  A    between atoms: CAM_35  and  NAS_36 
REMARK   15  A    between atoms: NAS_36  and  CAO_37 
REMARK   16  A    between atoms: CAO_37  and  CAQ_38 
REMARK   17  A    between atoms: CAQ_38  and  NAU_39 
REMARK   18  A    between atoms: NAU_39  and  CAY_40 
REMARK   19  A    between atoms: CAZ_57  and  NAV_58 
REMARK   20  A    between atoms: NAV_58  and  CAR_59 
REMARK   21  A    between atoms: CAR_59  and  CAP_60 
REMARK   22  A    between atoms: CAP_60  and  NAT_61 
REMARK   23  A    between atoms: NAT_61  and  CAN_62 
REMARK   24  A    between atoms: CAN_62  and  CAL_63 
ROOT
HETATM    1  CAY   D T 500      10.087  -3.653  -1.729  1.00 41.84     0.079 A 
HETATM    2  CAI   D T 500      11.168  -3.679  -0.803  1.00 42.25     0.020 A 
HETATM    3  CAJ   D T 500      12.171  -2.697  -0.755  1.00 39.39     0.020 A 
HETATM    4  CBE   D T 500      10.012  -2.529  -2.711  1.00 38.78     0.061 A 
HETATM    5  CBA   D T 500       8.907  -2.422  -3.707  1.00 38.89     0.199 A 
HETATM    6  OAA   D T 500       8.016  -3.301  -3.745  1.00 42.15    -0.286 OA
HETATM    7  CBC   D T 500       8.875  -1.259  -4.651  1.00 38.64     0.069 A 
HETATM    8  CAW   D T 500       7.807  -1.087  -5.684  1.00 41.35     0.134 A 
HETATM    9  OAE   D T 500       6.786  -2.010  -5.787  1.00 47.27    -0.190 OA
HETATM   10  CAG   D T 500       7.855   0.031  -6.536  1.00 39.87     0.030 A 
HETATM   11  CAH   D T 500       8.876   0.995  -6.463  1.00 38.23     0.030 A 
HETATM   12  CAX   D T 500       9.911   0.888  -5.539  1.00 35.83     0.134 A 
HETATM   13  OAF   D T 500      10.879   1.828  -5.468  1.00 35.23    -0.190 OA
HETATM   14  CBD   D T 500       9.945  -0.237  -4.591  1.00 35.97     0.069 A 
HETATM   15  CBB   D T 500      11.042  -0.354  -3.600  1.00 36.65     0.199 A 
HETATM   16  OAB   D T 500      11.937   0.506  -3.562  1.00 36.71    -0.286 OA
HETATM   17  CBF   D T 500      11.078  -1.492  -2.654  1.00 37.01     0.061 A 
HETATM   18  CAZ   D T 500      12.166  -1.621  -1.644  1.00 39.54     0.079 A 
ENDROOT
BRANCH   1  19
HETATM   19  NAU   D T 500       9.128  -4.625  -1.739  1.00 41.74    -0.269 NA
BRANCH  19  20
HETATM   20  CAQ   D T 500       8.574  -5.095  -0.472  1.00 47.43     0.151 C 
BRANCH  20  21
HETATM   21  CAO   D T 500       8.412  -6.616  -0.382  1.00 48.34     0.146 C 
BRANCH  21  22
HETATM   22  NAS   D T 500       8.862  -7.291  -1.578  1.00 49.29    -0.291 NA
BRANCH  22  23
HETATM   23  CAM   D T 500       8.560  -8.688  -1.770  1.00 49.13     0.155 C 
BRANCH  23  24
HETATM   24  CAK   D T 500       7.079  -8.855  -2.066  1.00 54.80     0.208 C 
HETATM   25  OAC   D T 500       6.819 -10.196  -2.504  1.00 60.78    -0.218 OA
ENDBRANCH  23  24
ENDBRANCH  22  23
ENDBRANCH  21  22
ENDBRANCH  20  21
ENDBRANCH  19  20
ENDBRANCH   1  19
BRANCH  18  26
HETATM   26  NAV   D T 500      13.125  -0.672  -1.575  1.00 45.82    -0.269 NA
BRANCH  26  27
HETATM   27  CAR   D T 500      14.317  -1.009  -0.804  1.00 50.37     0.151 C 
BRANCH  27  28
HETATM   28  CAP   D T 500      14.764   0.067   0.161  1.00 56.30     0.146 C 
BRANCH  28  29
HETATM   29  NAT   D T 500      13.764   0.237   1.207  1.00 57.16    -0.291 NA
BRANCH  29  30
HETATM   30  CAN   D T 500      14.107   1.064   2.353  1.00 55.30     0.155 C 
BRANCH  30  31
HETATM   31  CAL   D T 500      13.464   0.536   3.627  1.00 53.22     0.208 C 
HETATM   32  OAD   D T 500      12.247  -0.084   3.209  1.00 54.28    -0.218 OA
ENDBRANCH  30  31
ENDBRANCH  29  30
ENDBRANCH  28  29
ENDBRANCH  27  28
ENDBRANCH  26  27
ENDBRANCH  18  26
TORSDOF 24
ENDMDL
MODEL 9
REMARK VINA RESULT:    -5.497      2.211      6.692
REMARK INTER + INTRA:         -10.315
REMARK INTER:                  -9.367
REMARK INTRA:                  -0.947
REMARK UNBOUND:                -0.962
REMARK  24 active torsions:
REMARK  status: ('A' for Active; 'I' for Inactive)
REMARK    1  A    between atoms: CAK_2  and  CAM_3 
REMARK    2  A    between atoms: CAM_3  and  NAS_4 
REMARK    3  A    between atoms: NAS_4  and  CAO_5 
REMARK    4  A    between atoms: CAO_5  and  CAQ_6 
REMARK    5  A    between atoms: CAQ_6  and  NAU_7 
REMARK    6  A    between atoms: NAU_7  and  CAY_8 
REMARK    7  A    between atoms: CAZ_25  and  NAV_26 
REMARK    8  A    between atoms: NAV_26  and  CAR_27 
REMARK    9  A    between atoms: CAR_27  and  CAP_28 
REMARK   10  A    between atoms: CAP_28  and  NAT_29 
REMARK   11  A    between atoms: NAT_29  and  CAN_30 
REMARK   12  A    between atoms: CAN_30  and  CAL_31 
REMARK   13  A    between atoms: CAK_34  and  CAM_35 
REMARK   14  A    between atoms: CAM_35  and  NAS_36 
REMARK   15  A    between atoms: NAS_36  and  CAO_37 
REMARK   16  A    between atoms: CAO_37  and  CAQ_38 
REMARK   17  A    between atoms: CAQ_38  and  NAU_39 
REMARK   18  A    between atoms: NAU_39  and  CAY_40 
REMARK   19  A    between atoms: CAZ_57  and  NAV_58 
REMARK   20  A    between atoms: NAV_58  and  CAR_59 
REMARK   21  A    between atoms: CAR_59  and  CAP_60 
REMARK   22  A    between atoms: CAP_60  and  NAT_61 
REMARK   23  A    between atoms: NAT_61  and  CAN_62 
REMARK   24  A    between atoms: CAN_62  and  CAL_63 
ROOT
HETATM    1  CAY   D T 500       9.091  -5.081  -0.665  1.00 41.84     0.079 A 
HETATM    2  CAI   D T 500       9.060  -4.833  -2.066  1.00 42.25     0.020 A 
HETATM    3  CAJ   D T 500       9.768  -3.789  -2.684  1.00 39.39     0.020 A 
HETATM    4  CBE   D T 500       9.912  -4.183   0.203  1.00 38.78     0.061 A 
HETATM    5  CBA   D T 500      10.007  -4.381   1.679  1.00 38.89     0.199 A 
HETATM    6  OAA   D T 500       9.373  -5.313   2.224  1.00 42.15    -0.286 OA
HETATM    7  CBC   D T 500      10.863  -3.460   2.493  1.00 38.64     0.069 A 
HETATM    8  CAW   D T 500      11.002  -3.586   3.977  1.00 41.35     0.134 A 
HETATM    9  OAE   D T 500      10.339  -4.592   4.652  1.00 47.27    -0.190 OA
HETATM   10  CAG   D T 500      11.822  -2.676   4.666  1.00 39.87     0.030 A 
HETATM   11  CAH   D T 500      12.515  -1.639   4.016  1.00 38.23     0.030 A 
HETATM   12  CAX   D T 500      12.418  -1.451   2.641  1.00 35.83     0.134 A 
HETATM   13  OAF   D T 500      13.099  -0.460   2.025  1.00 35.23    -0.190 OA
HETATM   14  CBD   D T 500      11.597  -2.360   1.825  1.00 35.97     0.069 A 
HETATM   15  CBB   D T 500      11.492  -2.168   0.358  1.00 36.65     0.199 A 
HETATM   16  OAB   D T 500      12.107  -1.240  -0.191  1.00 36.71    -0.286 OA
HETATM   17  CBF   D T 500      10.659  -3.079  -0.459  1.00 37.01     0.061 A 
HETATM   18  CAZ   D T 500      10.551  -2.910  -1.935  1.00 39.54     0.079 A 
ENDROOT
BRANCH   1  19
HETATM   19  NAU   D T 500       8.393  -6.111  -0.103  1.00 41.74    -0.269 NA
BRANCH  19  20
HETATM   20  CAQ   D T 500       7.704  -7.064  -0.970  1.00 47.43     0.151 C 
BRANCH  20  21
HETATM   21  CAO   D T 500       7.423  -8.420  -0.316  1.00 48.34     0.146 C 
BRANCH  21  22
HETATM   22  NAS   D T 500       6.773  -9.344  -1.217  1.00 49.29    -0.291 NA
BRANCH  22  23
HETATM   23  CAM   D T 500       5.686  -8.889  -2.050  1.00 49.13     0.155 C 
BRANCH  23  24
HETATM   24  CAK   D T 500       5.768  -9.562  -3.409  1.00 54.80     0.208 C 
HETATM   25  OAC   D T 500       7.078  -9.378  -3.964  1.00 60.78    -0.218 OA
ENDBRANCH  23  24
ENDBRANCH  22  23
ENDBRANCH  21  22
ENDBRANCH  20  21
ENDBRANCH  19  20
ENDBRANCH   1  19
BRANCH  18  26
HETATM   26  NAV   D T 500      11.243  -1.922  -2.543  1.00 45.82    -0.269 NA
BRANCH  26  27
HETATM   27  CAR   D T 500      11.064  -1.798  -3.986  1.00 50.37     0.151 C 
BRANCH  27  28
HETATM   28  CAP   D T 500      10.454  -0.486  -4.431  1.00 56.30     0.146 C 
BRANCH  28  29
HETATM   29  NAT   D T 500       9.006  -0.540  -4.282  1.00 57.16    -0.291 NA
BRANCH  29  30
HETATM   30  CAN   D T 500       8.214  -0.944  -5.434  1.00 55.30     0.155 C 
BRANCH  30  31
HETATM   31  CAL   D T 500       7.455  -2.233  -5.158  1.00 53.22     0.208 C 
HETATM   32  OAD   D T 500       7.258  -2.837  -6.438  1.00 54.28    -0.218 OA
ENDBRANCH  30  31
ENDBRANCH  29  30
ENDBRANCH  28  29
ENDBRANCH  27  28
ENDBRANCH  26  27
ENDBRANCH  18  26
TORSDOF 24
ENDMDL
