MODEL 1
REMARK VINA RESULT:    -6.901      0.000      0.000
REMARK INTER + INTRA:         -12.911
REMARK INTER:                 -11.742
REMARK INTRA:                  -1.168
REMARK UNBOUND:                -1.168
REMARK  24 active torsions:
REMARK  status: ('A' for Active; 'I' for Inactive)
REMARK    1  A    between atoms: CAK_2  and  CAM_3 
REMARK    2  A    between atoms: CAM_3  and  NAS_4 
REMARK    3  A    between atoms: NAS_4  and  CAO_5 
REMARK    4  A    between atoms: CAO_5  and  CAQ_6 
REMARK    5  A    between atoms: CAQ_6  and  NAU_7 
REMARK    6  A    between atoms: NAU_7  and  CAY_8 
REMARK    7  A    between atoms: CAZ_25  and  NAV_26 
REMARK    8  A    between atoms: NAV_26  and  CAR_27 
REMARK    9  A    between atoms: CAR_27  and  CAP_28 
REMARK   10  A    between atoms: CAP_28  and  NAT_29 
REMARK   11  A    between atoms: NAT_29  and  CAN_30 
REMARK   12  A    between atoms: CAN_30  and  CAL_31 
REMARK   13  A    between atoms: CAK_34  and  CAM_35 
REMARK   14  A    between atoms: CAM_35  and  NAS_36 
REMARK   15  A    between atoms: NAS_36  and  CAO_37 
REMARK   16  A    between atoms: CAO_37  and  CAQ_38 
REMARK   17  A    between atoms: CAQ_38  and  NAU_39 
REMARK   18  A    between atoms: NAU_39  and  CAY_40 
REMARK   19  A    between atoms: CAZ_57  and  NAV_58 
REMARK   20  A    between atoms: NAV_58  and  CAR_59 
REMARK   21  A    between atoms: CAR_59  and  CAP_60 
REMARK   22  A    between atoms: CAP_60  and  NAT_61 
REMARK   23  A    between atoms: NAT_61  and  CAN_62 
REMARK   24  A    between atoms: CAN_62  and  CAL_63 
ROOT
HETATM    1  CAY   D T 500     -12.832   4.946  -3.819  1.00 41.84     0.079 A 
HETATM    2  CAI   D T 500     -14.006   5.270  -3.083  1.00 42.25     0.020 A 
HETATM    3  CAJ   D T 500     -15.232   4.606  -3.247  1.00 39.39     0.020 A 
HETATM    4  CBE   D T 500     -12.901   3.845  -4.828  1.00 38.78     0.061 A 
HETATM    5  CBA   D T 500     -11.715   3.436  -5.634  1.00 38.89     0.199 A 
HETATM    6  OAA   D T 500     -10.624   4.034  -5.484  1.00 42.15    -0.286 OA
HETATM    7  CBC   D T 500     -11.842   2.311  -6.616  1.00 38.64     0.069 A 
HETATM    8  CAW   D T 500     -10.702   1.850  -7.468  1.00 41.35     0.134 A 
HETATM    9  OAE   D T 500      -9.464   2.452  -7.357  1.00 47.27    -0.190 OA
HETATM   10  CAG   D T 500     -10.908   0.790  -8.368  1.00 39.87     0.030 A 
HETATM   11  CAH   D T 500     -12.151   0.149  -8.510  1.00 38.23     0.030 A 
HETATM   12  CAX   D T 500     -13.259   0.538  -7.764  1.00 35.83     0.134 A 
HETATM   13  OAF   D T 500     -14.446  -0.095  -7.898  1.00 35.23    -0.190 OA
HETATM   14  CBD   D T 500     -13.145   1.628  -6.781  1.00 35.97     0.069 A 
HETATM   15  CBB   D T 500     -14.321   2.045  -5.979  1.00 36.65     0.199 A 
HETATM   16  OAB   D T 500     -15.409   1.468  -6.130  1.00 36.71    -0.286 OA
HETATM   17  CBF   D T 500     -14.204   3.147  -4.997  1.00 37.01     0.061 A 
HETATM   18  CAZ   D T 500     -15.371   3.572  -4.173  1.00 39.54     0.079 A 
ENDROOT
BRANCH   1  19
HETATM   19  NAU   D T 500     -11.657   5.612  -3.625  1.00 41.74    -0.269 NA
BRANCH  19  20
HETATM   20  CAQ   D T 500     -11.262   5.986  -2.269  1.00 47.43     0.151 C 
BRANCH  20  21
HETATM   21  CAO   D T 500     -10.892   7.464  -2.107  1.00 48.34     0.146 C 
BRANCH  21  22
HETATM   22  NAS   D T 500     -12.024   8.340  -2.295  1.00 49.29    -0.291 NA
BRANCH  22  23
HETATM   23  CAM   D T 500     -12.324   9.348  -1.307  1.00 49.13     0.155 C 
BRANCH  23  24
HETATM   24  CAK   D T 500     -12.585  10.677  -1.995  1.00 54.80     0.208 C 
HETATM   25  OAC   D T 500     -12.685  10.479  -3.412  1.00 60.78    -0.218 OA
ENDBRANCH  23  24
ENDBRANCH  22  23
ENDBRANCH  21  22
ENDBRANCH  20  21
ENDBRANCH  19  20
ENDBRANCH   1  19
BRANCH  18  26
HETATM   26  NAV   D T 500     -16.550   2.927  -4.309  1.00 45.82    -0.269 NA
BRANCH  26  27
HETATM   27  CAR   D T 500     -17.735   3.767  -4.453  1.00 50.37     0.151 C 
BRANCH  27  28
HETATM   28  CAP   D T 500     -18.891   3.377  -3.557  1.00 56.30     0.146 C 
BRANCH  28  29
HETATM   29  NAT   D T 500     -18.386   2.727  -2.356  1.00 57.16    -0.291 NA
BRANCH  29  30
HETATM   30  CAN   D T 500     -18.189   3.541  -1.167  1.00 55.30     0.155 C 
BRANCH  30  31
HETATM   31  CAL   D T 500     -17.366   2.803  -0.123  1.00 53.22     0.208 C 
HETATM   32  OAD   D T 500     -16.172   2.401  -0.798  1.00 54.28    -0.218 OA
ENDBRANCH  30  31
ENDBRANCH  29  30
ENDBRANCH  28  29
ENDBRANCH  27  28
ENDBRANCH  26  27
ENDBRANCH  18  26
TORSDOF 24
ENDMDL
MODEL 2
REMARK VINA RESULT:    -6.852      0.445      6.014
REMARK INTER + INTRA:         -12.827
REMARK INTER:                 -11.791
REMARK INTRA:                  -1.036
REMARK UNBOUND:                -1.168
REMARK  24 active torsions:
REMARK  status: ('A' for Active; 'I' for Inactive)
REMARK    1  A    between atoms: CAK_2  and  CAM_3 
REMARK    2  A    between atoms: CAM_3  and  NAS_4 
REMARK    3  A    between atoms: NAS_4  and  CAO_5 
REMARK    4  A    between atoms: CAO_5  and  CAQ_6 
REMARK    5  A    between atoms: CAQ_6  and  NAU_7 
REMARK    6  A    between atoms: NAU_7  and  CAY_8 
REMARK    7  A    between atoms: CAZ_25  and  NAV_26 
REMARK    8  A    between atoms: NAV_26  and  CAR_27 
REMARK    9  A    between atoms: CAR_27  and  CAP_28 
REMARK   10  A    between atoms: CAP_28  and  NAT_29 
REMARK   11  A    between atoms: NAT_29  and  CAN_30 
REMARK   12  A    between atoms: CAN_30  and  CAL_31 
REMARK   13  A    between atoms: CAK_34  and  CAM_35 
REMARK   14  A    between atoms: CAM_35  and  NAS_36 
REMARK   15  A    between atoms: NAS_36  and  CAO_37 
REMARK   16  A    between atoms: CAO_37  and  CAQ_38 
REMARK   17  A    between atoms: CAQ_38  and  NAU_39 
REMARK   18  A    between atoms: NAU_39  and  CAY_40 
REMARK   19  A    between atoms: CAZ_57  and  NAV_58 
REMARK   20  A    between atoms: NAV_58  and  CAR_59 
REMARK   21  A    between atoms: CAR_59  and  CAP_60 
REMARK   22  A    between atoms: CAP_60  and  NAT_61 
REMARK   23  A    between atoms: NAT_61  and  CAN_62 
REMARK   24  A    between atoms: CAN_62  and  CAL_63 
ROOT
HETATM    1  CAY   D T 500     -15.346   3.541  -4.248  1.00 41.84     0.079 A 
HETATM    2  CAI   D T 500     -15.226   4.598  -3.304  1.00 42.25     0.020 A 
HETATM    3  CAJ   D T 500     -14.026   5.283  -3.055  1.00 39.39     0.020 A 
HETATM    4  CBE   D T 500     -14.132   3.126  -5.015  1.00 38.78     0.061 A 
HETATM    5  CBA   D T 500     -14.173   2.034  -6.030  1.00 38.89     0.199 A 
HETATM    6  OAA   D T 500     -15.247   1.426  -6.247  1.00 42.15    -0.286 OA
HETATM    7  CBC   D T 500     -12.926   1.677  -6.782  1.00 38.64     0.069 A 
HETATM    8  CAW   D T 500     -12.885   0.588  -7.807  1.00 41.35     0.134 A 
HETATM    9  OAE   D T 500     -14.028  -0.125  -8.109  1.00 47.27    -0.190 OA
HETATM   10  CAG   D T 500     -11.672   0.314  -8.462  1.00 39.87     0.030 A 
HETATM   11  CAH   D T 500     -10.487   1.017  -8.186  1.00 38.23     0.030 A 
HETATM   12  CAX   D T 500     -10.448   2.029  -7.232  1.00 35.83     0.134 A 
HETATM   13  OAF   D T 500      -9.306   2.709  -6.984  1.00 35.23    -0.190 OA
HETATM   14  CBD   D T 500     -11.669   2.405  -6.500  1.00 35.97     0.069 A 
HETATM   15  CBB   D T 500     -11.635   3.486  -5.485  1.00 36.65     0.199 A 
HETATM   16  OAB   D T 500     -10.574   4.085  -5.253  1.00 36.71    -0.286 OA
HETATM   17  CBF   D T 500     -12.863   3.855  -4.745  1.00 37.01     0.061 A 
HETATM   18  CAZ   D T 500     -12.853   4.947  -3.730  1.00 39.54     0.079 A 
ENDROOT
BRANCH   1  19
HETATM   19  NAU   D T 500     -16.533   2.904  -4.466  1.00 41.74    -0.269 NA
BRANCH  19  20
HETATM   20  CAQ   D T 500     -17.744   3.696  -4.663  1.00 47.43     0.151 C 
BRANCH  20  21
HETATM   21  CAO   D T 500     -18.727   3.647  -3.488  1.00 48.34     0.146 C 
BRANCH  21  22
HETATM   22  NAS   D T 500     -18.484   2.525  -2.613  1.00 49.29    -0.291 NA
BRANCH  22  23
HETATM   23  CAM   D T 500     -18.710   2.659  -1.193  1.00 49.13     0.155 C 
BRANCH  23  24
HETATM   24  CAK   D T 500     -17.395   2.498  -0.449  1.00 54.80     0.208 C 
HETATM   25  OAC   D T 500     -16.815   3.785  -0.204  1.00 60.78    -0.218 OA
ENDBRANCH  23  24
ENDBRANCH  22  23
ENDBRANCH  21  22
ENDBRANCH  20  21
ENDBRANCH  19  20
ENDBRANCH   1  19
BRANCH  18  26
HETATM   26  NAV   D T 500     -11.708   5.625  -3.496  1.00 45.82    -0.269 NA
BRANCH  26  27
HETATM   27  CAR   D T 500     -11.523   6.136  -2.142  1.00 50.37     0.151 C 
BRANCH  27  28
HETATM   28  CAP   D T 500     -11.134   7.596  -2.071  1.00 56.30     0.146 C 
BRANCH  28  29
HETATM   29  NAT   D T 500     -12.330   8.426  -2.077  1.00 57.16    -0.291 NA
BRANCH  29  30
HETATM   30  CAN   D T 500     -12.308   9.666  -1.316  1.00 55.30     0.155 C 
BRANCH  30  31
HETATM   31  CAL   D T 500     -12.664  10.857  -2.191  1.00 53.22     0.208 C 
HETATM   32  OAD   D T 500     -12.636  10.364  -3.532  1.00 54.28    -0.218 OA
ENDBRANCH  30  31
ENDBRANCH  29  30
ENDBRANCH  28  29
ENDBRANCH  27  28
ENDBRANCH  26  27
ENDBRANCH  18  26
TORSDOF 24
ENDMDL
MODEL 3
REMARK VINA RESULT:    -6.727      1.575      5.462
REMARK INTER + INTRA:         -12.614
REMARK INTER:                 -11.581
REMARK INTRA:                  -1.033
REMARK UNBOUND:                -1.168
REMARK  24 active torsions:
REMARK  status: ('A' for Active; 'I' for Inactive)
REMARK    1  A    between atoms: CAK_2  and  CAM_3 
REMARK    2  A    between atoms: CAM_3  and  NAS_4 
REMARK    3  A    between atoms: NAS_4  and  CAO_5 
REMARK    4  A    between atoms: CAO_5  and  CAQ_6 
REMARK    5  A    between atoms: CAQ_6  and  NAU_7 
REMARK    6  A    between atoms: NAU_7  and  CAY_8 
REMARK    7  A    between atoms: CAZ_25  and  NAV_26 
REMARK    8  A    between atoms: NAV_26  and  CAR_27 
REMARK    9  A    between atoms: CAR_27  and  CAP_28 
REMARK   10  A    between atoms: CAP_28  and  NAT_29 
REMARK   11  A    between atoms: NAT_29  and  CAN_30 
REMARK   12  A    between atoms: CAN_30  and  CAL_31 
REMARK   13  A    between atoms: CAK_34  and  CAM_35 
REMARK   14  A    between atoms: CAM_35  and  NAS_36 
REMARK   15  A    between atoms: NAS_36  and  CAO_37 
REMARK   16  A    between atoms: CAO_37  and  CAQ_38 
REMARK   17  A    between atoms: CAQ_38  and  NAU_39 
REMARK   18  A    between atoms: NAU_39  and  CAY_40 
REMARK   19  A    between atoms: CAZ_57  and  NAV_58 
REMARK   20  A    between atoms: NAV_58  and  CAR_59 
REMARK   21  A    between atoms: CAR_59  and  CAP_60 
REMARK   22  A    between atoms: CAP_60  and  NAT_61 
REMARK   23  A    between atoms: NAT_61  and  CAN_62 
REMARK   24  A    between atoms: CAN_62  and  CAL_63 
ROOT
HETATM    1  CAY   D T 500     -15.238   3.730  -4.592  1.00 41.84     0.079 A 
HETATM    2  CAI   D T 500     -15.299   4.785  -3.639  1.00 42.25     0.020 A 
HETATM    3  CAJ   D T 500     -14.179   5.523  -3.225  1.00 39.39     0.020 A 
HETATM    4  CBE   D T 500     -13.911   3.378  -5.184  1.00 38.78     0.061 A 
HETATM    5  CBA   D T 500     -13.760   2.293  -6.196  1.00 38.89     0.199 A 
HETATM    6  OAA   D T 500     -14.764   1.637  -6.560  1.00 42.15    -0.286 OA
HETATM    7  CBC   D T 500     -12.406   1.999  -6.768  1.00 38.64     0.069 A 
HETATM    8  CAW   D T 500     -12.172   0.922  -7.778  1.00 41.35     0.134 A 
HETATM    9  OAE   D T 500     -13.228   0.159  -8.237  1.00 47.27    -0.190 OA
HETATM   10  CAG   D T 500     -10.869   0.709  -8.260  1.00 39.87     0.030 A 
HETATM   11  CAH   D T 500      -9.767   1.464  -7.820  1.00 38.23     0.030 A 
HETATM   12  CAX   D T 500      -9.909   2.469  -6.870  1.00 35.83     0.134 A 
HETATM   13  OAF   D T 500      -8.845   3.199  -6.465  1.00 35.23    -0.190 OA
HETATM   14  CBD   D T 500     -11.235   2.783  -6.313  1.00 35.97     0.069 A 
HETATM   15  CBB   D T 500     -11.393   3.857  -5.302  1.00 36.65     0.199 A 
HETATM   16  OAB   D T 500     -10.404   4.503  -4.925  1.00 36.71    -0.286 OA
HETATM   17  CBF   D T 500     -12.728   4.163  -4.739  1.00 37.01     0.061 A 
HETATM   18  CAZ   D T 500     -12.909   5.247  -3.732  1.00 39.54     0.079 A 
ENDROOT
BRANCH   1  19
HETATM   19  NAU   D T 500     -16.352   3.041  -4.973  1.00 41.74    -0.269 NA
BRANCH  19  20
HETATM   20  CAQ   D T 500     -17.670   3.548  -4.599  1.00 47.43     0.151 C 
BRANCH  20  21
HETATM   21  CAO   D T 500     -18.425   2.664  -3.601  1.00 48.34     0.146 C 
BRANCH  21  22
HETATM   22  NAS   D T 500     -18.090   2.969  -2.230  1.00 49.29    -0.291 NA
BRANCH  22  23
HETATM   23  CAM   D T 500     -18.421   4.262  -1.680  1.00 49.13     0.155 C 
BRANCH  23  24
HETATM   24  CAK   D T 500     -17.478   4.588  -0.536  1.00 54.80     0.208 C 
HETATM   25  OAC   D T 500     -17.460   3.503   0.403  1.00 60.78    -0.218 OA
ENDBRANCH  23  24
ENDBRANCH  22  23
ENDBRANCH  21  22
ENDBRANCH  20  21
ENDBRANCH  19  20
ENDBRANCH   1  19
BRANCH  18  26
HETATM   26  NAV   D T 500     -11.841   5.975  -3.341  1.00 45.82    -0.269 NA
BRANCH  26  27
HETATM   27  CAR   D T 500     -11.878   6.501  -1.980  1.00 50.37     0.151 C 
BRANCH  27  28
HETATM   28  CAP   D T 500     -11.996   8.007  -1.894  1.00 56.30     0.146 C 
BRANCH  28  29
HETATM   29  NAT   D T 500     -13.091   8.367  -1.004  1.00 57.16    -0.291 NA
BRANCH  29  30
HETATM   30  CAN   D T 500     -13.757   7.302  -0.271  1.00 55.30     0.155 C 
BRANCH  30  31
HETATM   31  CAL   D T 500     -14.601   7.858   0.865  1.00 53.22     0.208 C 
HETATM   32  OAD   D T 500     -14.641   6.822   1.848  1.00 54.28    -0.218 OA
ENDBRANCH  30  31
ENDBRANCH  29  30
ENDBRANCH  28  29
ENDBRANCH  27  28
ENDBRANCH  26  27
ENDBRANCH  18  26
TORSDOF 24
ENDMDL
MODEL 4
REMARK VINA RESULT:    -6.460      2.378      3.844
REMARK INTER + INTRA:         -12.159
REMARK INTER:                 -10.809
REMARK INTRA:                  -1.351
REMARK UNBOUND:                -1.168
REMARK  24 active torsions:
REMARK  status: ('A' for Active; 'I' for Inactive)
REMARK    1  A    between atoms: CAK_2  and  CAM_3 
REMARK    2  A    between atoms: CAM_3  and  NAS_4 
REMARK    3  A    between atoms: NAS_4  and  CAO_5 
REMARK    4  A    between atoms: CAO_5  and  CAQ_6 
REMARK    5  A    between atoms: CAQ_6  and  NAU_7 
REMARK    6  A    between atoms: NAU_7  and  CAY_8 
REMARK    7  A    between atoms: CAZ_25  and  NAV_26 
REMARK    8  A    between atoms: NAV_26  and  CAR_27 
REMARK    9  A    between atoms: CAR_27  and  CAP_28 
REMARK   10  A    between atoms: CAP_28  and  NAT_29 
REMARK   11  A    between atoms: NAT_29  and  CAN_30 
REMARK   12  A    between atoms: CAN_30  and  CAL_31 
REMARK   13  A    between atoms: CAK_34  and  CAM_35 
REMARK   14  A    between atoms: CAM_35  and  NAS_36 
REMARK   15  A    between atoms: NAS_36  and  CAO_37 
REMARK   16  A    between atoms: CAO_37  and  CAQ_38 
REMARK   17  A    between atoms: CAQ_38  and  NAU_39 
REMARK   18  A    between atoms: NAU_39  and  CAY_40 
REMARK   19  A    between atoms: CAZ_57  and  NAV_58 
REMARK   20  A    between atoms: NAV_58  and  CAR_59 
REMARK   21  A    between atoms: CAR_59  and  CAP_60 
REMARK   22  A    between atoms: CAP_60  and  NAT_61 
REMARK   23  A    between atoms: NAT_61  and  CAN_62 
REMARK   24  A    between atoms: CAN_62  and  CAL_63 
ROOT
HETATM    1  CAY   D T 500     -14.784   3.987  -4.512  1.00 41.84     0.079 A 
HETATM    2  CAI   D T 500     -16.158   3.641  -4.384  1.00 42.25     0.020 A 
HETATM    3  CAJ   D T 500     -16.749   2.553  -5.048  1.00 39.39     0.020 A 
HETATM    4  CBE   D T 500     -13.918   3.159  -5.405  1.00 38.78     0.061 A 
HETATM    5  CBA   D T 500     -12.466   3.448  -5.588  1.00 38.89     0.199 A 
HETATM    6  OAA   D T 500     -11.945   4.420  -4.994  1.00 42.15    -0.286 OA
HETATM    7  CBC   D T 500     -11.645   2.568  -6.482  1.00 38.64     0.069 A 
HETATM    8  CAW   D T 500     -10.187   2.799  -6.724  1.00 41.35     0.134 A 
HETATM    9  OAE   D T 500      -9.537   3.846  -6.101  1.00 47.27    -0.190 OA
HETATM   10  CAG   D T 500      -9.492   1.929  -7.582  1.00 39.87     0.030 A 
HETATM   11  CAH   D T 500     -10.116   0.852  -8.235  1.00 38.23     0.030 A 
HETATM   12  CAX   D T 500     -11.471   0.589  -8.070  1.00 35.83     0.134 A 
HETATM   13  OAF   D T 500     -12.059  -0.458  -8.691  1.00 35.23    -0.190 OA
HETATM   14  CBD   D T 500     -12.287   1.432  -7.180  1.00 35.97     0.069 A 
HETATM   15  CBB   D T 500     -13.733   1.155  -6.997  1.00 36.65     0.199 A 
HETATM   16  OAB   D T 500     -14.261   0.202  -7.591  1.00 36.71    -0.286 OA
HETATM   17  CBF   D T 500     -14.552   2.009  -6.107  1.00 37.01     0.061 A 
HETATM   18  CAZ   D T 500     -16.003   1.740  -5.900  1.00 39.54     0.079 A 
ENDROOT
BRANCH   1  19
HETATM   19  NAU   D T 500     -14.247   5.048  -3.844  1.00 41.74    -0.269 NA
BRANCH  19  20
HETATM   20  CAQ   D T 500     -14.454   5.166  -2.404  1.00 47.43     0.151 C 
BRANCH  20  21
HETATM   21  CAO   D T 500     -13.326   4.568  -1.555  1.00 48.34     0.146 C 
BRANCH  21  22
HETATM   22  NAS   D T 500     -12.417   5.573  -1.058  1.00 49.29    -0.291 NA
BRANCH  22  23
HETATM   23  CAM   D T 500     -11.400   6.115  -1.928  1.00 49.13     0.155 C 
BRANCH  23  24
HETATM   24  CAK   D T 500     -11.599   7.613  -2.075  1.00 54.80     0.208 C 
HETATM   25  OAC   D T 500     -12.180   7.904  -3.353  1.00 60.78    -0.218 OA
ENDBRANCH  23  24
ENDBRANCH  22  23
ENDBRANCH  21  22
ENDBRANCH  20  21
ENDBRANCH  19  20
ENDBRANCH   1  19
BRANCH  18  26
HETATM   26  NAV   D T 500     -16.577   0.685  -6.519  1.00 45.82    -0.269 NA
BRANCH  26  27
HETATM   27  CAR   D T 500     -17.739   0.100  -5.859  1.00 50.37     0.151 C 
BRANCH  27  28
HETATM   28  CAP   D T 500     -17.762  -1.413  -5.857  1.00 56.30     0.146 C 
BRANCH  28  29
HETATM   29  NAT   D T 500     -16.457  -1.926  -5.466  1.00 57.16    -0.291 NA
BRANCH  29  30
HETATM   30  CAN   D T 500     -16.116  -3.289  -5.839  1.00 55.30     0.155 C 
BRANCH  30  31
HETATM   31  CAL   D T 500     -14.981  -3.317  -6.851  1.00 53.22     0.208 C 
HETATM   32  OAD   D T 500     -15.557  -2.863  -8.078  1.00 54.28    -0.218 OA
ENDBRANCH  30  31
ENDBRANCH  29  30
ENDBRANCH  28  29
ENDBRANCH  27  28
ENDBRANCH  26  27
ENDBRANCH  18  26
TORSDOF 24
ENDMDL
MODEL 5
REMARK VINA RESULT:    -6.424      2.521      6.276
REMARK INTER + INTRA:         -12.099
REMARK INTER:                 -10.741
REMARK INTRA:                  -1.357
REMARK UNBOUND:                -1.168
REMARK  24 active torsions:
REMARK  status: ('A' for Active; 'I' for Inactive)
REMARK    1  A    between atoms: CAK_2  and  CAM_3 
REMARK    2  A    between atoms: CAM_3  and  NAS_4 
REMARK    3  A    between atoms: NAS_4  and  CAO_5 
REMARK    4  A    between atoms: CAO_5  and  CAQ_6 
REMARK    5  A    between atoms: CAQ_6  and  NAU_7 
REMARK    6  A    between atoms: NAU_7  and  CAY_8 
REMARK    7  A    between atoms: CAZ_25  and  NAV_26 
REMARK    8  A    between atoms: NAV_26  and  CAR_27 
REMARK    9  A    between atoms: CAR_27  and  CAP_28 
REMARK   10  A    between atoms: CAP_28  and  NAT_29 
REMARK   11  A    between atoms: NAT_29  and  CAN_30 
REMARK   12  A    between atoms: CAN_30  and  CAL_31 
REMARK   13  A    between atoms: CAK_34  and  CAM_35 
REMARK   14  A    between atoms: CAM_35  and  NAS_36 
REMARK   15  A    between atoms: NAS_36  and  CAO_37 
REMARK   16  A    between atoms: CAO_37  and  CAQ_38 
REMARK   17  A    between atoms: CAQ_38  and  NAU_39 
REMARK   18  A    between atoms: NAU_39  and  CAY_40 
REMARK   19  A    between atoms: CAZ_57  and  NAV_58 
REMARK   20  A    between atoms: NAV_58  and  CAR_59 
REMARK   21  A    between atoms: CAR_59  and  CAP_60 
REMARK   22  A    between atoms: CAP_60  and  NAT_61 
REMARK   23  A    between atoms: NAT_61  and  CAN_62 
REMARK   24  A    between atoms: CAN_62  and  CAL_63 
ROOT
HETATM    1  CAY   D T 500     -16.042   2.562  -5.304  1.00 41.84     0.079 A 
HETATM    2  CAI   D T 500     -16.832   3.312  -4.389  1.00 42.25     0.020 A 
HETATM    3  CAJ   D T 500     -16.313   4.325  -3.566  1.00 39.39     0.020 A 
HETATM    4  CBE   D T 500     -14.579   2.855  -5.395  1.00 38.78     0.061 A 
HETATM    5  CBA   D T 500     -13.682   2.122  -6.334  1.00 38.89     0.199 A 
HETATM    6  OAA   D T 500     -14.151   1.219  -7.065  1.00 42.15    -0.286 OA
HETATM    7  CBC   D T 500     -12.227   2.477  -6.394  1.00 38.64     0.069 A 
HETATM    8  CAW   D T 500     -11.263   1.781  -7.301  1.00 41.35     0.134 A 
HETATM    9  OAE   D T 500     -11.702   0.779  -8.144  1.00 47.27    -0.190 OA
HETATM   10  CAG   D T 500      -9.913   2.172  -7.291  1.00 39.87     0.030 A 
HETATM   11  CAH   D T 500      -9.426   3.188  -6.450  1.00 38.23     0.030 A 
HETATM   12  CAX   D T 500     -10.262   3.864  -5.568  1.00 35.83     0.134 A 
HETATM   13  OAF   D T 500      -9.786   4.850  -4.775  1.00 35.23    -0.190 OA
HETATM   14  CBD   D T 500     -11.697   3.542  -5.513  1.00 35.97     0.069 A 
HETATM   15  CBB   D T 500     -12.595   4.262  -4.578  1.00 36.65     0.199 A 
HETATM   16  OAB   D T 500     -12.139   5.149  -3.840  1.00 36.71    -0.286 OA
HETATM   17  CBF   D T 500     -14.037   3.929  -4.518  1.00 37.01     0.061 A 
HETATM   18  CAZ   D T 500     -14.957   4.650  -3.595  1.00 39.54     0.079 A 
ENDROOT
BRANCH   1  19
HETATM   19  NAU   D T 500     -16.586   1.590  -6.092  1.00 41.74    -0.269 NA
BRANCH  19  20
HETATM   20  CAQ   D T 500     -18.039   1.483  -6.197  1.00 47.43     0.151 C 
BRANCH  20  21
HETATM   21  CAO   D T 500     -18.544   0.076  -6.537  1.00 48.34     0.146 C 
BRANCH  21  22
HETATM   22  NAS   D T 500     -17.932  -0.942  -5.716  1.00 49.29    -0.291 NA
BRANCH  22  23
HETATM   23  CAM   D T 500     -17.342  -2.105  -6.335  1.00 49.13     0.155 C 
BRANCH  23  24
HETATM   24  CAK   D T 500     -16.150  -2.571  -5.516  1.00 54.80     0.208 C 
HETATM   25  OAC   D T 500     -15.111  -1.584  -5.566  1.00 60.78    -0.218 OA
ENDBRANCH  23  24
ENDBRANCH  22  23
ENDBRANCH  21  22
ENDBRANCH  20  21
ENDBRANCH  19  20
ENDBRANCH   1  19
BRANCH  18  26
HETATM   26  NAV   D T 500     -14.473   5.639  -2.812  1.00 45.82    -0.269 NA
BRANCH  26  27
HETATM   27  CAR   D T 500     -14.789   5.553  -1.390  1.00 50.37     0.151 C 
BRANCH  27  28
HETATM   28  CAP   D T 500     -14.086   4.430  -0.659  1.00 56.30     0.146 C 
BRANCH  28  29
HETATM   29  NAT   D T 500     -15.054   3.654   0.102  1.00 57.16    -0.291 NA
BRANCH  29  30
HETATM   30  CAN   D T 500     -15.818   2.634  -0.598  1.00 55.30     0.155 C 
BRANCH  30  31
HETATM   31  CAL   D T 500     -17.307   2.780  -0.332  1.00 53.22     0.208 C 
HETATM   32  OAD   D T 500     -17.412   3.743   0.718  1.00 54.28    -0.218 OA
ENDBRANCH  30  31
ENDBRANCH  29  30
ENDBRANCH  28  29
ENDBRANCH  27  28
ENDBRANCH  26  27
ENDBRANCH  18  26
TORSDOF 24
ENDMDL
MODEL 6
REMARK VINA RESULT:    -6.423      2.008      2.551
REMARK INTER + INTRA:         -12.097
REMARK INTER:                 -11.392
REMARK INTRA:                  -0.705
REMARK UNBOUND:                -1.168
REMARK  24 active torsions:
REMARK  status: ('A' for Active; 'I' for Inactive)
REMARK    1  A    between atoms: CAK_2  and  CAM_3 
REMARK    2  A    between atoms: CAM_3  and  NAS_4 
REMARK    3  A    between atoms: NAS_4  and  CAO_5 
REMARK    4  A    between atoms: CAO_5  and  CAQ_6 
REMARK    5  A    between atoms: CAQ_6  and  NAU_7 
REMARK    6  A    between atoms: NAU_7  and  CAY_8 
REMARK    7  A    between atoms: CAZ_25  and  NAV_26 
REMARK    8  A    between atoms: NAV_26  and  CAR_27 
REMARK    9  A    between atoms: CAR_27  and  CAP_28 
REMARK   10  A    between atoms: CAP_28  and  NAT_29 
REMARK   11  A    between atoms: NAT_29  and  CAN_30 
REMARK   12  A    between atoms: CAN_30  and  CAL_31 
REMARK   13  A    between atoms: CAK_34  and  CAM_35 
REMARK   14  A    between atoms: CAM_35  and  NAS_36 
REMARK   15  A    between atoms: NAS_36  and  CAO_37 
REMARK   16  A    between atoms: CAO_37  and  CAQ_38 
REMARK   17  A    between atoms: CAQ_38  and  NAU_39 
REMARK   18  A    between atoms: NAU_39  and  CAY_40 
REMARK   19  A    between atoms: CAZ_57  and  NAV_58 
REMARK   20  A    between atoms: NAV_58  and  CAR_59 
REMARK   21  A    between atoms: CAR_59  and  CAP_60 
REMARK   22  A    between atoms: CAP_60  and  NAT_61 
REMARK   23  A    between atoms: NAT_61  and  CAN_62 
REMARK   24  A    between atoms: CAN_62  and  CAL_63 
ROOT
HETATM    1  CAY   D T 500     -12.937   5.206  -3.566  1.00 41.84     0.079 A 
HETATM    2  CAI   D T 500     -14.259   5.412  -3.083  1.00 42.25     0.020 A 
HETATM    3  CAJ   D T 500     -15.372   4.686  -3.535  1.00 39.39     0.020 A 
HETATM    4  CBE   D T 500     -12.714   4.168  -4.618  1.00 38.78     0.061 A 
HETATM    5  CBA   D T 500     -11.358   3.882  -5.171  1.00 38.89     0.199 A 
HETATM    6  OAA   D T 500     -10.369   4.534  -4.764  1.00 42.15    -0.286 OA
HETATM    7  CBC   D T 500     -11.196   2.814  -6.211  1.00 38.64     0.069 A 
HETATM    8  CAW   D T 500      -9.873   2.476  -6.821  1.00 41.35     0.134 A 
HETATM    9  OAE   D T 500      -8.732   3.144  -6.421  1.00 47.27    -0.190 OA
HETATM   10  CAG   D T 500      -9.809   1.463  -7.794  1.00 39.87     0.030 A 
HETATM   11  CAH   D T 500     -10.945   0.758  -8.228  1.00 38.23     0.030 A 
HETATM   12  CAX   D T 500     -12.209   1.033  -7.717  1.00 35.83     0.134 A 
HETATM   13  OAF   D T 500     -13.293   0.339  -8.130  1.00 35.23    -0.190 OA
HETATM   14  CBD   D T 500     -12.382   2.064  -6.681  1.00 35.97     0.069 A 
HETATM   15  CBB   D T 500     -13.727   2.359  -6.129  1.00 36.65     0.199 A 
HETATM   16  OAB   D T 500     -14.715   1.728  -6.535  1.00 36.71    -0.286 OA
HETATM   17  CBF   D T 500     -13.899   3.403  -5.094  1.00 37.01     0.061 A 
HETATM   18  CAZ   D T 500     -15.240   3.705  -4.517  1.00 39.54     0.079 A 
ENDROOT
BRANCH   1  19
HETATM   19  NAU   D T 500     -11.880   5.928  -3.095  1.00 41.74    -0.269 NA
BRANCH  19  20
HETATM   20  CAQ   D T 500     -11.953   6.517  -1.760  1.00 47.43     0.151 C 
BRANCH  20  21
HETATM   21  CAO   D T 500     -12.183   8.033  -1.752  1.00 48.34     0.146 C 
BRANCH  21  22
HETATM   22  NAS   D T 500     -13.181   8.434  -0.790  1.00 49.29    -0.291 NA
BRANCH  22  23
HETATM   23  CAM   D T 500     -13.075   9.718  -0.137  1.00 49.13     0.155 C 
BRANCH  23  24
HETATM   24  CAK   D T 500     -11.910  10.495  -0.726  1.00 54.80     0.208 C 
HETATM   25  OAC   D T 500     -10.993  10.857   0.315  1.00 60.78    -0.218 OA
ENDBRANCH  23  24
ENDBRANCH  22  23
ENDBRANCH  21  22
ENDBRANCH  20  21
ENDBRANCH  19  20
ENDBRANCH   1  19
BRANCH  18  26
HETATM   26  NAV   D T 500     -16.315   2.999  -4.932  1.00 45.82    -0.269 NA
BRANCH  26  27
HETATM   27  CAR   D T 500     -17.557   3.220  -4.199  1.00 50.37     0.151 C 
BRANCH  27  28
HETATM   28  CAP   D T 500     -18.680   3.799  -5.032  1.00 56.30     0.146 C 
BRANCH  28  29
HETATM   29  NAT   D T 500     -19.603   4.531  -4.176  1.00 57.16    -0.291 NA
BRANCH  29  30
HETATM   30  CAN   D T 500     -20.718   5.223  -4.803  1.00 55.30     0.155 C 
BRANCH  30  31
HETATM   31  CAL   D T 500     -20.680   5.074  -6.315  1.00 53.22     0.208 C 
HETATM   32  OAD   D T 500     -22.048   5.038  -6.727  1.00 54.28    -0.218 OA
ENDBRANCH  30  31
ENDBRANCH  29  30
ENDBRANCH  28  29
ENDBRANCH  27  28
ENDBRANCH  26  27
ENDBRANCH  18  26
TORSDOF 24
ENDMDL
MODEL 7
REMARK VINA RESULT:    -6.406      2.250      6.913
REMARK INTER + INTRA:         -12.068
REMARK INTER:                 -10.848
REMARK INTRA:                  -1.220
REMARK UNBOUND:                -1.168
REMARK  24 active torsions:
REMARK  status: ('A' for Active; 'I' for Inactive)
REMARK    1  A    between atoms: CAK_2  and  CAM_3 
REMARK    2  A    between atoms: CAM_3  and  NAS_4 
REMARK    3  A    between atoms: NAS_4  and  CAO_5 
REMARK    4  A    between atoms: CAO_5  and  CAQ_6 
REMARK    5  A    between atoms: CAQ_6  and  NAU_7 
REMARK    6  A    between atoms: NAU_7  and  CAY_8 
REMARK    7  A    between atoms: CAZ_25  and  NAV_26 
REMARK    8  A    between atoms: NAV_26  and  CAR_27 
REMARK    9  A    between atoms: CAR_27  and  CAP_28 
REMARK   10  A    between atoms: CAP_28  and  NAT_29 
REMARK   11  A    between atoms: NAT_29  and  CAN_30 
REMARK   12  A    between atoms: CAN_30  and  CAL_31 
REMARK   13  A    between atoms: CAK_34  and  CAM_35 
REMARK   14  A    between atoms: CAM_35  and  NAS_36 
REMARK   15  A    between atoms: NAS_36  and  CAO_37 
REMARK   16  A    between atoms: CAO_37  and  CAQ_38 
REMARK   17  A    between atoms: CAQ_38  and  NAU_39 
REMARK   18  A    between atoms: NAU_39  and  CAY_40 
REMARK   19  A    between atoms: CAZ_57  and  NAV_58 
REMARK   20  A    between atoms: NAV_58  and  CAR_59 
REMARK   21  A    between atoms: CAR_59  and  CAP_60 
REMARK   22  A    between atoms: CAP_60  and  NAT_61 
REMARK   23  A    between atoms: NAT_61  and  CAN_62 
REMARK   24  A    between atoms: CAN_62  and  CAL_63 
ROOT
HETATM    1  CAY   D T 500     -15.887   2.070  -5.581  1.00 41.84     0.079 A 
HETATM    2  CAI   D T 500     -16.494   2.917  -4.612  1.00 42.25     0.020 A 
HETATM    3  CAJ   D T 500     -15.792   3.895  -3.888  1.00 39.39     0.020 A 
HETATM    4  CBE   D T 500     -14.423   2.217  -5.843  1.00 38.78     0.061 A 
HETATM    5  CBA   D T 500     -13.711   1.375  -6.848  1.00 38.89     0.199 A 
HETATM    6  OAA   D T 500     -14.343   0.505  -7.490  1.00 42.15    -0.286 OA
HETATM    7  CBC   D T 500     -12.245   1.584  -7.079  1.00 38.64     0.069 A 
HETATM    8  CAW   D T 500     -11.460   0.774  -8.062  1.00 41.35     0.134 A 
HETATM    9  OAE   D T 500     -12.084  -0.201  -8.815  1.00 47.27    -0.190 OA
HETATM   10  CAG   D T 500     -10.086   1.030  -8.214  1.00 39.87     0.030 A 
HETATM   11  CAH   D T 500      -9.413   2.014  -7.470  1.00 38.23     0.030 A 
HETATM   12  CAX   D T 500     -10.077   2.791  -6.526  1.00 35.83     0.134 A 
HETATM   13  OAF   D T 500      -9.423   3.745  -5.825  1.00 35.23    -0.190 OA
HETATM   14  CBD   D T 500     -11.521   2.613  -6.301  1.00 35.97     0.069 A 
HETATM   15  CBB   D T 500     -12.235   3.442  -5.299  1.00 36.65     0.199 A 
HETATM   16  OAB   D T 500     -11.616   4.298  -4.649  1.00 36.71    -0.286 OA
HETATM   17  CBF   D T 500     -13.685   3.253  -5.070  1.00 37.01     0.061 A 
HETATM   18  CAZ   D T 500     -14.423   4.085  -4.077  1.00 39.54     0.079 A 
ENDROOT
BRANCH   1  19
HETATM   19  NAU   D T 500     -16.606   1.137  -6.268  1.00 41.74    -0.269 NA
BRANCH  19  20
HETATM   20  CAQ   D T 500     -17.805   0.565  -5.660  1.00 47.43     0.151 C 
BRANCH  20  21
HETATM   21  CAO   D T 500     -18.170  -0.830  -6.179  1.00 48.34     0.146 C 
BRANCH  21  22
HETATM   22  NAS   D T 500     -17.148  -1.809  -5.894  1.00 49.29    -0.291 NA
BRANCH  22  23
HETATM   23  CAM   D T 500     -16.577  -2.585  -6.969  1.00 49.13     0.155 C 
BRANCH  23  24
HETATM   24  CAK   D T 500     -15.144  -2.955  -6.627  1.00 54.80     0.208 C 
HETATM   25  OAC   D T 500     -14.692  -2.171  -5.515  1.00 60.78    -0.218 OA
ENDBRANCH  23  24
ENDBRANCH  22  23
ENDBRANCH  21  22
ENDBRANCH  20  21
ENDBRANCH  19  20
ENDBRANCH   1  19
BRANCH  18  26
HETATM   26  NAV   D T 500     -13.762   5.040  -3.389  1.00 45.82    -0.269 NA
BRANCH  26  27
HETATM   27  CAR   D T 500     -14.115   5.186  -1.980  1.00 50.37     0.151 C 
BRANCH  27  28
HETATM   28  CAP   D T 500     -13.180   6.076  -1.190  1.00 56.30     0.146 C 
BRANCH  28  29
HETATM   29  NAT   D T 500     -11.834   5.987  -1.737  1.00 57.16    -0.291 NA
BRANCH  29  30
HETATM   30  CAN   D T 500     -11.131   7.226  -2.032  1.00 55.30     0.155 C 
BRANCH  30  31
HETATM   31  CAL   D T 500     -12.092   8.310  -2.493  1.00 53.22     0.208 C 
HETATM   32  OAD   D T 500     -12.047   9.313  -1.477  1.00 54.28    -0.218 OA
ENDBRANCH  30  31
ENDBRANCH  29  30
ENDBRANCH  28  29
ENDBRANCH  27  28
ENDBRANCH  26  27
ENDBRANCH  18  26
TORSDOF 24
ENDMDL
MODEL 8
REMARK VINA RESULT:    -6.388      2.513      6.162
REMARK INTER + INTRA:         -12.037
REMARK INTER:                 -10.865
REMARK INTRA:                  -1.171
REMARK UNBOUND:                -1.168
REMARK  24 active torsions:
REMARK  status: ('A' for Active; 'I' for Inactive)
REMARK    1  A    between atoms: CAK_2  and  CAM_3 
REMARK    2  A    between atoms: CAM_3  and  NAS_4 
REMARK    3  A    between atoms: NAS_4  and  CAO_5 
REMARK    4  A    between atoms: CAO_5  and  CAQ_6 
REMARK    5  A    between atoms: CAQ_6  and  NAU_7 
REMARK    6  A    between atoms: NAU_7  and  CAY_8 
REMARK    7  A    between atoms: CAZ_25  and  NAV_26 
REMARK    8  A    between atoms: NAV_26  and  CAR_27 
REMARK    9  A    between atoms: CAR_27  and  CAP_28 
REMARK   10  A    between atoms: CAP_28  and  NAT_29 
REMARK   11  A    between atoms: NAT_29  and  CAN_30 
REMARK   12  A    between atoms: CAN_30  and  CAL_31 
REMARK   13  A    between atoms: CAK_34  and  CAM_35 
REMARK   14  A    between atoms: CAM_35  and  NAS_36 
REMARK   15  A    between atoms: NAS_36  and  CAO_37 
REMARK   16  A    between atoms: CAO_37  and  CAQ_38 
REMARK   17  A    between atoms: CAQ_38  and  NAU_39 
REMARK   18  A    between atoms: NAU_39  and  CAY_40 
REMARK   19  A    between atoms: CAZ_57  and  NAV_58 
REMARK   20  A    between atoms: NAV_58  and  CAR_59 
REMARK   21  A    between atoms: CAR_59  and  CAP_60 
REMARK   22  A    between atoms: CAP_60  and  NAT_61 
REMARK   23  A    between atoms: NAT_61  and  CAN_62 
REMARK   24  A    between atoms: CAN_62  and  CAL_63 
ROOT
HETATM    1  CAY   D T 500     -14.656   2.517  -5.501  1.00 41.84     0.079 A 
HETATM    2  CAI   D T 500     -16.031   2.343  -5.179  1.00 42.25     0.020 A 
HETATM    3  CAJ   D T 500     -16.686   3.058  -4.163  1.00 39.39     0.020 A 
HETATM    4  CBE   D T 500     -13.857   3.506  -4.717  1.00 38.78     0.061 A 
HETATM    5  CBA   D T 500     -12.413   3.756  -4.997  1.00 38.89     0.199 A 
HETATM    6  OAA   D T 500     -11.835   3.114  -5.904  1.00 42.15    -0.286 OA
HETATM    7  CBC   D T 500     -11.670   4.776  -4.188  1.00 38.64     0.069 A 
HETATM    8  CAW   D T 500     -10.221   5.076  -4.401  1.00 41.35     0.134 A 
HETATM    9  OAE   D T 500      -9.512   4.416  -5.387  1.00 47.27    -0.190 OA
HETATM   10  CAG   D T 500      -9.598   6.045  -3.595  1.00 39.87     0.030 A 
HETATM   11  CAH   D T 500     -10.282   6.740  -2.583  1.00 38.23     0.030 A 
HETATM   12  CAX   D T 500     -11.626   6.499  -2.317  1.00 35.83     0.134 A 
HETATM   13  OAF   D T 500     -12.279   7.183  -1.351  1.00 35.23    -0.190 OA
HETATM   14  CBD   D T 500     -12.375   5.515  -3.116  1.00 35.97     0.069 A 
HETATM   15  CBB   D T 500     -13.809   5.256  -2.841  1.00 36.65     0.199 A 
HETATM   16  OAB   D T 500     -14.388   5.877  -1.936  1.00 36.71    -0.286 OA
HETATM   17  CBF   D T 500     -14.557   4.259  -3.640  1.00 37.01     0.061 A 
HETATM   18  CAZ   D T 500     -16.002   3.995  -3.388  1.00 39.54     0.079 A 
ENDROOT
BRANCH   1  19
HETATM   19  NAU   D T 500     -14.059   1.807  -6.501  1.00 41.74    -0.269 NA
BRANCH  19  20
HETATM   20  CAQ   D T 500     -13.913   0.360  -6.363  1.00 47.43     0.151 C 
BRANCH  20  21
HETATM   21  CAO   D T 500     -13.013  -0.285  -7.423  1.00 48.34     0.146 C 
BRANCH  21  22
HETATM   22  NAS   D T 500     -12.135   0.670  -8.057  1.00 49.29    -0.291 NA
BRANCH  22  23
HETATM   23  CAM   D T 500     -10.783   0.291  -8.392  1.00 49.13     0.155 C 
BRANCH  23  24
HETATM   24  CAK   D T 500      -9.860   1.485  -8.218  1.00 54.80     0.208 C 
HETATM   25  OAC   D T 500      -8.855   1.184  -7.240  1.00 60.78    -0.218 OA
ENDBRANCH  23  24
ENDBRANCH  22  23
ENDBRANCH  21  22
ENDBRANCH  20  21
ENDBRANCH  19  20
ENDBRANCH   1  19
BRANCH  18  26
HETATM   26  NAV   D T 500     -16.646   4.690  -2.425  1.00 45.82    -0.269 NA
BRANCH  26  27
HETATM   27  CAR   D T 500     -17.586   3.938  -1.601  1.00 50.37     0.151 C 
BRANCH  27  28
HETATM   28  CAP   D T 500     -16.966   3.276  -0.390  1.00 56.30     0.146 C 
BRANCH  28  29
HETATM   29  NAT   D T 500     -16.251   4.266   0.402  1.00 57.16    -0.291 NA
BRANCH  29  30
HETATM   30  CAN   D T 500     -16.655   4.459   1.786  1.00 55.30     0.155 C 
BRANCH  30  31
HETATM   31  CAL   D T 500     -17.019   5.909   2.058  1.00 53.22     0.208 C 
HETATM   32  OAD   D T 500     -18.183   6.162   1.269  1.00 54.28    -0.218 OA
ENDBRANCH  30  31
ENDBRANCH  29  30
ENDBRANCH  28  29
ENDBRANCH  27  28
ENDBRANCH  26  27
ENDBRANCH  18  26
TORSDOF 24
ENDMDL
MODEL 9
REMARK VINA RESULT:    -6.332      2.222      6.419
REMARK INTER + INTRA:         -11.943
REMARK INTER:                 -10.636
REMARK INTRA:                  -1.306
REMARK UNBOUND:                -1.168
REMARK  24 active torsions:
REMARK  status: ('A' for Active; 'I' for Inactive)
REMARK    1  A    between atoms: CAK_2  and  CAM_3 
REMARK    2  A    between atoms: CAM_3  and  NAS_4 
REMARK    3  A    between atoms: NAS_4  and  CAO_5 
REMARK    4  A    between atoms: CAO_5  and  CAQ_6 
REMARK    5  A    between atoms: CAQ_6  and  NAU_7 
REMARK    6  A    between atoms: NAU_7  and  CAY_8 
REMARK    7  A    between atoms: CAZ_25  and  NAV_26 
REMARK    8  A    between atoms: NAV_26  and  CAR_27 
REMARK    9  A    between atoms: CAR_27  and  CAP_28 
REMARK   10  A    between atoms: CAP_28  and  NAT_29 
REMARK   11  A    between atoms: NAT_29  and  CAN_30 
REMARK   12  A    between atoms: CAN_30  and  CAL_31 
REMARK   13  A    between atoms: CAK_34  and  CAM_35 
REMARK   14  A    between atoms: CAM_35  and  NAS_36 
REMARK   15  A    between atoms: NAS_36  and  CAO_37 
REMARK   16  A    between atoms: CAO_37  and  CAQ_38 
REMARK   17  A    between atoms: CAQ_38  and  NAU_39 
REMARK   18  A    between atoms: NAU_39  and  CAY_40 
REMARK   19  A    between atoms: CAZ_57  and  NAV_58 
REMARK   20  A    between atoms: NAV_58  and  CAR_59 
REMARK   21  A    between atoms: CAR_59  and  CAP_60 
REMARK   22  A    between atoms: CAP_60  and  NAT_61 
REMARK   23  A    between atoms: NAT_61  and  CAN_62 
REMARK   24  A    between atoms: CAN_62  and  CAL_63 
ROOT
HETATM    1  CAY   D T 500     -15.305   2.895  -5.253  1.00 41.84     0.079 A 
HETATM    2  CAI   D T 500     -15.606   3.892  -4.284  1.00 42.25     0.020 A 
HETATM    3  CAJ   D T 500     -14.643   4.749  -3.728  1.00 39.39     0.020 A 
HETATM    4  CBE   D T 500     -13.888   2.739  -5.703  1.00 38.78     0.061 A 
HETATM    5  CBA   D T 500     -13.488   1.726  -6.721  1.00 38.89     0.199 A 
HETATM    6  OAA   D T 500     -14.352   0.964  -7.214  1.00 42.15    -0.286 OA
HETATM    7  CBC   D T 500     -12.054   1.632  -7.146  1.00 38.64     0.069 A 
HETATM    8  CAW   D T 500     -11.574   0.636  -8.154  1.00 41.35     0.134 A 
HETATM    9  OAE   D T 500     -12.465  -0.236  -8.748  1.00 47.27    -0.190 OA
HETATM   10  CAG   D T 500     -10.210   0.611  -8.492  1.00 39.87     0.030 A 
HETATM   11  CAH   D T 500      -9.270   1.481  -7.912  1.00 38.23     0.030 A 
HETATM   12  CAX   D T 500      -9.643   2.420  -6.956  1.00 35.83     0.134 A 
HETATM   13  OAF   D T 500      -8.735   3.262  -6.414  1.00 35.23    -0.190 OA
HETATM   14  CBD   D T 500     -11.051   2.538  -6.542  1.00 35.97     0.069 A 
HETATM   15  CBB   D T 500     -11.457   3.540  -5.526  1.00 36.65     0.199 A 
HETATM   16  OAB   D T 500     -10.606   4.290  -5.023  1.00 36.71    -0.286 OA
HETATM   17  CBF   D T 500     -12.872   3.650  -5.107  1.00 37.01     0.061 A 
HETATM   18  CAZ   D T 500     -13.301   4.658  -4.097  1.00 39.54     0.079 A 
ENDROOT
BRANCH   1  19
HETATM   19  NAU   D T 500     -16.272   2.087  -5.775  1.00 41.74    -0.269 NA
BRANCH  19  20
HETATM   20  CAQ   D T 500     -17.657   2.259  -5.347  1.00 47.43     0.151 C 
BRANCH  20  21
HETATM   21  CAO   D T 500     -18.638   1.258  -5.968  1.00 48.34     0.146 C 
BRANCH  21  22
HETATM   22  NAS   D T 500     -18.415  -0.092  -5.505  1.00 49.29    -0.291 NA
BRANCH  22  23
HETATM   23  CAM   D T 500     -18.678  -1.206  -6.384  1.00 49.13     0.155 C 
BRANCH  23  24
HETATM   24  CAK   D T 500     -18.192  -0.877  -7.785  1.00 54.80     0.208 C 
HETATM   25  OAC   D T 500     -16.794  -1.175  -7.896  1.00 60.78    -0.218 OA
ENDBRANCH  23  24
ENDBRANCH  22  23
ENDBRANCH  21  22
ENDBRANCH  20  21
ENDBRANCH  19  20
ENDBRANCH   1  19
BRANCH  18  26
HETATM   26  NAV   D T 500     -12.386   5.500  -3.569  1.00 45.82    -0.269 NA
BRANCH  26  27
HETATM   27  CAR   D T 500     -12.781   6.900  -3.457  1.00 50.37     0.151 C 
BRANCH  27  28
HETATM   28  CAP   D T 500     -12.386   7.560  -2.154  1.00 56.30     0.146 C 
BRANCH  28  29
HETATM   29  NAT   D T 500     -12.722   6.687  -1.037  1.00 57.16    -0.291 NA
BRANCH  29  30
HETATM   30  CAN   D T 500     -14.092   6.696  -0.549  1.00 55.30     0.155 C 
BRANCH  30  31
HETATM   31  CAL   D T 500     -14.494   5.334  -0.008  1.00 53.22     0.208 C 
HETATM   32  OAD   D T 500     -13.485   4.432  -0.467  1.00 54.28    -0.218 OA
ENDBRANCH  30  31
ENDBRANCH  29  30
ENDBRANCH  28  29
ENDBRANCH  27  28
ENDBRANCH  26  27
ENDBRANCH  18  26
TORSDOF 24
ENDMDL
