MODEL 1
REMARK VINA RESULT:    -8.303      0.000      0.000
REMARK INTER + INTRA:         -13.008
REMARK INTER:                 -11.701
REMARK INTRA:                  -1.307
REMARK UNBOUND:                -1.307
REMARK  7 active torsions:
REMARK  status: ('A' for Active; 'I' for Inactive)
REMARK    1  A    between atoms: N3_2  and  C8_7 
REMARK    2  A    between atoms: C5_4  and  C9_34 
REMARK    3  A    between atoms: C7_6  and  N5_28 
REMARK       I    between atoms: C21_13  and  N6_18 
REMARK    4  A    between atoms: C21_13  and  C18_23 
REMARK    5  A    between atoms: C22_14  and  N6_18 
REMARK    6  A    between atoms: C16_24  and  O3_25 
REMARK    7  A    between atoms: N5_28  and  C1_29 
ROOT
HETATM    1  N1    D T 401       2.541  14.987  -1.176  1.00 24.43    -0.056 NA
HETATM    2  N3    D T 401       5.287  16.089  -4.122  1.00 24.87    -0.328 N 
HETATM    3  C4    D T 401       2.325  16.160  -1.794  1.00 24.33     0.138 A 
HETATM    4  C5    D T 401       5.150  17.377  -4.856  1.00 24.68     0.162 A 
HETATM    5  C6    D T 401       3.956  18.193  -4.497  1.00 25.06     0.258 A 
HETATM    6  C1    D T 401       3.596  14.184  -1.483  1.00 24.96     0.752 A 
HETATM    7  N2    D T 401       4.482  14.547  -2.444  1.00 25.42    -0.041 NA
HETATM    8  C2    D T 401       4.352  15.712  -3.125  1.00 24.50     0.176 A 
HETATM    9  O1    D T 401       3.798  19.288  -5.093  1.00 25.29    -0.270 OA
HETATM   10  N4    D T 401       3.040  17.810  -3.479  1.00 24.77    -0.292 N 
HETATM   11  C11   D T 401       1.903  18.687  -3.155  1.00 25.67     0.134 C 
HETATM   12  C3    D T 401       3.204  16.589  -2.790  1.00 24.44     0.117 A 
ENDROOT
BRANCH   6  13
HETATM   13  N5    D T 401       3.712  13.023  -0.790  1.00 24.95    -0.057 NA
BRANCH  13  14
HETATM   14  C7    D T 401       4.649  12.663   0.133  1.00 25.44     0.122 A 
HETATM   15  C20   D T 401       6.004  12.460  -0.158  1.00 23.96     0.022 A 
HETATM   16  C19   D T 401       6.894  12.080   0.853  1.00 24.92     0.006 A 
HETATM   17  C18   D T 401       6.461  11.892   2.172  1.00 25.62     0.060 A 
HETATM   18  C17   D T 401       5.119  12.076   2.502  1.00 25.49     0.030 A 
HETATM   19  C16   D T 401       4.190  12.455   1.536  1.00 24.16     0.113 A 
BRANCH  17  20
HETATM   20  C21   D T 401       7.414  11.475   3.258  1.00 26.92     0.275 C 
HETATM   21  O2    D T 401       6.945  10.960   4.261  1.00 30.54    -0.266 OA
HETATM   22  N6    D T 401       8.727  11.672   3.116  1.00 31.16    -0.236 NA
BRANCH  22  23
HETATM   23  C22   D T 401       9.657  11.498   4.221  1.00 34.88     0.111 C 
HETATM   24  C29   D T 401      10.225  10.080   4.245  1.00 36.76     0.048 C 
HETATM   25  C28   D T 401      11.130   9.890   5.464  1.00 38.21     0.099 C 
HETATM   26  N7    D T 401      12.131  10.958   5.434  1.00 37.76    -0.367 N 
HETATM   27  C24   D T 401      11.738  12.364   5.344  1.00 37.52     0.099 C 
HETATM   28  C30   D T 401      13.547  10.619   5.510  1.00 36.85     0.121 C 
HETATM   29  C23   D T 401      10.815  12.489   4.130  1.00 35.87     0.048 C 
ENDBRANCH  22  23
ENDBRANCH  17  20
BRANCH  19  30
HETATM   30  O3    D T 401       2.869  12.643   1.863  1.00 24.11    -0.327 OA
HETATM   31  C31   D T 401       2.019  11.544   2.195  1.00 17.70     0.181 C 
ENDBRANCH  19  30
ENDBRANCH  13  14
ENDBRANCH   6  13
BRANCH   2  32
HETATM   32  C8    D T 401       6.379  15.115  -4.391  1.00 24.12     0.083 C 
HETATM   33  C15   D T 401       7.645  15.265  -3.556  1.00 23.24     0.022 C 
HETATM   34  C14   D T 401       8.770  14.688  -4.417  1.00 24.93     0.002 C 
HETATM   35  C13   D T 401       8.319  14.823  -5.894  1.00 23.09     0.002 C 
HETATM   36  C12   D T 401       6.800  15.061  -5.865  1.00 23.56     0.022 C 
ENDBRANCH   2  32
BRANCH   4  37
HETATM   37  C9    D T 401       6.351  18.296  -4.558  1.00 25.78     0.032 C 
HETATM   38  C10   D T 401       7.190  18.602  -5.788  1.00 24.04     0.003 C 
ENDBRANCH   4  37
TORSDOF 7
ENDMDL
MODEL 2
REMARK VINA RESULT:    -8.196      2.642      9.091
REMARK INTER + INTRA:         -12.856
REMARK INTER:                 -11.772
REMARK INTRA:                  -1.084
REMARK UNBOUND:                -1.307
REMARK  7 active torsions:
REMARK  status: ('A' for Active; 'I' for Inactive)
REMARK    1  A    between atoms: N3_2  and  C8_7 
REMARK    2  A    between atoms: C5_4  and  C9_34 
REMARK    3  A    between atoms: C7_6  and  N5_28 
REMARK       I    between atoms: C21_13  and  N6_18 
REMARK    4  A    between atoms: C21_13  and  C18_23 
REMARK    5  A    between atoms: C22_14  and  N6_18 
REMARK    6  A    between atoms: C16_24  and  O3_25 
REMARK    7  A    between atoms: N5_28  and  C1_29 
ROOT
HETATM    1  N1    D T 401       2.131  12.730  -0.510  1.00 24.43    -0.056 NA
HETATM    2  N3    D T 401       5.638  12.818   1.755  1.00 24.87    -0.328 N 
HETATM    3  C4    D T 401       2.153  11.971   0.599  1.00 24.33     0.138 A 
HETATM    4  C5    D T 401       5.774  12.002   2.992  1.00 24.68     0.162 A 
HETATM    5  C6    D T 401       4.568  11.212   3.372  1.00 25.06     0.258 A 
HETATM    6  C1    D T 401       3.189  13.496  -0.891  1.00 24.96     0.752 A 
HETATM    7  N2    D T 401       4.324  13.522  -0.148  1.00 25.42    -0.041 NA
HETATM    8  C2    D T 401       4.445  12.792   0.988  1.00 24.50     0.176 A 
HETATM    9  O1    D T 401       4.636  10.510   4.412  1.00 25.29    -0.270 OA
HETATM   10  N4    D T 401       3.387  11.181   2.580  1.00 24.77    -0.292 N 
HETATM   11  C11   D T 401       2.250  10.347   3.001  1.00 25.67     0.134 C 
HETATM   12  C3    D T 401       3.294  11.955   1.403  1.00 24.44     0.117 A 
ENDROOT
BRANCH   6  13
HETATM   13  N5    D T 401       3.051  14.218  -2.031  1.00 24.95    -0.057 NA
BRANCH  13  14
HETATM   14  C7    D T 401       4.014  14.804  -2.800  1.00 25.44     0.122 A 
HETATM   15  C20   D T 401       5.026  14.100  -3.465  1.00 23.96     0.022 A 
HETATM   16  C19   D T 401       5.981  14.785  -4.224  1.00 24.92     0.006 A 
HETATM   17  C18   D T 401       5.954  16.181  -4.340  1.00 25.62     0.060 A 
HETATM   18  C17   D T 401       4.968  16.920  -3.688  1.00 25.49     0.030 A 
HETATM   19  C16   D T 401       3.993  16.289  -2.919  1.00 24.16     0.113 A 
BRANCH  17  20
HETATM   20  C21   D T 401       6.984  16.920  -5.148  1.00 26.92     0.275 C 
HETATM   21  O2    D T 401       7.542  16.315  -6.051  1.00 30.54    -0.266 OA
HETATM   22  N6    D T 401       7.272  18.194  -4.873  1.00 31.16    -0.236 NA
BRANCH  22  23
HETATM   23  C22   D T 401       8.410  18.875  -5.470  1.00 34.88     0.111 C 
HETATM   24  C29   D T 401       8.136  20.368  -5.635  1.00 36.76     0.048 C 
HETATM   25  C28   D T 401       9.307  21.050  -6.346  1.00 38.21     0.099 C 
HETATM   26  N7    D T 401      10.521  20.723  -5.596  1.00 37.76    -0.367 N 
HETATM   27  C24   D T 401      10.881  19.336  -5.302  1.00 37.52     0.099 C 
HETATM   28  C30   D T 401      11.399  21.795  -5.144  1.00 36.85     0.121 C 
HETATM   29  C23   D T 401       9.667  18.699  -4.621  1.00 35.87     0.048 C 
ENDBRANCH  22  23
ENDBRANCH  17  20
BRANCH  19  30
HETATM   30  O3    D T 401       3.017  17.016  -2.282  1.00 24.11    -0.327 OA
HETATM   31  C31   D T 401       2.486  18.214  -2.854  1.00 17.70     0.181 C 
ENDBRANCH  19  30
ENDBRANCH  13  14
ENDBRANCH   6  13
BRANCH   2  32
HETATM   32  C8    D T 401       6.712  13.718   1.255  1.00 24.12     0.083 C 
HETATM   33  C15   D T 401       6.314  15.162   0.973  1.00 23.24     0.022 C 
HETATM   34  C14   D T 401       7.287  15.649  -0.101  1.00 24.93     0.002 C 
HETATM   35  C13   D T 401       7.766  14.395  -0.875  1.00 23.09     0.002 C 
HETATM   36  C12   D T 401       7.426  13.183   0.007  1.00 23.56     0.022 C 
ENDBRANCH   2  32
BRANCH   4  37
HETATM   37  C9    D T 401       6.888  10.951   2.823  1.00 25.78     0.032 C 
HETATM   38  C10   D T 401       8.110  11.231   3.682  1.00 24.04     0.003 C 
ENDBRANCH   4  37
TORSDOF 7
ENDMDL
MODEL 3
REMARK VINA RESULT:    -8.182      4.481     11.431
REMARK INTER + INTRA:         -12.836
REMARK INTER:                 -11.146
REMARK INTRA:                  -1.691
REMARK UNBOUND:                -1.307
REMARK  7 active torsions:
REMARK  status: ('A' for Active; 'I' for Inactive)
REMARK    1  A    between atoms: N3_2  and  C8_7 
REMARK    2  A    between atoms: C5_4  and  C9_34 
REMARK    3  A    between atoms: C7_6  and  N5_28 
REMARK       I    between atoms: C21_13  and  N6_18 
REMARK    4  A    between atoms: C21_13  and  C18_23 
REMARK    5  A    between atoms: C22_14  and  N6_18 
REMARK    6  A    between atoms: C16_24  and  O3_25 
REMARK    7  A    between atoms: N5_28  and  C1_29 
ROOT
HETATM    1  N1    D T 401      10.613   8.855   5.883  1.00 24.43    -0.056 NA
HETATM    2  N3    D T 401      12.939  12.314   5.645  1.00 24.87    -0.328 N 
HETATM    3  C4    D T 401      11.526   9.036   6.852  1.00 24.33     0.138 A 
HETATM    4  C5    D T 401      13.991  12.602   6.657  1.00 24.68     0.162 A 
HETATM    5  C6    D T 401      14.107  11.607   7.760  1.00 25.06     0.258 A 
HETATM    6  C1    D T 401      10.439   9.744   4.868  1.00 24.96     0.752 A 
HETATM    7  N2    D T 401      11.196  10.868   4.799  1.00 25.42    -0.041 NA
HETATM    8  C2    D T 401      12.145  11.141   5.728  1.00 24.50     0.176 A 
HETATM    9  O1    D T 401      14.981  11.811   8.640  1.00 25.29    -0.270 OA
HETATM   10  N4    D T 401      13.318  10.426   7.817  1.00 24.77    -0.292 N 
HETATM   11  C11   D T 401      13.515   9.470   8.918  1.00 25.67     0.134 C 
HETATM   12  C3    D T 401      12.337  10.172   6.833  1.00 24.44     0.117 A 
ENDROOT
BRANCH   6  13
HETATM   13  N5    D T 401       9.486   9.454   3.947  1.00 24.95    -0.057 NA
BRANCH  13  14
HETATM   14  C7    D T 401       8.476  10.240   3.477  1.00 25.44     0.122 A 
HETATM   15  C20   D T 401       7.309  10.535   4.195  1.00 23.96     0.022 A 
HETATM   16  C19   D T 401       6.317  11.344   3.629  1.00 24.92     0.006 A 
HETATM   17  C18   D T 401       6.460  11.877   2.341  1.00 25.62     0.060 A 
HETATM   18  C17   D T 401       7.602  11.602   1.591  1.00 25.49     0.030 A 
HETATM   19  C16   D T 401       8.621  10.803   2.106  1.00 24.16     0.113 A 
BRANCH  17  20
HETATM   20  C21   D T 401       5.392  12.739   1.728  1.00 26.92     0.275 C 
HETATM   21  O2    D T 401       5.656  13.913   1.520  1.00 30.54    -0.266 OA
HETATM   22  N6    D T 401       4.196  12.224   1.431  1.00 31.16    -0.236 NA
BRANCH  22  23
HETATM   23  C22   D T 401       3.068  13.061   1.053  1.00 34.88     0.111 C 
HETATM   24  C29   D T 401       2.775  12.949  -0.442  1.00 36.76     0.048 C 
HETATM   25  C28   D T 401       1.644  13.903  -0.835  1.00 38.21     0.099 C 
HETATM   26  N7    D T 401       0.508  13.617   0.042  1.00 37.76    -0.367 N 
HETATM   27  C24   D T 401       0.653  13.621   1.498  1.00 37.52     0.099 C 
HETATM   28  C30   D T 401      -0.798  13.336  -0.541  1.00 36.85     0.121 C 
HETATM   29  C23   D T 401       1.811  12.676   1.830  1.00 35.87     0.048 C 
ENDBRANCH  22  23
ENDBRANCH  17  20
BRANCH  19  30
HETATM   30  O3    D T 401       9.749  10.538   1.368  1.00 24.11    -0.327 OA
HETATM   31  C31   D T 401      10.796  11.503   1.233  1.00 17.70     0.181 C 
ENDBRANCH  19  30
ENDBRANCH  13  14
ENDBRANCH   6  13
BRANCH   2  32
HETATM   32  C8    D T 401      12.634  13.226   4.509  1.00 24.12     0.083 C 
HETATM   33  C15   D T 401      13.472  13.045   3.248  1.00 23.24     0.022 C 
HETATM   34  C14   D T 401      13.478  14.413   2.565  1.00 24.93     0.002 C 
HETATM   35  C13   D T 401      13.247  15.470   3.675  1.00 23.09     0.002 C 
HETATM   36  C12   D T 401      12.684  14.711   4.888  1.00 23.56     0.022 C 
ENDBRANCH   2  32
BRANCH   4  37
HETATM   37  C9    D T 401      15.383  12.613   5.997  1.00 25.78     0.032 C 
HETATM   38  C10   D T 401      16.056  13.975   6.039  1.00 24.04     0.003 C 
ENDBRANCH   4  37
TORSDOF 7
ENDMDL
MODEL 4
REMARK VINA RESULT:    -8.057      3.448     10.561
REMARK INTER + INTRA:         -12.661
REMARK INTER:                 -11.943
REMARK INTRA:                  -0.718
REMARK UNBOUND:                -1.307
REMARK  7 active torsions:
REMARK  status: ('A' for Active; 'I' for Inactive)
REMARK    1  A    between atoms: N3_2  and  C8_7 
REMARK    2  A    between atoms: C5_4  and  C9_34 
REMARK    3  A    between atoms: C7_6  and  N5_28 
REMARK       I    between atoms: C21_13  and  N6_18 
REMARK    4  A    between atoms: C21_13  and  C18_23 
REMARK    5  A    between atoms: C22_14  and  N6_18 
REMARK    6  A    between atoms: C16_24  and  O3_25 
REMARK    7  A    between atoms: N5_28  and  C1_29 
ROOT
HETATM    1  N1    D T 401      11.077  13.951   1.030  1.00 24.43    -0.056 NA
HETATM    2  N3    D T 401      10.860  10.674   3.609  1.00 24.87    -0.328 N 
HETATM    3  C4    D T 401      12.216  13.590   1.645  1.00 24.33     0.138 A 
HETATM    4  C5    D T 401      12.060  10.203   4.353  1.00 24.68     0.162 A 
HETATM    5  C6    D T 401      13.320  10.945   4.070  1.00 25.06     0.258 A 
HETATM    6  C1    D T 401       9.903  13.292   1.224  1.00 24.96     0.752 A 
HETATM    7  N2    D T 401       9.841  12.226   2.061  1.00 25.42    -0.041 NA
HETATM    8  C2    D T 401      10.935  11.785   2.729  1.00 24.50     0.176 A 
HETATM    9  O1    D T 401      14.360  10.580   4.673  1.00 25.29    -0.270 OA
HETATM   10  N4    D T 401      13.373  12.070   3.200  1.00 24.77    -0.292 N 
HETATM   11  C11   D T 401      14.649  12.775   2.999  1.00 25.67     0.134 C 
HETATM   12  C3    D T 401      12.215  12.503   2.519  1.00 24.44     0.117 A 
ENDROOT
BRANCH   6  13
HETATM   13  N5    D T 401       8.817  13.749   0.550  1.00 24.95    -0.057 NA
BRANCH  13  14
HETATM   14  C7    D T 401       7.497  13.490   0.770  1.00 25.44     0.122 A 
HETATM   15  C20   D T 401       6.885  13.533   2.029  1.00 23.96     0.022 A 
HETATM   16  C19   D T 401       5.523  13.240   2.163  1.00 24.92     0.006 A 
HETATM   17  C18   D T 401       4.739  12.900   1.053  1.00 25.62     0.060 A 
HETATM   18  C17   D T 401       5.310  12.839  -0.216  1.00 25.49     0.030 A 
HETATM   19  C16   D T 401       6.661  13.120  -0.407  1.00 24.16     0.113 A 
BRANCH  17  20
HETATM   20  C21   D T 401       3.277  12.577   1.197  1.00 26.92     0.275 C 
HETATM   21  O2    D T 401       2.977  11.506   1.701  1.00 30.54    -0.266 OA
HETATM   22  N6    D T 401       2.351  13.441   0.777  1.00 31.16    -0.236 NA
BRANCH  22  23
HETATM   23  C22   D T 401       0.945  13.081   0.685  1.00 34.88     0.111 C 
HETATM   24  C29   D T 401       0.093  13.940   1.618  1.00 36.76     0.048 C 
HETATM   25  C28   D T 401      -1.368  13.486   1.574  1.00 38.21     0.099 C 
HETATM   26  N7    D T 401      -1.785  13.496   0.171  1.00 37.76    -0.367 N 
HETATM   27  C24   D T 401      -1.028  12.773  -0.851  1.00 37.52     0.099 C 
HETATM   28  C30   D T 401      -2.985  14.227  -0.218  1.00 36.85     0.121 C 
HETATM   29  C23   D T 401       0.424  13.244  -0.742  1.00 35.87     0.048 C 
ENDBRANCH  22  23
ENDBRANCH  17  20
BRANCH  19  30
HETATM   30  O3    D T 401       7.222  13.067  -1.660  1.00 24.11    -0.327 OA
HETATM   31  C31   D T 401       6.877  14.014  -2.674  1.00 17.70     0.181 C 
ENDBRANCH  19  30
ENDBRANCH  13  14
ENDBRANCH   6  13
BRANCH   2  32
HETATM   32  C8    D T 401       9.530  10.017   3.714  1.00 24.12     0.083 C 
HETATM   33  C15   D T 401       8.745   9.858   2.417  1.00 23.24     0.022 C 
HETATM   34  C14   D T 401       7.274   9.827   2.835  1.00 24.93     0.002 C 
HETATM   35  C13   D T 401       7.172  10.594   4.178  1.00 23.09     0.002 C 
HETATM   36  C12   D T 401       8.601  10.679   4.739  1.00 23.56     0.022 C 
ENDBRANCH   2  32
BRANCH   4  37
HETATM   37  C9    D T 401      11.849  10.364   5.871  1.00 25.78     0.032 C 
HETATM   38  C10   D T 401      11.711   9.038   6.600  1.00 24.04     0.003 C 
ENDBRANCH   4  37
TORSDOF 7
ENDMDL
MODEL 5
REMARK VINA RESULT:    -7.948      4.016     10.832
REMARK INTER + INTRA:         -12.507
REMARK INTER:                 -11.108
REMARK INTRA:                  -1.400
REMARK UNBOUND:                -1.307
REMARK  7 active torsions:
REMARK  status: ('A' for Active; 'I' for Inactive)
REMARK    1  A    between atoms: N3_2  and  C8_7 
REMARK    2  A    between atoms: C5_4  and  C9_34 
REMARK    3  A    between atoms: C7_6  and  N5_28 
REMARK       I    between atoms: C21_13  and  N6_18 
REMARK    4  A    between atoms: C21_13  and  C18_23 
REMARK    5  A    between atoms: C22_14  and  N6_18 
REMARK    6  A    between atoms: C16_24  and  O3_25 
REMARK    7  A    between atoms: N5_28  and  C1_29 
ROOT
HETATM    1  N1    D T 401      10.310  12.861   1.144  1.00 24.43    -0.056 NA
HETATM    2  N3    D T 401      12.333  11.420   4.501  1.00 24.87    -0.328 N 
HETATM    3  C4    D T 401      11.382  13.562   1.550  1.00 24.33     0.138 A 
HETATM    4  C5    D T 401      13.522  12.132   5.044  1.00 24.68     0.162 A 
HETATM    5  C6    D T 401      13.949  13.338   4.280  1.00 25.06     0.258 A 
HETATM    6  C1    D T 401       9.891  11.734   1.781  1.00 24.96     0.752 A 
HETATM    7  N2    D T 401      10.556  11.270   2.869  1.00 25.42    -0.041 NA
HETATM    8  C2    D T 401      11.649  11.907   3.357  1.00 24.50     0.176 A 
HETATM    9  O1    D T 401      14.951  13.969   4.701  1.00 25.29    -0.270 OA
HETATM   10  N4    D T 401      13.239  13.824   3.149  1.00 24.77    -0.292 N 
HETATM   11  C11   D T 401      13.700  15.045   2.468  1.00 25.67     0.134 C 
HETATM   12  C3    D T 401      12.105  13.136   2.665  1.00 24.44     0.117 A 
ENDROOT
BRANCH   6  13
HETATM   13  N5    D T 401       8.795  11.111   1.280  1.00 24.95    -0.057 NA
BRANCH  13  14
HETATM   14  C7    D T 401       7.593  11.644   0.917  1.00 25.44     0.122 A 
HETATM   15  C20   D T 401       7.256  12.004  -0.395  1.00 23.96     0.022 A 
HETATM   16  C19   D T 401       6.001  12.556  -0.674  1.00 24.92     0.006 A 
HETATM   17  C18   D T 401       5.055  12.764   0.338  1.00 25.62     0.060 A 
HETATM   18  C17   D T 401       5.354  12.427   1.657  1.00 25.49     0.030 A 
HETATM   19  C16   D T 401       6.588  11.873   1.992  1.00 24.16     0.113 A 
BRANCH  17  20
HETATM   20  C21   D T 401       3.709  13.365   0.041  1.00 26.92     0.275 C 
HETATM   21  O2    D T 401       3.679  14.411  -0.589  1.00 30.54    -0.266 OA
HETATM   22  N6    D T 401       2.593  12.765   0.462  1.00 31.16    -0.236 NA
BRANCH  22  23
HETATM   23  C22   D T 401       1.295  13.418   0.399  1.00 34.88     0.111 C 
HETATM   24  C29   D T 401       0.580  13.098  -0.912  1.00 36.76     0.048 C 
HETATM   25  C28   D T 401      -0.742  13.864  -0.998  1.00 38.21     0.099 C 
HETATM   26  N7    D T 401      -1.503  13.557   0.213  1.00 37.76    -0.367 N 
HETATM   27  C24   D T 401      -0.924  13.750   1.543  1.00 37.52     0.099 C 
HETATM   28  C30   D T 401      -2.870  13.064   0.099  1.00 36.85     0.121 C 
HETATM   29  C23   D T 401       0.403  12.989   1.562  1.00 35.87     0.048 C 
ENDBRANCH  22  23
ENDBRANCH  17  20
BRANCH  19  30
HETATM   30  O3    D T 401       6.879  11.534   3.291  1.00 24.11    -0.327 OA
HETATM   31  C31   D T 401       6.156  10.508   3.975  1.00 17.70     0.181 C 
ENDBRANCH  19  30
ENDBRANCH  13  14
ENDBRANCH   6  13
BRANCH   2  32
HETATM   32  C8    D T 401      11.800  10.163   5.091  1.00 24.12     0.083 C 
HETATM   33  C15   D T 401      10.842  10.316   6.266  1.00 23.24     0.022 C 
HETATM   34  C14   D T 401      10.987   9.029   7.079  1.00 24.93     0.002 C 
HETATM   35  C13   D T 401      12.404   8.473   6.790  1.00 23.09     0.002 C 
HETATM   36  C12   D T 401      12.895   9.175   5.513  1.00 23.56     0.022 C 
ENDBRANCH   2  32
BRANCH   4  37
HETATM   37  C9    D T 401      13.234  12.654   6.464  1.00 25.78     0.032 C 
HETATM   38  C10   D T 401      14.079  11.981   7.533  1.00 24.04     0.003 C 
ENDBRANCH   4  37
TORSDOF 7
ENDMDL
MODEL 6
REMARK VINA RESULT:    -7.934      3.490      7.554
REMARK INTER + INTRA:         -12.487
REMARK INTER:                 -10.852
REMARK INTRA:                  -1.635
REMARK UNBOUND:                -1.307
REMARK  7 active torsions:
REMARK  status: ('A' for Active; 'I' for Inactive)
REMARK    1  A    between atoms: N3_2  and  C8_7 
REMARK    2  A    between atoms: C5_4  and  C9_34 
REMARK    3  A    between atoms: C7_6  and  N5_28 
REMARK       I    between atoms: C21_13  and  N6_18 
REMARK    4  A    between atoms: C21_13  and  C18_23 
REMARK    5  A    between atoms: C22_14  and  N6_18 
REMARK    6  A    between atoms: C16_24  and  O3_25 
REMARK    7  A    between atoms: N5_28  and  C1_29 
ROOT
HETATM    1  N1    D T 401       2.127  15.178  -2.141  1.00 24.43    -0.056 NA
HETATM    2  N3    D T 401       4.001  13.232   1.043  1.00 24.87    -0.328 N 
HETATM    3  C4    D T 401       1.327  14.677  -1.184  1.00 24.33     0.138 A 
HETATM    4  C5    D T 401       3.207  12.625   2.146  1.00 24.68     0.162 A 
HETATM    5  C6    D T 401       1.732  12.811   2.048  1.00 25.06     0.258 A 
HETATM    6  C1    D T 401       3.481  15.068  -2.091  1.00 24.96     0.752 A 
HETATM    7  N2    D T 401       4.084  14.436  -1.051  1.00 25.42    -0.041 NA
HETATM    8  C2    D T 401       3.364  13.897  -0.037  1.00 24.50     0.176 A 
HETATM    9  O1    D T 401       1.021  12.319   2.961  1.00 25.29    -0.270 OA
HETATM   10  N4    D T 401       1.109  13.463   0.949  1.00 24.77    -0.292 N 
HETATM   11  C11   D T 401      -0.358  13.576   0.904  1.00 25.67     0.134 C 
HETATM   12  C3    D T 401       1.888  14.015  -0.091  1.00 24.44     0.117 A 
ENDROOT
BRANCH   6  13
HETATM   13  N5    D T 401       4.186  15.612  -3.115  1.00 24.95    -0.057 NA
BRANCH  13  14
HETATM   14  C7    D T 401       5.514  15.497  -3.402  1.00 25.44     0.122 A 
HETATM   15  C20   D T 401       6.052  14.534  -4.267  1.00 23.96     0.022 A 
HETATM   16  C19   D T 401       7.432  14.483  -4.494  1.00 24.92     0.006 A 
HETATM   17  C18   D T 401       8.307  15.383  -3.871  1.00 25.62     0.060 A 
HETATM   18  C17   D T 401       7.813  16.350  -2.998  1.00 25.49     0.030 A 
HETATM   19  C16   D T 401       6.448  16.447  -2.736  1.00 24.16     0.113 A 
BRANCH  17  20
HETATM   20  C21   D T 401       9.791  15.323  -4.107  1.00 26.92     0.275 C 
HETATM   21  O2    D T 401      10.180  14.899  -5.185  1.00 30.54    -0.266 OA
HETATM   22  N6    D T 401      10.642  15.721  -3.159  1.00 31.16    -0.236 NA
BRANCH  22  23
HETATM   23  C22   D T 401      12.072  15.471  -3.252  1.00 34.88     0.111 C 
HETATM   24  C29   D T 401      12.826  16.733  -3.665  1.00 36.76     0.048 C 
HETATM   25  C28   D T 401      14.315  16.429  -3.845  1.00 38.21     0.099 C 
HETATM   26  N7    D T 401      14.784  15.805  -2.606  1.00 37.76    -0.367 N 
HETATM   27  C24   D T 401      14.119  14.627  -2.050  1.00 37.52     0.099 C 
HETATM   28  C30   D T 401      15.946  16.355  -1.918  1.00 36.85     0.121 C 
HETATM   29  C23   D T 401      12.635  14.978  -1.920  1.00 35.87     0.048 C 
ENDBRANCH  22  23
ENDBRANCH  17  20
BRANCH  19  30
HETATM   30  O3    D T 401       5.960  17.406  -1.881  1.00 24.11    -0.327 OA
HETATM   31  C31   D T 401       6.040  17.250  -0.462  1.00 17.70     0.181 C 
ENDBRANCH  19  30
ENDBRANCH  13  14
ENDBRANCH   6  13
BRANCH   2  32
HETATM   32  C8    D T 401       5.488  13.203   1.002  1.00 24.12     0.083 C 
HETATM   33  C15   D T 401       6.127  12.009   0.303  1.00 23.24     0.022 C 
HETATM   34  C14   D T 401       7.500  11.844   0.954  1.00 24.93     0.002 C 
HETATM   35  C13   D T 401       7.398  12.448   2.378  1.00 23.09     0.002 C 
HETATM   36  C12   D T 401       6.139  13.331   2.386  1.00 23.56     0.022 C 
ENDBRANCH   2  32
BRANCH   4  37
HETATM   37  C9    D T 401       3.404  11.098   2.174  1.00 25.78     0.032 C 
HETATM   38  C10   D T 401       4.006  10.595   3.476  1.00 24.04     0.003 C 
ENDBRANCH   4  37
TORSDOF 7
ENDMDL
MODEL 7
REMARK VINA RESULT:    -7.887      1.631      2.023
REMARK INTER + INTRA:         -12.421
REMARK INTER:                 -11.017
REMARK INTRA:                  -1.404
REMARK UNBOUND:                -1.307
REMARK  7 active torsions:
REMARK  status: ('A' for Active; 'I' for Inactive)
REMARK    1  A    between atoms: N3_2  and  C8_7 
REMARK    2  A    between atoms: C5_4  and  C9_34 
REMARK    3  A    between atoms: C7_6  and  N5_28 
REMARK       I    between atoms: C21_13  and  N6_18 
REMARK    4  A    between atoms: C21_13  and  C18_23 
REMARK    5  A    between atoms: C22_14  and  N6_18 
REMARK    6  A    between atoms: C16_24  and  O3_25 
REMARK    7  A    between atoms: N5_28  and  C1_29 
ROOT
HETATM    1  N1    D T 401       3.362  16.391  -1.767  1.00 24.43    -0.056 NA
HETATM    2  N3    D T 401       6.712  16.755  -4.232  1.00 24.87    -0.328 N 
HETATM    3  C4    D T 401       3.253  17.225  -2.814  1.00 24.33     0.138 A 
HETATM    4  C5    D T 401       6.703  17.665  -5.410  1.00 24.68     0.162 A 
HETATM    5  C6    D T 401       5.418  18.377  -5.657  1.00 25.06     0.258 A 
HETATM    6  C1    D T 401       4.498  15.690  -1.508  1.00 24.96     0.752 A 
HETATM    7  N2    D T 401       5.582  15.811  -2.315  1.00 25.42    -0.041 NA
HETATM    8  C2    D T 401       5.572  16.627  -3.397  1.00 24.50     0.176 A 
HETATM    9  O1    D T 401       5.363  19.155  -6.643  1.00 25.29    -0.270 OA
HETATM   10  N4    D T 401       4.291  18.254  -4.798  1.00 24.77    -0.292 N 
HETATM   11  C11   D T 401       3.067  19.018  -5.087  1.00 25.67     0.134 C 
HETATM   12  C3    D T 401       4.334  17.393  -3.679  1.00 24.44     0.117 A 
ENDROOT
BRANCH   6  13
HETATM   13  N5    D T 401       4.492  14.879  -0.419  1.00 24.95    -0.057 NA
BRANCH  13  14
HETATM   14  C7    D T 401       5.512  14.148   0.115  1.00 25.44     0.122 A 
HETATM   15  C20   D T 401       6.679  14.704   0.656  1.00 23.96     0.022 A 
HETATM   16  C19   D T 401       7.681  13.874   1.173  1.00 24.92     0.006 A 
HETATM   17  C18   D T 401       7.548  12.480   1.165  1.00 25.62     0.060 A 
HETATM   18  C17   D T 401       6.406  11.887   0.630  1.00 25.49     0.030 A 
HETATM   19  C16   D T 401       5.377  12.665   0.102  1.00 24.16     0.113 A 
BRANCH  17  20
HETATM   20  C21   D T 401       8.627  11.588   1.713  1.00 26.92     0.275 C 
HETATM   21  O2    D T 401       8.828  10.523   1.148  1.00 30.54    -0.266 OA
HETATM   22  N6    D T 401       9.332  11.959   2.784  1.00 31.16    -0.236 NA
BRANCH  22  23
HETATM   23  C22   D T 401      10.219  11.041   3.480  1.00 34.88     0.111 C 
HETATM   24  C29   D T 401      11.433  11.773   4.050  1.00 36.76     0.048 C 
HETATM   25  C28   D T 401      12.398  10.778   4.700  1.00 38.21     0.099 C 
HETATM   26  N7    D T 401      11.630  10.000   5.674  1.00 37.76    -0.367 N 
HETATM   27  C24   D T 401      10.406   9.298   5.289  1.00 37.52     0.099 C 
HETATM   28  C30   D T 401      12.099   9.908   7.051  1.00 36.85     0.121 C 
HETATM   29  C23   D T 401       9.495  10.331   4.622  1.00 35.87     0.048 C 
ENDBRANCH  22  23
ENDBRANCH  17  20
BRANCH  19  30
HETATM   30  O3    D T 401       4.249  12.080  -0.420  1.00 24.11    -0.327 OA
HETATM   31  C31   D T 401       3.070  11.899   0.368  1.00 17.70     0.181 C 
ENDBRANCH  19  30
ENDBRANCH  13  14
ENDBRANCH   6  13
BRANCH   2  32
HETATM   32  C8    D T 401       7.883  15.914  -3.866  1.00 24.12     0.083 C 
HETATM   33  C15   D T 401       8.992  16.599  -3.075  1.00 23.24     0.022 C 
HETATM   34  C14   D T 401      10.268  15.827  -3.412  1.00 24.93     0.002 C 
HETATM   35  C13   D T 401      10.050  15.185  -4.806  1.00 23.09     0.002 C 
HETATM   36  C12   D T 401       8.535  15.218  -5.067  1.00 23.56     0.022 C 
ENDBRANCH   2  32
BRANCH   4  37
HETATM   37  C9    D T 401       7.740  18.790  -5.227  1.00 25.78     0.032 C 
HETATM   38  C10   D T 401       8.886  18.716  -6.222  1.00 24.04     0.003 C 
ENDBRANCH   4  37
TORSDOF 7
ENDMDL
MODEL 8
REMARK VINA RESULT:    -7.816      4.005      6.963
REMARK INTER + INTRA:         -12.321
REMARK INTER:                 -10.654
REMARK INTRA:                  -1.667
REMARK UNBOUND:                -1.307
REMARK  7 active torsions:
REMARK  status: ('A' for Active; 'I' for Inactive)
REMARK    1  A    between atoms: N3_2  and  C8_7 
REMARK    2  A    between atoms: C5_4  and  C9_34 
REMARK    3  A    between atoms: C7_6  and  N5_28 
REMARK       I    between atoms: C21_13  and  N6_18 
REMARK    4  A    between atoms: C21_13  and  C18_23 
REMARK    5  A    between atoms: C22_14  and  N6_18 
REMARK    6  A    between atoms: C16_24  and  O3_25 
REMARK    7  A    between atoms: N5_28  and  C1_29 
ROOT
HETATM    1  N1    D T 401       6.579  19.102  -6.084  1.00 24.43    -0.056 NA
HETATM    2  N3    D T 401      10.179  18.474  -4.063  1.00 24.87    -0.328 N 
HETATM    3  C4    D T 401       7.495  20.081  -6.164  1.00 24.33     0.138 A 
HETATM    4  C5    D T 401      11.254  19.503  -4.073  1.00 24.68     0.162 A 
HETATM    5  C6    D T 401      10.967  20.719  -4.885  1.00 25.06     0.258 A 
HETATM    6  C1    D T 401       6.796  17.955  -5.384  1.00 24.96     0.752 A 
HETATM    7  N2    D T 401       7.970  17.757  -4.732  1.00 25.42    -0.041 NA
HETATM    8  C2    D T 401       8.958  18.685  -4.753  1.00 24.50     0.176 A 
HETATM    9  O1    D T 401      11.849  21.614  -4.925  1.00 25.29    -0.270 OA
HETATM   10  N4    D T 401       9.729  20.924  -5.554  1.00 24.77    -0.292 N 
HETATM   11  C11   D T 401       9.504  22.169  -6.306  1.00 25.67     0.134 C 
HETATM   12  C3    D T 401       8.721  19.936  -5.513  1.00 24.44     0.117 A 
ENDROOT
BRANCH   6  13
HETATM   13  N5    D T 401       5.796  17.038  -5.373  1.00 24.95    -0.057 NA
BRANCH  13  14
HETATM   14  C7    D T 401       5.171  16.461  -4.307  1.00 25.44     0.122 A 
HETATM   15  C20   D T 401       4.197  17.097  -3.526  1.00 23.96     0.022 A 
HETATM   16  C19   D T 401       3.616  16.430  -2.441  1.00 24.92     0.006 A 
HETATM   17  C18   D T 401       3.987  15.121  -2.108  1.00 25.62     0.060 A 
HETATM   18  C17   D T 401       4.957  14.456  -2.854  1.00 25.49     0.030 A 
HETATM   19  C16   D T 401       5.568  15.071  -3.944  1.00 24.16     0.113 A 
BRANCH  17  20
HETATM   20  C21   D T 401       3.370  14.407  -0.937  1.00 26.92     0.275 C 
HETATM   21  O2    D T 401       2.237  14.723  -0.609  1.00 30.54    -0.266 OA
HETATM   22  N6    D T 401       4.053  13.462  -0.286  1.00 31.16    -0.236 NA
BRANCH  22  23
HETATM   23  C22   D T 401       3.592  12.911   0.978  1.00 34.88     0.111 C 
HETATM   24  C29   D T 401       2.664  11.718   0.754  1.00 36.76     0.048 C 
HETATM   25  C28   D T 401       2.120  11.209   2.091  1.00 38.21     0.099 C 
HETATM   26  N7    D T 401       3.269  10.944   2.957  1.00 37.76    -0.367 N 
HETATM   27  C24   D T 401       4.280  11.970   3.212  1.00 37.52     0.099 C 
HETATM   28  C30   D T 401       3.407   9.639   3.591  1.00 36.85     0.121 C 
HETATM   29  C23   D T 401       4.766  12.462   1.846  1.00 35.87     0.048 C 
ENDBRANCH  22  23
ENDBRANCH  17  20
BRANCH  19  30
HETATM   30  O3    D T 401       6.520  14.412  -4.684  1.00 24.11    -0.327 OA
HETATM   31  C31   D T 401       7.841  14.199  -4.181  1.00 17.70     0.181 C 
ENDBRANCH  19  30
ENDBRANCH  13  14
ENDBRANCH   6  13
BRANCH   2  32
HETATM   32  C8    D T 401      10.311  17.169  -3.360  1.00 24.12     0.083 C 
HETATM   33  C15   D T 401      10.057  17.177  -1.857  1.00 23.24     0.022 C 
HETATM   34  C14   D T 401      10.874  16.010  -1.302  1.00 24.93     0.002 C 
HETATM   35  C13   D T 401      12.045  15.772  -2.289  1.00 23.09     0.002 C 
HETATM   36  C12   D T 401      11.663  16.483  -3.597  1.00 23.56     0.022 C 
ENDBRANCH   2  32
BRANCH   4  37
HETATM   37  C9    D T 401      11.501  20.037  -2.649  1.00 25.78     0.032 C 
HETATM   38  C10   D T 401      12.875  19.680  -2.105  1.00 24.04     0.003 C 
ENDBRANCH   4  37
TORSDOF 7
ENDMDL
MODEL 9
REMARK VINA RESULT:    -7.709      1.465      1.933
REMARK INTER + INTRA:         -12.170
REMARK INTER:                 -10.726
REMARK INTRA:                  -1.444
REMARK UNBOUND:                -1.307
REMARK  7 active torsions:
REMARK  status: ('A' for Active; 'I' for Inactive)
REMARK    1  A    between atoms: N3_2  and  C8_7 
REMARK    2  A    between atoms: C5_4  and  C9_34 
REMARK    3  A    between atoms: C7_6  and  N5_28 
REMARK       I    between atoms: C21_13  and  N6_18 
REMARK    4  A    between atoms: C21_13  and  C18_23 
REMARK    5  A    between atoms: C22_14  and  N6_18 
REMARK    6  A    between atoms: C16_24  and  O3_25 
REMARK    7  A    between atoms: N5_28  and  C1_29 
ROOT
HETATM    1  N1    D T 401       3.919  13.860  -0.523  1.00 24.43    -0.056 NA
HETATM    2  N3    D T 401       6.035  15.651  -3.646  1.00 24.87    -0.328 N 
HETATM    3  C4    D T 401       3.381  14.968  -1.060  1.00 24.33     0.138 A 
HETATM    4  C5    D T 401       5.536  16.892  -4.299  1.00 24.68     0.162 A 
HETATM    5  C6    D T 401       4.228  17.398  -3.793  1.00 25.06     0.258 A 
HETATM    6  C1    D T 401       5.093  13.333  -0.963  1.00 24.96     0.752 A 
HETATM    7  N2    D T 401       5.774  13.919  -1.980  1.00 25.42    -0.041 NA
HETATM    8  C2    D T 401       5.314  15.040  -2.588  1.00 24.50     0.176 A 
HETATM    9  O1    D T 401       3.766  18.443  -4.318  1.00 25.29    -0.270 OA
HETATM   10  N4    D T 401       3.529  16.785  -2.718  1.00 24.77    -0.292 N 
HETATM   11  C11   D T 401       2.260  17.365  -2.250  1.00 25.67     0.134 C 
HETATM   12  C3    D T 401       4.035  15.617  -2.108  1.00 24.44     0.117 A 
ENDROOT
BRANCH   6  13
HETATM   13  N5    D T 401       5.540  12.212  -0.343  1.00 24.95    -0.057 NA
BRANCH  13  14
HETATM   14  C7    D T 401       6.568  12.070   0.542  1.00 25.44     0.122 A 
HETATM   15  C20   D T 401       7.913  11.942   0.172  1.00 23.96     0.022 A 
HETATM   16  C19   D T 401       8.903  11.790   1.150  1.00 24.92     0.006 A 
HETATM   17  C18   D T 401       8.581  11.761   2.513  1.00 25.62     0.060 A 
HETATM   18  C17   D T 401       7.254  11.877   2.923  1.00 25.49     0.030 A 
HETATM   19  C16   D T 401       6.229  12.032   1.993  1.00 24.16     0.113 A 
BRANCH  17  20
HETATM   20  C21   D T 401       9.642  11.588   3.565  1.00 26.92     0.275 C 
HETATM   21  O2    D T 401       9.804  12.496   4.366  1.00 30.54    -0.266 OA
HETATM   22  N6    D T 401      10.377  10.474   3.606  1.00 31.16    -0.236 NA
BRANCH  22  23
HETATM   23  C22   D T 401      11.555  10.358   4.450  1.00 34.88     0.111 C 
HETATM   24  C29   D T 401      11.293   9.437   5.640  1.00 36.76     0.048 C 
HETATM   25  C28   D T 401      12.512   9.399   6.564  1.00 38.21     0.099 C 
HETATM   26  N7    D T 401      13.669   9.036   5.743  1.00 37.76    -0.367 N 
HETATM   27  C24   D T 401      14.007   9.787   4.534  1.00 37.52     0.099 C 
HETATM   28  C30   D T 401      14.511   7.915   6.142  1.00 36.85     0.121 C 
HETATM   29  C23   D T 401      12.748   9.817   3.665  1.00 35.87     0.048 C 
ENDBRANCH  22  23
ENDBRANCH  17  20
BRANCH  19  30
HETATM   30  O3    D T 401       4.922  12.154   2.397  1.00 24.11    -0.327 OA
HETATM   31  C31   D T 401       4.379  11.325   3.428  1.00 17.70     0.181 C 
ENDBRANCH  19  30
ENDBRANCH  13  14
ENDBRANCH   6  13
BRANCH   2  32
HETATM   32  C8    D T 401       7.288  14.965  -4.060  1.00 24.12     0.083 C 
HETATM   33  C15   D T 401       8.573  15.425  -3.380  1.00 23.24     0.022 C 
HETATM   34  C14   D T 401       9.691  15.125  -4.379  1.00 24.93     0.002 C 
HETATM   35  C13   D T 401       9.047  15.130  -5.788  1.00 23.09     0.002 C 
HETATM   36  C12   D T 401       7.530  14.996  -5.574  1.00 23.56     0.022 C 
ENDBRANCH   2  32
BRANCH   4  37
HETATM   37  C9    D T 401       6.518  18.056  -4.065  1.00 25.78     0.032 C 
HETATM   38  C10   D T 401       7.167  18.559  -5.344  1.00 24.04     0.003 C 
ENDBRANCH   4  37
TORSDOF 7
ENDMDL
