MODEL 1
REMARK VINA RESULT:    -8.389      0.000      0.000
REMARK INTER + INTRA:         -13.018
REMARK INTER:                 -11.822
REMARK INTRA:                  -1.196
REMARK UNBOUND:                -1.196
REMARK  7 active torsions:
REMARK  status: ('A' for Active; 'I' for Inactive)
REMARK    1  A    between atoms: N3_2  and  C8_7 
REMARK    2  A    between atoms: C5_4  and  C9_34 
REMARK    3  A    between atoms: C7_6  and  N5_28 
REMARK       I    between atoms: C21_13  and  N6_18 
REMARK    4  A    between atoms: C21_13  and  C18_23 
REMARK    5  A    between atoms: C22_14  and  N6_18 
REMARK    6  A    between atoms: C16_24  and  O3_25 
REMARK    7  A    between atoms: N5_28  and  C1_29 
ROOT
HETATM    1  N1    D T 401       7.920   2.180  -2.166  1.00 24.43    -0.056 NA
HETATM    2  N3    D T 401       7.185   3.088  -6.175  1.00 24.87    -0.328 N 
HETATM    3  C4    D T 401       7.917   1.150  -3.027  1.00 24.33     0.138 A 
HETATM    4  C5    D T 401       7.142   2.018  -7.208  1.00 24.68     0.162 A 
HETATM    5  C6    D T 401       7.425   0.641  -6.714  1.00 25.06     0.258 A 
HETATM    6  C1    D T 401       7.700   3.463  -2.561  1.00 24.96     0.752 A 
HETATM    7  N2    D T 401       7.463   3.751  -3.866  1.00 25.42    -0.041 NA
HETATM    8  C2    D T 401       7.440   2.781  -4.813  1.00 24.50     0.176 A 
HETATM    9  O1    D T 401       7.402  -0.295  -7.554  1.00 25.29    -0.270 OA
HETATM   10  N4    D T 401       7.658   0.348  -5.343  1.00 24.77    -0.292 N 
HETATM   11  C11   D T 401       7.895  -1.044  -4.926  1.00 25.67     0.134 C 
HETATM   12  C3    D T 401       7.679   1.383  -4.383  1.00 24.44     0.117 A 
ENDROOT
BRANCH   6  13
HETATM   13  N5    D T 401       7.726   4.421  -1.600  1.00 24.95    -0.057 NA
BRANCH  13  14
HETATM   14  C7    D T 401       8.768   5.199  -1.190  1.00 25.44     0.122 A 
HETATM   15  C20   D T 401       9.247   6.311  -1.896  1.00 23.96     0.022 A 
HETATM   16  C19   D T 401      10.333   7.046  -1.404  1.00 24.92     0.006 A 
HETATM   17  C18   D T 401      10.964   6.694  -0.204  1.00 25.62     0.060 A 
HETATM   18  C17   D T 401      10.525   5.592   0.525  1.00 25.49     0.030 A 
HETATM   19  C16   D T 401       9.449   4.824   0.082  1.00 24.16     0.113 A 
BRANCH  17  20
HETATM   20  C21   D T 401      12.136   7.478   0.321  1.00 26.92     0.275 C 
HETATM   21  O2    D T 401      12.528   7.228   1.451  1.00 30.54    -0.266 OA
HETATM   22  N6    D T 401      12.716   8.414  -0.433  1.00 31.16    -0.236 NA
BRANCH  22  23
HETATM   23  C22   D T 401      13.693   9.346   0.107  1.00 34.88     0.111 C 
HETATM   24  C29   D T 401      15.013   8.644   0.416  1.00 36.76     0.048 C 
HETATM   25  C28   D T 401      15.996   9.620   1.067  1.00 38.21     0.099 C 
HETATM   26  N7    D T 401      16.104  10.783   0.184  1.00 37.76    -0.367 N 
HETATM   27  C24   D T 401      14.917  11.518  -0.252  1.00 37.52     0.099 C 
HETATM   28  C30   D T 401      17.419  11.229  -0.259  1.00 36.85     0.121 C 
HETATM   29  C23   D T 401      13.962  10.492  -0.866  1.00 35.87     0.048 C 
ENDBRANCH  22  23
ENDBRANCH  17  20
BRANCH  19  30
HETATM   30  O3    D T 401       9.010   3.741   0.804  1.00 24.11    -0.327 OA
HETATM   31  C31   D T 401       9.775   2.536   0.878  1.00 17.70     0.181 C 
ENDBRANCH  19  30
ENDBRANCH  13  14
ENDBRANCH   6  13
BRANCH   2  32
HETATM   32  C8    D T 401       6.991   4.529  -6.489  1.00 24.12     0.083 C 
HETATM   33  C15   D T 401       5.551   5.027  -6.537  1.00 23.24     0.022 C 
HETATM   34  C14   D T 401       5.566   6.223  -7.490  1.00 24.93     0.002 C 
HETATM   35  C13   D T 401       6.764   6.018  -8.449  1.00 23.09     0.002 C 
HETATM   36  C12   D T 401       7.674   4.967  -7.791  1.00 23.56     0.022 C 
ENDBRANCH   2  32
BRANCH   4  37
HETATM   37  C9    D T 401       5.734   1.926  -7.827  1.00 25.78     0.032 C 
HETATM   38  C10   D T 401       5.671   2.443  -9.256  1.00 24.04     0.003 C 
ENDBRANCH   4  37
TORSDOF 7
ENDMDL
MODEL 2
REMARK VINA RESULT:    -8.102      2.784     10.549
REMARK INTER + INTRA:         -12.614
REMARK INTER:                 -11.455
REMARK INTRA:                  -1.159
REMARK UNBOUND:                -1.196
REMARK  7 active torsions:
REMARK  status: ('A' for Active; 'I' for Inactive)
REMARK    1  A    between atoms: N3_2  and  C8_7 
REMARK    2  A    between atoms: C5_4  and  C9_34 
REMARK    3  A    between atoms: C7_6  and  N5_28 
REMARK       I    between atoms: C21_13  and  N6_18 
REMARK    4  A    between atoms: C21_13  and  C18_23 
REMARK    5  A    between atoms: C22_14  and  N6_18 
REMARK    6  A    between atoms: C16_24  and  O3_25 
REMARK    7  A    between atoms: N5_28  and  C1_29 
ROOT
HETATM    1  N1    D T 401      12.154   6.922   0.797  1.00 24.43    -0.056 NA
HETATM    2  N3    D T 401      10.841  10.837   0.174  1.00 24.87    -0.328 N 
HETATM    3  C4    D T 401      13.031   7.902   1.064  1.00 24.33     0.138 A 
HETATM    4  C5    D T 401      11.740  11.996   0.423  1.00 24.68     0.162 A 
HETATM    5  C6    D T 401      13.092  11.655   0.946  1.00 25.06     0.258 A 
HETATM    6  C1    D T 401      10.895   7.172   0.347  1.00 24.96     0.752 A 
HETATM    7  N2    D T 401      10.474   8.447   0.149  1.00 25.42    -0.041 NA
HETATM    8  C2    D T 401      11.284   9.506   0.391  1.00 24.50     0.176 A 
HETATM    9  O1    D T 401      13.885  12.604   1.174  1.00 25.29    -0.270 OA
HETATM   10  N4    D T 401      13.529  10.315   1.138  1.00 24.77    -0.292 N 
HETATM   11  C11   D T 401      14.893  10.056   1.624  1.00 25.67     0.134 C 
HETATM   12  C3    D T 401      12.657   9.235   0.879  1.00 24.44     0.117 A 
ENDROOT
BRANCH   6  13
HETATM   13  N5    D T 401      10.097   6.099   0.110  1.00 24.95    -0.057 NA
BRANCH  13  14
HETATM   14  C7    D T 401       9.871   5.439  -1.061  1.00 25.44     0.122 A 
HETATM   15  C20   D T 401      10.035   6.008  -2.332  1.00 23.96     0.022 A 
HETATM   16  C19   D T 401       9.768   5.257  -3.482  1.00 24.92     0.006 A 
HETATM   17  C18   D T 401       9.335   3.928  -3.398  1.00 25.62     0.060 A 
HETATM   18  C17   D T 401       9.153   3.326  -2.155  1.00 25.49     0.030 A 
HETATM   19  C16   D T 401       9.403   4.027  -0.977  1.00 24.16     0.113 A 
BRANCH  17  20
HETATM   20  C21   D T 401       9.040   3.121  -4.633  1.00 26.92     0.275 C 
HETATM   21  O2    D T 401       9.978   2.585  -5.201  1.00 30.54    -0.266 OA
HETATM   22  N6    D T 401       7.788   3.008  -5.083  1.00 31.16    -0.236 NA
BRANCH  22  23
HETATM   23  C22   D T 401       7.483   2.437  -6.385  1.00 34.88     0.111 C 
HETATM   24  C29   D T 401       7.232   0.934  -6.284  1.00 36.76     0.048 C 
HETATM   25  C28   D T 401       7.003   0.337  -7.675  1.00 38.21     0.099 C 
HETATM   26  N7    D T 401       5.929   1.105  -8.307  1.00 37.76    -0.367 N 
HETATM   27  C24   D T 401       6.000   2.562  -8.417  1.00 37.52     0.099 C 
HETATM   28  C30   D T 401       4.772   0.407  -8.852  1.00 36.85     0.121 C 
HETATM   29  C23   D T 401       6.256   3.100  -7.008  1.00 35.87     0.048 C 
ENDBRANCH  22  23
ENDBRANCH  17  20
BRANCH  19  30
HETATM   30  O3    D T 401       9.230   3.432   0.249  1.00 24.11    -0.327 OA
HETATM   31  C31   D T 401      10.154   2.458   0.742  1.00 17.70     0.181 C 
ENDBRANCH  19  30
ENDBRANCH  13  14
ENDBRANCH   6  13
BRANCH   2  32
HETATM   32  C8    D T 401       9.434  10.984  -0.287  1.00 24.12     0.083 C 
HETATM   33  C15   D T 401       9.186  10.800  -1.780  1.00 23.24     0.022 C 
HETATM   34  C14   D T 401       7.937  11.627  -2.090  1.00 24.93     0.002 C 
HETATM   35  C13   D T 401       7.865  12.747  -1.022  1.00 23.09     0.002 C 
HETATM   36  C12   D T 401       8.792  12.314   0.127  1.00 23.56     0.022 C 
ENDBRANCH   2  32
BRANCH   4  37
HETATM   37  C9    D T 401      12.012  12.756  -0.889  1.00 25.78     0.032 C 
HETATM   38  C10   D T 401      12.693  11.901  -1.947  1.00 24.04     0.003 C 
ENDBRANCH   4  37
TORSDOF 7
ENDMDL
MODEL 3
REMARK VINA RESULT:    -8.049      2.256      3.253
REMARK INTER + INTRA:         -12.539
REMARK INTER:                 -11.646
REMARK INTRA:                  -0.893
REMARK UNBOUND:                -1.196
REMARK  7 active torsions:
REMARK  status: ('A' for Active; 'I' for Inactive)
REMARK    1  A    between atoms: N3_2  and  C8_7 
REMARK    2  A    between atoms: C5_4  and  C9_34 
REMARK    3  A    between atoms: C7_6  and  N5_28 
REMARK       I    between atoms: C21_13  and  N6_18 
REMARK    4  A    between atoms: C21_13  and  C18_23 
REMARK    5  A    between atoms: C22_14  and  N6_18 
REMARK    6  A    between atoms: C16_24  and  O3_25 
REMARK    7  A    between atoms: N5_28  and  C1_29 
ROOT
HETATM    1  N1    D T 401      10.438   4.786  -2.104  1.00 24.43    -0.056 NA
HETATM    2  N3    D T 401       8.372   3.677  -5.559  1.00 24.87    -0.328 N 
HETATM    3  C4    D T 401      10.491   3.489  -2.448  1.00 24.33     0.138 A 
HETATM    4  C5    D T 401       8.350   2.262  -6.019  1.00 24.68     0.162 A 
HETATM    5  C6    D T 401       9.147   1.310  -5.195  1.00 25.06     0.258 A 
HETATM    6  C1    D T 401       9.754   5.708  -2.833  1.00 24.96     0.752 A 
HETATM    7  N2    D T 401       9.086   5.341  -3.956  1.00 25.42    -0.041 NA
HETATM    8  C2    D T 401       9.078   4.056  -4.388  1.00 24.50     0.176 A 
HETATM    9  O1    D T 401       9.160   0.104  -5.548  1.00 25.29    -0.270 OA
HETATM   10  N4    D T 401       9.832   1.702  -4.012  1.00 24.77    -0.292 N 
HETATM   11  C11   D T 401      10.569   0.696  -3.230  1.00 25.67     0.134 C 
HETATM   12  C3    D T 401       9.823   3.050  -3.592  1.00 24.44     0.117 A 
ENDROOT
BRANCH   6  13
HETATM   13  N5    D T 401       9.772   6.990  -2.386  1.00 24.95    -0.057 NA
BRANCH  13  14
HETATM   14  C7    D T 401      10.760   7.654  -1.722  1.00 25.44     0.122 A 
HETATM   15  C20   D T 401      12.105   7.257  -1.707  1.00 23.96     0.022 A 
HETATM   16  C19   D T 401      13.051   7.996  -0.987  1.00 24.92     0.006 A 
HETATM   17  C18   D T 401      12.686   9.141  -0.269  1.00 25.62     0.060 A 
HETATM   18  C17   D T 401      11.360   9.567  -0.252  1.00 25.49     0.030 A 
HETATM   19  C16   D T 401      10.375   8.869  -0.951  1.00 24.16     0.113 A 
BRANCH  17  20
HETATM   20  C21   D T 401      13.700   9.932   0.512  1.00 26.92     0.275 C 
HETATM   21  O2    D T 401      13.858   9.650   1.689  1.00 30.54    -0.266 OA
HETATM   22  N6    D T 401      14.395  10.908  -0.078  1.00 31.16    -0.236 NA
BRANCH  22  23
HETATM   23  C22   D T 401      15.212  11.841   0.682  1.00 34.88     0.111 C 
HETATM   24  C29   D T 401      16.663  11.817   0.207  1.00 36.76     0.048 C 
HETATM   25  C28   D T 401      17.523  12.737   1.077  1.00 38.21     0.099 C 
HETATM   26  N7    D T 401      16.891  14.058   1.071  1.00 37.76    -0.367 N 
HETATM   27  C24   D T 401      15.486  14.228   1.439  1.00 37.52     0.099 C 
HETATM   28  C30   D T 401      17.678  15.229   0.708  1.00 36.85     0.121 C 
HETATM   29  C23   D T 401      14.680  13.268   0.561  1.00 35.87     0.048 C 
ENDBRANCH  22  23
ENDBRANCH  17  20
BRANCH  19  30
HETATM   30  O3    D T 401       9.069   9.292  -0.940  1.00 24.11    -0.327 OA
HETATM   31  C31   D T 401       8.732  10.676  -1.062  1.00 17.70     0.181 C 
ENDBRANCH  19  30
ENDBRANCH  13  14
ENDBRANCH   6  13
BRANCH   2  32
HETATM   32  C8    D T 401       7.689   4.779  -6.288  1.00 24.12     0.083 C 
HETATM   33  C15   D T 401       6.172   4.845  -6.154  1.00 23.24     0.022 C 
HETATM   34  C14   D T 401       5.680   5.529  -7.431  1.00 24.93     0.002 C 
HETATM   35  C13   D T 401       6.746   5.261  -8.522  1.00 23.09     0.002 C 
HETATM   36  C12   D T 401       8.021   4.818  -7.785  1.00 23.56     0.022 C 
ENDBRANCH   2  32
BRANCH   4  37
HETATM   37  C9    D T 401       6.914   1.705  -5.974  1.00 25.78     0.032 C 
HETATM   38  C10   D T 401       6.362   1.360  -7.349  1.00 24.04     0.003 C 
ENDBRANCH   4  37
TORSDOF 7
ENDMDL
MODEL 4
REMARK VINA RESULT:    -8.041      3.312      4.036
REMARK INTER + INTRA:         -12.527
REMARK INTER:                 -11.095
REMARK INTRA:                  -1.433
REMARK UNBOUND:                -1.196
REMARK  7 active torsions:
REMARK  status: ('A' for Active; 'I' for Inactive)
REMARK    1  A    between atoms: N3_2  and  C8_7 
REMARK    2  A    between atoms: C5_4  and  C9_34 
REMARK    3  A    between atoms: C7_6  and  N5_28 
REMARK       I    between atoms: C21_13  and  N6_18 
REMARK    4  A    between atoms: C21_13  and  C18_23 
REMARK    5  A    between atoms: C22_14  and  N6_18 
REMARK    6  A    between atoms: C16_24  and  O3_25 
REMARK    7  A    between atoms: N5_28  and  C1_29 
ROOT
HETATM    1  N1    D T 401       9.838   1.773  -3.108  1.00 24.43    -0.056 NA
HETATM    2  N3    D T 401       7.790   2.961  -6.548  1.00 24.87    -0.328 N 
HETATM    3  C4    D T 401       9.238   0.804  -3.818  1.00 24.33     0.138 A 
HETATM    4  C5    D T 401       7.075   1.969  -7.396  1.00 24.68     0.162 A 
HETATM    5  C6    D T 401       7.191   0.550  -6.955  1.00 25.06     0.258 A 
HETATM    6  C1    D T 401       9.795   3.081  -3.477  1.00 24.96     0.752 A 
HETATM    7  N2    D T 401       9.128   3.460  -4.597  1.00 25.42    -0.041 NA
HETATM    8  C2    D T 401       8.491   2.557  -5.382  1.00 24.50     0.176 A 
HETATM    9  O1    D T 401       6.605  -0.323  -7.645  1.00 25.29    -0.270 OA
HETATM   10  N4    D T 401       7.880   0.165  -5.773  1.00 24.77    -0.292 N 
HETATM   11  C11   D T 401       7.920  -1.254  -5.383  1.00 25.67     0.134 C 
HETATM   12  C3    D T 401       8.537   1.131  -4.980  1.00 24.44     0.117 A 
ENDROOT
BRANCH   6  13
HETATM   13  N5    D T 401      10.438   3.972  -2.679  1.00 24.95    -0.057 NA
BRANCH  13  14
HETATM   14  C7    D T 401      10.021   5.195  -2.246  1.00 25.44     0.122 A 
HETATM   15  C20   D T 401      10.164   6.382  -2.978  1.00 23.96     0.022 A 
HETATM   16  C19   D T 401       9.716   7.597  -2.447  1.00 24.92     0.006 A 
HETATM   17  C18   D T 401       9.116   7.661  -1.183  1.00 25.62     0.060 A 
HETATM   18  C17   D T 401       8.960   6.507  -0.420  1.00 25.49     0.030 A 
HETATM   19  C16   D T 401       9.389   5.270  -0.898  1.00 24.16     0.113 A 
BRANCH  17  20
HETATM   20  C21   D T 401       8.640   8.968  -0.609  1.00 26.92     0.275 C 
HETATM   21  O2    D T 401       8.229   8.969   0.541  1.00 30.54    -0.266 OA
HETATM   22  N6    D T 401       8.671  10.081  -1.346  1.00 31.16    -0.236 NA
BRANCH  22  23
HETATM   23  C22   D T 401       8.017  11.308  -0.919  1.00 34.88     0.111 C 
HETATM   24  C29   D T 401       9.038  12.407  -0.635  1.00 36.76     0.048 C 
HETATM   25  C28   D T 401       8.338  13.660  -0.102  1.00 38.21     0.099 C 
HETATM   26  N7    D T 401       7.293  14.017  -1.063  1.00 37.76    -0.367 N 
HETATM   27  C24   D T 401       6.283  13.046  -1.481  1.00 37.52     0.099 C 
HETATM   28  C30   D T 401       7.245  15.370  -1.602  1.00 36.85     0.121 C 
HETATM   29  C23   D T 401       7.036  11.810  -1.977  1.00 35.87     0.048 C 
ENDBRANCH  22  23
ENDBRANCH  17  20
BRANCH  19  30
HETATM   30  O3    D T 401       9.229   4.129  -0.149  1.00 24.11    -0.327 OA
HETATM   31  C31   D T 401       9.355   4.150   1.275  1.00 17.70     0.181 C 
ENDBRANCH  19  30
ENDBRANCH  13  14
ENDBRANCH   6  13
BRANCH   2  32
HETATM   32  C8    D T 401       7.841   4.414  -6.864  1.00 24.12     0.083 C 
HETATM   33  C15   D T 401       6.746   5.281  -6.254  1.00 23.24     0.022 C 
HETATM   34  C14   D T 401       6.593   6.471  -7.203  1.00 24.93     0.002 C 
HETATM   35  C13   D T 401       7.065   5.994  -8.599  1.00 23.09     0.002 C 
HETATM   36  C12   D T 401       7.879   4.710  -8.369  1.00 23.56     0.022 C 
ENDBRANCH   2  32
BRANCH   4  37
HETATM   37  C9    D T 401       5.561   2.252  -7.394  1.00 25.78     0.032 C 
HETATM   38  C10   D T 401       5.023   2.650  -8.760  1.00 24.04     0.003 C 
ENDBRANCH   4  37
TORSDOF 7
ENDMDL
MODEL 5
REMARK VINA RESULT:    -8.013      2.603     10.433
REMARK INTER + INTRA:         -12.489
REMARK INTER:                 -11.459
REMARK INTRA:                  -1.029
REMARK UNBOUND:                -1.196
REMARK  7 active torsions:
REMARK  status: ('A' for Active; 'I' for Inactive)
REMARK    1  A    between atoms: N3_2  and  C8_7 
REMARK    2  A    between atoms: C5_4  and  C9_34 
REMARK    3  A    between atoms: C7_6  and  N5_28 
REMARK       I    between atoms: C21_13  and  N6_18 
REMARK    4  A    between atoms: C21_13  and  C18_23 
REMARK    5  A    between atoms: C22_14  and  N6_18 
REMARK    6  A    between atoms: C16_24  and  O3_25 
REMARK    7  A    between atoms: N5_28  and  C1_29 
ROOT
HETATM    1  N1    D T 401      13.393   6.557   0.610  1.00 24.43    -0.056 NA
HETATM    2  N3    D T 401      11.653  10.343   0.334  1.00 24.87    -0.328 N 
HETATM    3  C4    D T 401      14.177   7.604   0.911  1.00 24.33     0.138 A 
HETATM    4  C5    D T 401      12.439  11.571   0.629  1.00 24.68     0.162 A 
HETATM    5  C6    D T 401      13.844  11.341   1.067  1.00 25.06     0.258 A 
HETATM    6  C1    D T 401      12.093   6.701   0.234  1.00 24.96     0.752 A 
HETATM    7  N2    D T 401      11.534   7.935   0.149  1.00 25.42    -0.041 NA
HETATM    8  C2    D T 401      12.242   9.055   0.433  1.00 24.50     0.176 A 
HETATM    9  O1    D T 401      14.545  12.351   1.330  1.00 25.29    -0.270 OA
HETATM   10  N4    D T 401      14.426  10.045   1.140  1.00 24.77    -0.292 N 
HETATM   11  C11   D T 401      15.832   9.900   1.547  1.00 25.67     0.134 C 
HETATM   12  C3    D T 401      13.658   8.898   0.841  1.00 24.44     0.117 A 
ENDROOT
BRANCH   6  13
HETATM   13  N5    D T 401      11.400   5.569  -0.047  1.00 24.95    -0.057 NA
BRANCH  13  14
HETATM   14  C7    D T 401      10.844   5.172  -1.227  1.00 25.44     0.122 A 
HETATM   15  C20   D T 401      10.305   6.050  -2.179  1.00 23.96     0.022 A 
HETATM   16  C19   D T 401       9.743   5.551  -3.360  1.00 24.92     0.006 A 
HETATM   17  C18   D T 401       9.704   4.176  -3.623  1.00 25.62     0.060 A 
HETATM   18  C17   D T 401      10.223   3.270  -2.702  1.00 25.49     0.030 A 
HETATM   19  C16   D T 401      10.793   3.710  -1.508  1.00 24.16     0.113 A 
BRANCH  17  20
HETATM   20  C21   D T 401       9.093   3.639  -4.889  1.00 26.92     0.275 C 
HETATM   21  O2    D T 401       9.533   2.590  -5.333  1.00 30.54    -0.266 OA
HETATM   22  N6    D T 401       8.105   4.300  -5.495  1.00 31.16    -0.236 NA
BRANCH  22  23
HETATM   23  C22   D T 401       7.642   3.946  -6.828  1.00 34.88     0.111 C 
HETATM   24  C29   D T 401       6.468   2.972  -6.764  1.00 36.76     0.048 C 
HETATM   25  C28   D T 401       6.056   2.541  -8.174  1.00 38.21     0.099 C 
HETATM   26  N7    D T 401       5.809   3.760  -8.947  1.00 37.76    -0.367 N 
HETATM   27  C24   D T 401       6.818   4.814  -9.044  1.00 37.52     0.099 C 
HETATM   28  C30   D T 401       4.541   3.923  -9.646  1.00 36.85     0.121 C 
HETATM   29  C23   D T 401       7.211   5.184  -7.612  1.00 35.87     0.048 C 
ENDBRANCH  22  23
ENDBRANCH  17  20
BRANCH  19  30
HETATM   30  O3    D T 401      11.311   2.817  -0.602  1.00 24.11    -0.327 OA
HETATM   31  C31   D T 401      11.706   1.501  -0.996  1.00 17.70     0.181 C 
ENDBRANCH  19  30
ENDBRANCH  13  14
ENDBRANCH   6  13
BRANCH   2  32
HETATM   32  C8    D T 401      10.217  10.371  -0.055  1.00 24.12     0.083 C 
HETATM   33  C15   D T 401       9.912  10.219  -1.540  1.00 23.24     0.022 C 
HETATM   34  C14   D T 401       8.577  10.933  -1.757  1.00 24.93     0.002 C 
HETATM   35  C13   D T 401       8.454  12.000  -0.641  1.00 23.09     0.002 C 
HETATM   36  C12   D T 401       9.474  11.617   0.444  1.00 23.56     0.022 C 
ENDBRANCH   2  32
BRANCH   4  37
HETATM   37  C9    D T 401      12.565  12.444  -0.635  1.00 25.78     0.032 C 
HETATM   38  C10   D T 401      13.136  11.693  -1.828  1.00 24.04     0.003 C 
ENDBRANCH   4  37
TORSDOF 7
ENDMDL
MODEL 6
REMARK VINA RESULT:    -7.697      6.368      8.959
REMARK INTER + INTRA:         -12.042
REMARK INTER:                 -11.243
REMARK INTRA:                  -0.800
REMARK UNBOUND:                -1.196
REMARK  7 active torsions:
REMARK  status: ('A' for Active; 'I' for Inactive)
REMARK    1  A    between atoms: N3_2  and  C8_7 
REMARK    2  A    between atoms: C5_4  and  C9_34 
REMARK    3  A    between atoms: C7_6  and  N5_28 
REMARK       I    between atoms: C21_13  and  N6_18 
REMARK    4  A    between atoms: C21_13  and  C18_23 
REMARK    5  A    between atoms: C22_14  and  N6_18 
REMARK    6  A    between atoms: C16_24  and  O3_25 
REMARK    7  A    between atoms: N5_28  and  C1_29 
ROOT
HETATM    1  N1    D T 401      10.877   9.496  -1.086  1.00 24.43    -0.056 NA
HETATM    2  N3    D T 401      10.567   5.346  -1.438  1.00 24.87    -0.328 N 
HETATM    3  C4    D T 401      11.821   8.766  -0.471  1.00 24.33     0.138 A 
HETATM    4  C5    D T 401      11.552   4.445  -0.781  1.00 24.68     0.162 A 
HETATM    5  C6    D T 401      12.655   5.130  -0.049  1.00 25.06     0.258 A 
HETATM    6  C1    D T 401       9.863   8.930  -1.795  1.00 24.96     0.752 A 
HETATM    7  N2    D T 401       9.770   7.581  -1.907  1.00 25.42    -0.041 NA
HETATM    8  C2    D T 401      10.675   6.757  -1.324  1.00 24.50     0.176 A 
HETATM    9  O1    D T 401      13.512   4.407   0.520  1.00 25.29    -0.270 OA
HETATM   10  N4    D T 401      12.736   6.544   0.074  1.00 24.77    -0.292 N 
HETATM   11  C11   D T 401      13.837   7.145   0.844  1.00 25.67     0.134 C 
HETATM   12  C3    D T 401      11.779   7.373  -0.549  1.00 24.44     0.117 A 
ENDROOT
BRANCH   6  13
HETATM   13  N5    D T 401       8.966   9.769  -2.372  1.00 24.95    -0.057 NA
BRANCH  13  14
HETATM   14  C7    D T 401       8.450  10.937  -1.893  1.00 25.44     0.122 A 
HETATM   15  C20   D T 401       8.832  11.529  -0.681  1.00 23.96     0.022 A 
HETATM   16  C19   D T 401       8.239  12.726  -0.262  1.00 24.92     0.006 A 
HETATM   17  C18   D T 401       7.258  13.360  -1.034  1.00 25.62     0.060 A 
HETATM   18  C17   D T 401       6.845  12.803  -2.242  1.00 25.49     0.030 A 
HETATM   19  C16   D T 401       7.401  11.612  -2.708  1.00 24.16     0.113 A 
BRANCH  17  20
HETATM   20  C21   D T 401       6.615  14.643  -0.581  1.00 26.92     0.275 C 
HETATM   21  O2    D T 401       5.396  14.710  -0.612  1.00 30.54    -0.266 OA
HETATM   22  N6    D T 401       7.366  15.665  -0.164  1.00 31.16    -0.236 NA
BRANCH  22  23
HETATM   23  C22   D T 401       6.809  16.989   0.064  1.00 34.88     0.111 C 
HETATM   24  C29   D T 401       6.462  17.196   1.536  1.00 36.76     0.048 C 
HETATM   25  C28   D T 401       5.796  18.558   1.740  1.00 38.21     0.099 C 
HETATM   26  N7    D T 401       6.686  19.569   1.165  1.00 37.76    -0.367 N 
HETATM   27  C24   D T 401       7.156  19.468  -0.216  1.00 37.52     0.099 C 
HETATM   28  C30   D T 401       7.100  20.706   1.976  1.00 36.85     0.121 C 
HETATM   29  C23   D T 401       7.785  18.082  -0.369  1.00 35.87     0.048 C 
ENDBRANCH  22  23
ENDBRANCH  17  20
BRANCH  19  30
HETATM   30  O3    D T 401       6.999  11.066  -3.902  1.00 24.11    -0.327 OA
HETATM   31  C31   D T 401       5.661  11.221  -4.380  1.00 17.70     0.181 C 
ENDBRANCH  19  30
ENDBRANCH  13  14
ENDBRANCH   6  13
BRANCH   2  32
HETATM   32  C8    D T 401       9.436   4.848  -2.266  1.00 24.12     0.083 C 
HETATM   33  C15   D T 401       8.190   4.398  -1.512  1.00 23.24     0.022 C 
HETATM   34  C14   D T 401       7.521   3.360  -2.415  1.00 24.93     0.002 C 
HETATM   35  C13   D T 401       8.637   2.749  -3.298  1.00 23.09     0.002 C 
HETATM   36  C12   D T 401       9.831   3.714  -3.221  1.00 23.56     0.022 C 
ENDBRANCH   2  32
BRANCH   4  37
HETATM   37  C9    D T 401      10.857   3.579   0.288  1.00 25.78     0.032 C 
HETATM   38  C10   D T 401      10.875   2.094  -0.039  1.00 24.04     0.003 C 
ENDBRANCH   4  37
TORSDOF 7
ENDMDL
MODEL 7
REMARK VINA RESULT:    -7.576      2.609     11.185
REMARK INTER + INTRA:         -11.872
REMARK INTER:                 -10.963
REMARK INTRA:                  -0.910
REMARK UNBOUND:                -1.196
REMARK  7 active torsions:
REMARK  status: ('A' for Active; 'I' for Inactive)
REMARK    1  A    between atoms: N3_2  and  C8_7 
REMARK    2  A    between atoms: C5_4  and  C9_34 
REMARK    3  A    between atoms: C7_6  and  N5_28 
REMARK       I    between atoms: C21_13  and  N6_18 
REMARK    4  A    between atoms: C21_13  and  C18_23 
REMARK    5  A    between atoms: C22_14  and  N6_18 
REMARK    6  A    between atoms: C16_24  and  O3_25 
REMARK    7  A    between atoms: N5_28  and  C1_29 
ROOT
HETATM    1  N1    D T 401       8.999   8.389  -0.851  1.00 24.43    -0.056 NA
HETATM    2  N3    D T 401      12.527  10.580  -0.409  1.00 24.87    -0.328 N 
HETATM    3  C4    D T 401       8.873   9.722  -0.754  1.00 24.33     0.138 A 
HETATM    4  C5    D T 401      12.498  12.062  -0.275  1.00 24.68     0.162 A 
HETATM    5  C6    D T 401      11.147  12.684  -0.360  1.00 25.06     0.258 A 
HETATM    6  C1    D T 401      10.207   7.765  -0.812  1.00 24.96     0.752 A 
HETATM    7  N2    D T 401      11.350   8.484  -0.670  1.00 25.42    -0.041 NA
HETATM    8  C2    D T 401      11.329   9.835  -0.565  1.00 24.50     0.176 A 
HETATM    9  O1    D T 401      11.075  13.935  -0.255  1.00 25.29    -0.270 OA
HETATM   10  N4    D T 401       9.954  11.922  -0.495  1.00 24.77    -0.292 N 
HETATM   11  C11   D T 401       8.652  12.607  -0.536  1.00 25.67     0.134 C 
HETATM   12  C3    D T 401      10.012  10.516  -0.606  1.00 24.44     0.117 A 
ENDROOT
BRANCH   6  13
HETATM   13  N5    D T 401      10.210   6.412  -0.918  1.00 24.95    -0.057 NA
BRANCH  13  14
HETATM   14  C7    D T 401       9.841   5.632  -1.974  1.00 25.44     0.122 A 
HETATM   15  C20   D T 401      10.121   5.936  -3.314  1.00 23.96     0.022 A 
HETATM   16  C19   D T 401       9.693   5.081  -4.336  1.00 24.92     0.006 A 
HETATM   17  C18   D T 401       8.980   3.909  -4.053  1.00 25.62     0.060 A 
HETATM   18  C17   D T 401       8.676   3.573  -2.736  1.00 25.49     0.030 A 
HETATM   19  C16   D T 401       9.077   4.388  -1.678  1.00 24.16     0.113 A 
BRANCH  17  20
HETATM   20  C21   D T 401       8.512   2.993  -5.151  1.00 26.92     0.275 C 
HETATM   21  O2    D T 401       9.093   1.928  -5.291  1.00 30.54    -0.266 OA
HETATM   22  N6    D T 401       7.496   3.349  -5.940  1.00 31.16    -0.236 NA
BRANCH  22  23
HETATM   23  C22   D T 401       7.159   2.610  -7.147  1.00 34.88     0.111 C 
HETATM   24  C29   D T 401       6.808   1.160  -6.825  1.00 36.76     0.048 C 
HETATM   25  C28   D T 401       6.546   0.377  -8.113  1.00 38.21     0.099 C 
HETATM   26  N7    D T 401       5.526   1.109  -8.868  1.00 37.76    -0.367 N 
HETATM   27  C24   D T 401       5.695   2.525  -9.194  1.00 37.52     0.099 C 
HETATM   28  C30   D T 401       4.328   0.413  -9.318  1.00 36.85     0.121 C 
HETATM   29  C23   D T 401       5.981   3.251  -7.878  1.00 35.87     0.048 C 
ENDBRANCH  22  23
ENDBRANCH  17  20
BRANCH  19  30
HETATM   30  O3    D T 401       8.783   4.053  -0.379  1.00 24.11    -0.327 OA
HETATM   31  C31   D T 401       9.021   2.736   0.124  1.00 17.70     0.181 C 
ENDBRANCH  19  30
ENDBRANCH  13  14
ENDBRANCH   6  13
BRANCH   2  32
HETATM   32  C8    D T 401      13.787   9.789  -0.413  1.00 24.12     0.083 C 
HETATM   33  C15   D T 401      14.403   9.486   0.948  1.00 23.24     0.022 C 
HETATM   34  C14   D T 401      15.901   9.319   0.688  1.00 24.93     0.002 C 
HETATM   35  C13   D T 401      16.228  10.133  -0.589  1.00 23.09     0.002 C 
HETATM   36  C12   D T 401      14.887  10.398  -1.292  1.00 23.56     0.022 C 
ENDBRANCH   2  32
BRANCH   4  37
HETATM   37  C9    D T 401      13.034  12.487   1.106  1.00 25.78     0.032 C 
HETATM   38  C10   D T 401      14.352  13.241   1.031  1.00 24.04     0.003 C 
ENDBRANCH   4  37
TORSDOF 7
ENDMDL
MODEL 8
REMARK VINA RESULT:    -7.557      8.721     13.308
REMARK INTER + INTRA:         -11.846
REMARK INTER:                 -10.706
REMARK INTRA:                  -1.140
REMARK UNBOUND:                -1.196
REMARK  7 active torsions:
REMARK  status: ('A' for Active; 'I' for Inactive)
REMARK    1  A    between atoms: N3_2  and  C8_7 
REMARK    2  A    between atoms: C5_4  and  C9_34 
REMARK    3  A    between atoms: C7_6  and  N5_28 
REMARK       I    between atoms: C21_13  and  N6_18 
REMARK    4  A    between atoms: C21_13  and  C18_23 
REMARK    5  A    between atoms: C22_14  and  N6_18 
REMARK    6  A    between atoms: C16_24  and  O3_25 
REMARK    7  A    between atoms: N5_28  and  C1_29 
ROOT
HETATM    1  N1    D T 401       7.617  15.001   1.846  1.00 24.43    -0.056 NA
HETATM    2  N3    D T 401       6.100  18.432   0.013  1.00 24.87    -0.328 N 
HETATM    3  C4    D T 401       6.830  15.788   2.596  1.00 24.33     0.138 A 
HETATM    4  C5    D T 401       5.232  19.382   0.761  1.00 24.68     0.162 A 
HETATM    5  C6    D T 401       4.918  18.990   2.164  1.00 25.06     0.258 A 
HETATM    6  C1    D T 401       7.915  15.288   0.550  1.00 24.96     0.752 A 
HETATM    7  N2    D T 401       7.416  16.404  -0.040  1.00 25.42    -0.041 NA
HETATM    8  C2    D T 401       6.612  17.263   0.633  1.00 24.50     0.176 A 
HETATM    9  O1    D T 401       4.185  19.762   2.833  1.00 25.29    -0.270 OA
HETATM   10  N4    D T 401       5.456  17.825   2.777  1.00 24.77    -0.292 N 
HETATM   11  C11   D T 401       5.128  17.524   4.180  1.00 25.67     0.134 C 
HETATM   12  C3    D T 401       6.288  16.950   2.046  1.00 24.44     0.117 A 
ENDROOT
BRANCH   6  13
HETATM   13  N5    D T 401       8.722  14.418  -0.109  1.00 24.95    -0.057 NA
BRANCH  13  14
HETATM   14  C7    D T 401       8.880  13.078   0.085  1.00 25.44     0.122 A 
HETATM   15  C20   D T 401       9.706  12.516   1.068  1.00 23.96     0.022 A 
HETATM   16  C19   D T 401       9.817  11.126   1.187  1.00 24.92     0.006 A 
HETATM   17  C18   D T 401       9.112  10.265   0.336  1.00 25.62     0.060 A 
HETATM   18  C17   D T 401       8.286  10.782  -0.659  1.00 25.49     0.030 A 
HETATM   19  C16   D T 401       8.139  12.158  -0.823  1.00 24.16     0.113 A 
BRANCH  17  20
HETATM   20  C21   D T 401       9.236   8.770   0.458  1.00 26.92     0.275 C 
HETATM   21  O2    D T 401       9.344   8.297   1.578  1.00 30.54    -0.266 OA
HETATM   22  N6    D T 401       9.229   8.001  -0.634  1.00 31.16    -0.236 NA
BRANCH  22  23
HETATM   23  C22   D T 401       9.573   6.589  -0.585  1.00 34.88     0.111 C 
HETATM   24  C29   D T 401       8.484   5.734  -1.230  1.00 36.76     0.048 C 
HETATM   25  C28   D T 401       8.820   4.248  -1.089  1.00 38.21     0.099 C 
HETATM   26  N7    D T 401      10.166   4.052  -1.632  1.00 37.76    -0.367 N 
HETATM   27  C24   D T 401      11.298   4.846  -1.157  1.00 37.52     0.099 C 
HETATM   28  C30   D T 401      10.387   3.037  -2.653  1.00 36.85     0.121 C 
HETATM   29  C23   D T 401      10.897   6.316  -1.296  1.00 35.87     0.048 C 
ENDBRANCH  22  23
ENDBRANCH  17  20
BRANCH  19  30
HETATM   30  O3    D T 401       7.318  12.669  -1.799  1.00 24.11    -0.327 OA
HETATM   31  C31   D T 401       6.945  11.892  -2.940  1.00 17.70     0.181 C 
ENDBRANCH  19  30
ENDBRANCH  13  14
ENDBRANCH   6  13
BRANCH   2  32
HETATM   32  C8    D T 401       6.469  18.622  -1.416  1.00 24.12     0.083 C 
HETATM   33  C15   D T 401       7.587  19.618  -1.703  1.00 23.24     0.022 C 
HETATM   34  C14   D T 401       7.319  20.133  -3.118  1.00 24.93     0.002 C 
HETATM   35  C13   D T 401       5.799  19.976  -3.372  1.00 23.09     0.002 C 
HETATM   36  C12   D T 401       5.279  18.995  -2.309  1.00 23.56     0.022 C 
ENDBRANCH   2  32
BRANCH   4  37
HETATM   37  C9    D T 401       5.922  20.754   0.887  1.00 25.78     0.032 C 
HETATM   38  C10   D T 401       7.189  20.714   1.728  1.00 24.04     0.003 C 
ENDBRANCH   4  37
TORSDOF 7
ENDMDL
MODEL 9
REMARK VINA RESULT:    -7.403      4.261     10.562
REMARK INTER + INTRA:         -11.628
REMARK INTER:                 -10.065
REMARK INTRA:                  -1.563
REMARK UNBOUND:                -1.196
REMARK  7 active torsions:
REMARK  status: ('A' for Active; 'I' for Inactive)
REMARK    1  A    between atoms: N3_2  and  C8_7 
REMARK    2  A    between atoms: C5_4  and  C9_34 
REMARK    3  A    between atoms: C7_6  and  N5_28 
REMARK       I    between atoms: C21_13  and  N6_18 
REMARK    4  A    between atoms: C21_13  and  C18_23 
REMARK    5  A    between atoms: C22_14  and  N6_18 
REMARK    6  A    between atoms: C16_24  and  O3_25 
REMARK    7  A    between atoms: N5_28  and  C1_29 
ROOT
HETATM    1  N1    D T 401       8.372   9.669  -0.383  1.00 24.43    -0.056 NA
HETATM    2  N3    D T 401      12.390  10.796  -0.534  1.00 24.87    -0.328 N 
HETATM    3  C4    D T 401       8.638  10.977  -0.238  1.00 24.33     0.138 A 
HETATM    4  C5    D T 401      12.795  12.218  -0.367  1.00 24.68     0.162 A 
HETATM    5  C6    D T 401      11.674  13.185  -0.197  1.00 25.06     0.258 A 
HETATM    6  C1    D T 401       9.349   8.742  -0.573  1.00 24.96     0.752 A 
HETATM    7  N2    D T 401      10.653   9.116  -0.623  1.00 25.42    -0.041 NA
HETATM    8  C2    D T 401      11.025  10.413  -0.489  1.00 24.50     0.176 A 
HETATM    9  O1    D T 401      11.970  14.399  -0.055  1.00 25.29    -0.270 OA
HETATM   10  N4    D T 401      10.312  12.783  -0.132  1.00 24.77    -0.292 N 
HETATM   11  C11   D T 401       9.263  13.794   0.075  1.00 25.67     0.134 C 
HETATM   12  C3    D T 401       9.960  11.423  -0.280  1.00 24.44     0.117 A 
ENDROOT
BRANCH   6  13
HETATM   13  N5    D T 401       8.960   7.449  -0.706  1.00 24.95    -0.057 NA
BRANCH  13  14
HETATM   14  C7    D T 401       9.487   6.330  -0.134  1.00 25.44     0.122 A 
HETATM   15  C20   D T 401       9.740   6.191   1.238  1.00 23.96     0.022 A 
HETATM   16  C19   D T 401      10.295   5.006   1.737  1.00 24.92     0.006 A 
HETATM   17  C18   D T 401      10.610   3.937   0.890  1.00 25.62     0.060 A 
HETATM   18  C17   D T 401      10.381   4.036  -0.481  1.00 25.49     0.030 A 
HETATM   19  C16   D T 401       9.831   5.192  -1.032  1.00 24.16     0.113 A 
BRANCH  17  20
HETATM   20  C21   D T 401      11.214   2.667   1.423  1.00 26.92     0.275 C 
HETATM   21  O2    D T 401      12.286   2.745   2.003  1.00 30.54    -0.266 OA
HETATM   22  N6    D T 401      10.587   1.500   1.259  1.00 31.16    -0.236 NA
BRANCH  22  23
HETATM   23  C22   D T 401      11.231   0.229   1.551  1.00 34.88     0.111 C 
HETATM   24  C29   D T 401      10.387  -0.610   2.508  1.00 36.76     0.048 C 
HETATM   25  C28   D T 401      11.123  -1.902   2.874  1.00 38.21     0.099 C 
HETATM   26  N7    D T 401      11.485  -2.567   1.621  1.00 37.76    -0.367 N 
HETATM   27  C24   D T 401      12.237  -1.866   0.580  1.00 37.52     0.099 C 
HETATM   28  C30   D T 401      11.105  -3.957   1.409  1.00 36.85     0.121 C 
HETATM   29  C23   D T 401      11.474  -0.575   0.276  1.00 35.87     0.048 C 
ENDBRANCH  22  23
ENDBRANCH  17  20
BRANCH  19  30
HETATM   30  O3    D T 401       9.598   5.288  -2.383  1.00 24.11    -0.327 OA
HETATM   31  C31   D T 401       9.717   4.152  -3.242  1.00 17.70     0.181 C 
ENDBRANCH  19  30
ENDBRANCH  13  14
ENDBRANCH   6  13
BRANCH   2  32
HETATM   32  C8    D T 401      13.364   9.698  -0.780  1.00 24.12     0.083 C 
HETATM   33  C15   D T 401      13.997   9.063   0.453  1.00 23.24     0.022 C 
HETATM   34  C14   D T 401      15.351   8.527  -0.015  1.00 24.93     0.002 C 
HETATM   35  C13   D T 401      15.771   9.380  -1.238  1.00 23.09     0.002 C 
HETATM   36  C12   D T 401      14.500  10.091  -1.731  1.00 23.56     0.022 C 
ENDBRANCH   2  32
BRANCH   4  37
HETATM   37  C9    D T 401      13.649  12.388   0.904  1.00 25.78     0.032 C 
HETATM   38  C10   D T 401      15.062  12.872   0.617  1.00 24.04     0.003 C 
ENDBRANCH   4  37
TORSDOF 7
ENDMDL
