MODEL 1
REMARK VINA RESULT:    -7.462      0.000      0.000
REMARK INTER + INTRA:         -11.832
REMARK INTER:                 -10.516
REMARK INTRA:                  -1.316
REMARK UNBOUND:                -1.316
REMARK  7 active torsions:
REMARK  status: ('A' for Active; 'I' for Inactive)
REMARK    1  A    between atoms: N3_2  and  C8_7 
REMARK    2  A    between atoms: C5_4  and  C9_34 
REMARK    3  A    between atoms: C7_6  and  N5_28 
REMARK       I    between atoms: C21_13  and  N6_18 
REMARK    4  A    between atoms: C21_13  and  C18_23 
REMARK    5  A    between atoms: C22_14  and  N6_18 
REMARK    6  A    between atoms: C16_24  and  O3_25 
REMARK    7  A    between atoms: N5_28  and  C1_29 
ROOT
HETATM    1  N1    D T 401      -7.578   0.462  -7.714  1.00 24.43    -0.056 NA
HETATM    2  N3    D T 401     -10.421  -0.433  -4.790  1.00 24.87    -0.328 N 
HETATM    3  C4    D T 401      -8.258   1.498  -7.195  1.00 24.33     0.138 A 
HETATM    4  C5    D T 401     -11.242   0.638  -4.163  1.00 24.68     0.162 A 
HETATM    5  C6    D T 401     -10.936   2.024  -4.617  1.00 25.06     0.258 A 
HETATM    6  C1    D T 401      -7.790  -0.822  -7.317  1.00 24.96     0.752 A 
HETATM    7  N2    D T 401      -8.714  -1.105  -6.364  1.00 25.42    -0.041 NA
HETATM    8  C2    D T 401      -9.451  -0.128  -5.779  1.00 24.50     0.176 A 
HETATM    9  O1    D T 401     -11.602   2.963  -4.113  1.00 25.29    -0.270 OA
HETATM   10  N4    D T 401      -9.976   2.311  -5.626  1.00 24.77    -0.292 N 
HETATM   11  C11   D T 401      -9.755   3.703  -6.049  1.00 25.67     0.134 C 
HETATM   12  C3    D T 401      -9.222   1.271  -6.213  1.00 24.44     0.117 A 
ENDROOT
BRANCH   6  13
HETATM   13  N5    D T 401      -7.044  -1.786  -7.913  1.00 24.95    -0.057 NA
BRANCH  13  14
HETATM   14  C7    D T 401      -7.011  -3.125  -7.661  1.00 25.44     0.122 A 
HETATM   15  C20   D T 401      -7.887  -4.057  -8.232  1.00 23.96     0.022 A 
HETATM   16  C19   D T 401      -7.786  -5.415  -7.906  1.00 24.92     0.006 A 
HETATM   17  C18   D T 401      -6.814  -5.876  -7.009  1.00 25.62     0.060 A 
HETATM   18  C17   D T 401      -5.926  -4.983  -6.414  1.00 25.49     0.030 A 
HETATM   19  C16   D T 401      -5.983  -3.620  -6.703  1.00 24.16     0.113 A 
BRANCH  17  20
HETATM   20  C21   D T 401      -6.709  -7.334  -6.652  1.00 26.92     0.275 C 
HETATM   21  O2    D T 401      -6.384  -7.618  -5.509  1.00 30.54    -0.266 OA
HETATM   22  N6    D T 401      -6.962  -8.273  -7.566  1.00 31.16    -0.236 NA
BRANCH  22  23
HETATM   23  C22   D T 401      -6.656  -9.677  -7.336  1.00 34.88     0.111 C 
HETATM   24  C29   D T 401      -7.635 -10.584  -8.077  1.00 36.76     0.048 C 
HETATM   25  C28   D T 401      -7.352 -12.052  -7.752  1.00 38.21     0.099 C 
HETATM   26  N7    D T 401      -5.938 -12.298  -8.043  1.00 37.76    -0.367 N 
HETATM   27  C24   D T 401      -4.886 -11.466  -7.456  1.00 37.52     0.099 C 
HETATM   28  C30   D T 401      -5.566 -13.400  -8.919  1.00 36.85     0.121 C 
HETATM   29  C23   D T 401      -5.236 -10.013  -7.788  1.00 35.87     0.048 C 
ENDBRANCH  22  23
ENDBRANCH  17  20
BRANCH  19  30
HETATM   30  O3    D T 401      -5.103  -2.740  -6.120  1.00 24.11    -0.327 OA
HETATM   31  C31   D T 401      -5.331  -2.212  -4.812  1.00 17.70     0.181 C 
ENDBRANCH  19  30
ENDBRANCH  13  14
ENDBRANCH   6  13
BRANCH   2  32
HETATM   32  C8    D T 401     -10.539  -1.869  -4.415  1.00 24.12     0.083 C 
HETATM   33  C15   D T 401      -9.257  -2.562  -3.970  1.00 23.24     0.022 C 
HETATM   34  C14   D T 401      -9.458  -4.041  -4.304  1.00 24.93     0.002 C 
HETATM   35  C13   D T 401     -10.479  -4.103  -5.467  1.00 23.09     0.002 C 
HETATM   36  C12   D T 401     -11.177  -2.734  -5.508  1.00 23.56     0.022 C 
ENDBRANCH   2  32
BRANCH   4  37
HETATM   37  C9    D T 401     -12.732   0.440  -4.499  1.00 25.78     0.032 C 
HETATM   38  C10   D T 401     -13.014   0.438  -5.993  1.00 24.04     0.003 C 
ENDBRANCH   4  37
TORSDOF 7
ENDMDL
MODEL 2
REMARK VINA RESULT:    -7.445      4.068      7.871
REMARK INTER + INTRA:         -11.807
REMARK INTER:                 -10.375
REMARK INTRA:                  -1.432
REMARK UNBOUND:                -1.316
REMARK  7 active torsions:
REMARK  status: ('A' for Active; 'I' for Inactive)
REMARK    1  A    between atoms: N3_2  and  C8_7 
REMARK    2  A    between atoms: C5_4  and  C9_34 
REMARK    3  A    between atoms: C7_6  and  N5_28 
REMARK       I    between atoms: C21_13  and  N6_18 
REMARK    4  A    between atoms: C21_13  and  C18_23 
REMARK    5  A    between atoms: C22_14  and  N6_18 
REMARK    6  A    between atoms: C16_24  and  O3_25 
REMARK    7  A    between atoms: N5_28  and  C1_29 
ROOT
HETATM    1  N1    D T 401      -5.349  -8.479  -6.657  1.00 24.43    -0.056 NA
HETATM    2  N3    D T 401      -6.230  -4.406  -6.397  1.00 24.87    -0.328 N 
HETATM    3  C4    D T 401      -4.363  -7.675  -6.226  1.00 24.33     0.138 A 
HETATM    4  C5    D T 401      -5.203  -3.425  -5.949  1.00 24.68     0.162 A 
HETATM    5  C6    D T 401      -3.889  -4.010  -5.562  1.00 25.06     0.258 A 
HETATM    6  C1    D T 401      -6.580  -8.008  -6.995  1.00 24.96     0.752 A 
HETATM    7  N2    D T 401      -6.860  -6.683  -6.905  1.00 25.42    -0.041 NA
HETATM    8  C2    D T 401      -5.932  -5.790  -6.480  1.00 24.50     0.176 A 
HETATM    9  O1    D T 401      -2.991  -3.221  -5.173  1.00 25.29    -0.270 OA
HETATM   10  N4    D T 401      -3.600  -5.398  -5.672  1.00 24.77    -0.292 N 
HETATM   11  C11   D T 401      -2.264  -5.896  -5.305  1.00 25.67     0.134 C 
HETATM   12  C3    D T 401      -4.589  -6.302  -6.114  1.00 24.44     0.117 A 
ENDROOT
BRANCH   6  13
HETATM   13  N5    D T 401      -7.496  -8.916  -7.419  1.00 24.95    -0.057 NA
BRANCH  13  14
HETATM   14  C7    D T 401      -7.706 -10.191  -6.985  1.00 25.44     0.122 A 
HETATM   15  C20   D T 401      -8.458 -10.525  -5.851  1.00 23.96     0.022 A 
HETATM   16  C19   D T 401      -8.612 -11.864  -5.474  1.00 24.92     0.006 A 
HETATM   17  C18   D T 401      -8.025 -12.899  -6.212  1.00 25.62     0.060 A 
HETATM   18  C17   D T 401      -7.264 -12.612  -7.343  1.00 25.49     0.030 A 
HETATM   19  C16   D T 401      -7.079 -11.296  -7.764  1.00 24.16     0.113 A 
BRANCH  17  20
HETATM   20  C21   D T 401      -8.183 -14.338  -5.804  1.00 26.92     0.275 C 
HETATM   21  O2    D T 401      -8.896 -15.051  -6.493  1.00 30.54    -0.266 OA
HETATM   22  N6    D T 401      -7.560 -14.805  -4.719  1.00 31.16    -0.236 NA
BRANCH  22  23
HETATM   23  C22   D T 401      -7.860 -16.114  -4.160  1.00 34.88     0.111 C 
HETATM   24  C29   D T 401      -6.593 -16.802  -3.657  1.00 36.76     0.048 C 
HETATM   25  C28   D T 401      -6.915 -18.212  -3.155  1.00 38.21     0.099 C 
HETATM   26  N7    D T 401      -7.989 -18.087  -2.166  1.00 37.76    -0.367 N 
HETATM   27  C24   D T 401      -9.238 -17.395  -2.485  1.00 37.52     0.099 C 
HETATM   28  C30   D T 401      -7.820 -18.677  -0.845  1.00 36.85     0.121 C 
HETATM   29  C23   D T 401      -8.854 -16.007  -3.005  1.00 35.87     0.048 C 
ENDBRANCH  22  23
ENDBRANCH  17  20
BRANCH  19  30
HETATM   30  O3    D T 401      -6.333 -11.013  -8.883  1.00 24.11    -0.327 OA
HETATM   31  C31   D T 401      -4.907 -11.096  -8.871  1.00 17.70     0.181 C 
ENDBRANCH  19  30
ENDBRANCH  13  14
ENDBRANCH   6  13
BRANCH   2  32
HETATM   32  C8    D T 401      -7.619  -4.016  -6.761  1.00 24.12     0.083 C 
HETATM   33  C15   D T 401      -7.831  -3.504  -8.181  1.00 23.24     0.022 C 
HETATM   34  C14   D T 401      -9.047  -2.582  -8.104  1.00 24.93     0.002 C 
HETATM   35  C13   D T 401      -9.119  -2.057  -6.647  1.00 23.09     0.002 C 
HETATM   36  C12   D T 401      -8.236  -2.990  -5.804  1.00 23.56     0.022 C 
ENDBRANCH   2  32
BRANCH   4  37
HETATM   37  C9    D T 401      -4.870  -2.439  -7.084  1.00 25.78     0.032 C 
HETATM   38  C10   D T 401      -5.266  -1.006  -6.769  1.00 24.04     0.003 C 
ENDBRANCH   4  37
TORSDOF 7
ENDMDL
MODEL 3
REMARK VINA RESULT:    -7.165      2.264      4.341
REMARK INTER + INTRA:         -11.413
REMARK INTER:                 -11.173
REMARK INTRA:                  -0.240
REMARK UNBOUND:                -1.316
REMARK  7 active torsions:
REMARK  status: ('A' for Active; 'I' for Inactive)
REMARK    1  A    between atoms: N3_2  and  C8_7 
REMARK    2  A    between atoms: C5_4  and  C9_34 
REMARK    3  A    between atoms: C7_6  and  N5_28 
REMARK       I    between atoms: C21_13  and  N6_18 
REMARK    4  A    between atoms: C21_13  and  C18_23 
REMARK    5  A    between atoms: C22_14  and  N6_18 
REMARK    6  A    between atoms: C16_24  and  O3_25 
REMARK    7  A    between atoms: N5_28  and  C1_29 
ROOT
HETATM    1  N1    D T 401      -8.652  -4.482  -5.676  1.00 24.43    -0.056 NA
HETATM    2  N3    D T 401      -7.490  -0.707  -7.030  1.00 24.87    -0.328 N 
HETATM    3  C4    D T 401      -9.636  -3.640  -6.034  1.00 24.33     0.138 A 
HETATM    4  C5    D T 401      -8.501   0.309  -7.434  1.00 24.68     0.162 A 
HETATM    5  C6    D T 401      -9.920  -0.141  -7.365  1.00 25.06     0.258 A 
HETATM    6  C1    D T 401      -7.337  -4.140  -5.747  1.00 24.96     0.752 A 
HETATM    7  N2    D T 401      -6.967  -2.912  -6.190  1.00 25.42    -0.041 NA
HETATM    8  C2    D T 401      -7.885  -1.991  -6.575  1.00 24.50     0.176 A 
HETATM    9  O1    D T 401     -10.809   0.682  -7.700  1.00 25.29    -0.270 OA
HETATM   10  N4    D T 401     -10.300  -1.425  -6.886  1.00 24.77    -0.292 N 
HETATM   11  C11   D T 401     -11.725  -1.784  -6.813  1.00 25.67     0.134 C 
HETATM   12  C3    D T 401      -9.318  -2.363  -6.496  1.00 24.44     0.117 A 
ENDROOT
BRANCH   6  13
HETATM   13  N5    D T 401      -6.432  -5.074  -5.357  1.00 24.95    -0.057 NA
BRANCH  13  14
HETATM   14  C7    D T 401      -6.139  -6.277  -5.927  1.00 25.44     0.122 A 
HETATM   15  C20   D T 401      -7.098  -7.171  -6.419  1.00 23.96     0.022 A 
HETATM   16  C19   D T 401      -6.704  -8.392  -6.980  1.00 24.92     0.006 A 
HETATM   17  C18   D T 401      -5.353  -8.750  -7.066  1.00 25.62     0.060 A 
HETATM   18  C17   D T 401      -4.366  -7.893  -6.584  1.00 25.49     0.030 A 
HETATM   19  C16   D T 401      -4.703  -6.665  -6.015  1.00 24.16     0.113 A 
BRANCH  17  20
HETATM   20  C21   D T 401      -4.928 -10.064  -7.662  1.00 26.92     0.275 C 
HETATM   21  O2    D T 401      -3.986 -10.060  -8.438  1.00 30.54    -0.266 OA
HETATM   22  N6    D T 401      -5.574 -11.190  -7.345  1.00 31.16    -0.236 NA
BRANCH  22  23
HETATM   23  C22   D T 401      -5.350 -12.435  -8.062  1.00 34.88     0.111 C 
HETATM   24  C29   D T 401      -5.592 -13.642  -7.158  1.00 36.76     0.048 C 
HETATM   25  C28   D T 401      -5.266 -14.939  -7.902  1.00 38.21     0.099 C 
HETATM   26  N7    D T 401      -6.037 -14.933  -9.147  1.00 37.76    -0.367 N 
HETATM   27  C24   D T 401      -5.958 -13.810 -10.083  1.00 37.52     0.099 C 
HETATM   28  C30   D T 401      -6.887 -16.070  -9.472  1.00 36.85     0.121 C 
HETATM   29  C23   D T 401      -6.265 -12.543  -9.281  1.00 35.87     0.048 C 
ENDBRANCH  22  23
ENDBRANCH  17  20
BRANCH  19  30
HETATM   30  O3    D T 401      -3.729  -5.817  -5.545  1.00 24.11    -0.327 OA
HETATM   31  C31   D T 401      -2.458  -6.306  -5.112  1.00 17.70     0.181 C 
ENDBRANCH  19  30
ENDBRANCH  13  14
ENDBRANCH   6  13
BRANCH   2  32
HETATM   32  C8    D T 401      -6.024  -0.462  -7.094  1.00 24.12     0.083 C 
HETATM   33  C15   D T 401      -5.210  -1.430  -7.943  1.00 23.24     0.022 C 
HETATM   34  C14   D T 401      -3.807  -1.422  -7.337  1.00 24.93     0.002 C 
HETATM   35  C13   D T 401      -3.963  -1.016  -5.850  1.00 23.09     0.002 C 
HETATM   36  C12   D T 401      -5.358  -0.383  -5.716  1.00 23.56     0.022 C 
ENDBRANCH   2  32
BRANCH   4  37
HETATM   37  C9    D T 401      -8.437   1.532  -6.500  1.00 25.78     0.032 C 
HETATM   38  C10   D T 401      -8.130   2.829  -7.230  1.00 24.04     0.003 C 
ENDBRANCH   4  37
TORSDOF 7
ENDMDL
MODEL 4
REMARK VINA RESULT:    -7.139      2.925      5.832
REMARK INTER + INTRA:         -11.376
REMARK INTER:                 -10.520
REMARK INTRA:                  -0.856
REMARK UNBOUND:                -1.316
REMARK  7 active torsions:
REMARK  status: ('A' for Active; 'I' for Inactive)
REMARK    1  A    between atoms: N3_2  and  C8_7 
REMARK    2  A    between atoms: C5_4  and  C9_34 
REMARK    3  A    between atoms: C7_6  and  N5_28 
REMARK       I    between atoms: C21_13  and  N6_18 
REMARK    4  A    between atoms: C21_13  and  C18_23 
REMARK    5  A    between atoms: C22_14  and  N6_18 
REMARK    6  A    between atoms: C16_24  and  O3_25 
REMARK    7  A    between atoms: N5_28  and  C1_29 
ROOT
HETATM    1  N1    D T 401      -9.144  -6.080  -7.754  1.00 24.43    -0.056 NA
HETATM    2  N3    D T 401      -6.834  -2.610  -7.511  1.00 24.87    -0.328 N 
HETATM    3  C4    D T 401      -9.736  -4.934  -8.129  1.00 24.33     0.138 A 
HETATM    4  C5    D T 401      -7.398  -1.285  -7.885  1.00 24.68     0.162 A 
HETATM    5  C6    D T 401      -8.801  -1.307  -8.388  1.00 25.06     0.258 A 
HETATM    6  C1    D T 401      -7.857  -6.128  -7.316  1.00 24.96     0.752 A 
HETATM    7  N2    D T 401      -7.111  -4.996  -7.243  1.00 25.42    -0.041 NA
HETATM    8  C2    D T 401      -7.618  -3.790  -7.599  1.00 24.50     0.176 A 
HETATM    9  O1    D T 401      -9.319  -0.211  -8.719  1.00 25.29    -0.270 OA
HETATM   10  N4    D T 401      -9.579  -2.496  -8.450  1.00 24.77    -0.292 N 
HETATM   11  C11   D T 401     -10.971  -2.432  -8.923  1.00 25.67     0.134 C 
HETATM   12  C3    D T 401      -9.021  -3.737  -8.074  1.00 24.44     0.117 A 
ENDROOT
BRANCH   6  13
HETATM   13  N5    D T 401      -7.367  -7.344  -6.963  1.00 24.95    -0.057 NA
BRANCH  13  14
HETATM   14  C7    D T 401      -7.410  -8.520  -7.651  1.00 25.44     0.122 A 
HETATM   15  C20   D T 401      -8.530  -8.984  -8.353  1.00 23.96     0.022 A 
HETATM   16  C19   D T 401      -8.486 -10.211  -9.023  1.00 24.92     0.006 A 
HETATM   17  C18   D T 401      -7.331 -11.004  -9.013  1.00 25.62     0.060 A 
HETATM   18  C17   D T 401      -6.196 -10.584  -8.323  1.00 25.49     0.030 A 
HETATM   19  C16   D T 401      -6.186  -9.370  -7.638  1.00 24.16     0.113 A 
BRANCH  17  20
HETATM   20  C21   D T 401      -7.285 -12.328  -9.727  1.00 26.92     0.275 C 
HETATM   21  O2    D T 401      -8.295 -12.699 -10.305  1.00 30.54    -0.266 OA
HETATM   22  N6    D T 401      -6.170 -13.062  -9.717  1.00 31.16    -0.236 NA
BRANCH  22  23
HETATM   23  C22   D T 401      -6.147 -14.436 -10.193  1.00 34.88     0.111 C 
HETATM   24  C29   D T 401      -5.647 -14.512 -11.633  1.00 36.76     0.048 C 
HETATM   25  C28   D T 401      -5.715 -15.953 -12.146  1.00 38.21     0.099 C 
HETATM   26  N7    D T 401      -4.984 -16.789 -11.191  1.00 37.76    -0.367 N 
HETATM   27  C24   D T 401      -5.308 -16.772  -9.764  1.00 37.52     0.099 C 
HETATM   28  C30   D T 401      -3.925 -17.668 -11.670  1.00 36.85     0.121 C 
HETATM   29  C23   D T 401      -5.252 -15.310  -9.315  1.00 35.87     0.048 C 
ENDBRANCH  22  23
ENDBRANCH  17  20
BRANCH  19  30
HETATM   30  O3    D T 401      -5.064  -8.953  -6.963  1.00 24.11    -0.327 OA
HETATM   31  C31   D T 401      -3.766  -9.453  -7.290  1.00 17.70     0.181 C 
ENDBRANCH  19  30
ENDBRANCH  13  14
ENDBRANCH   6  13
BRANCH   2  32
HETATM   32  C8    D T 401      -5.432  -2.794  -7.050  1.00 24.12     0.083 C 
HETATM   33  C15   D T 401      -5.208  -2.807  -5.543  1.00 23.24     0.022 C 
HETATM   34  C14   D T 401      -3.771  -2.326  -5.340  1.00 24.93     0.002 C 
HETATM   35  C13   D T 401      -3.414  -1.452  -6.569  1.00 23.09     0.002 C 
HETATM   36  C12   D T 401      -4.453  -1.779  -7.654  1.00 23.56     0.022 C 
ENDBRANCH   2  32
BRANCH   4  37
HETATM   37  C9    D T 401      -7.442  -0.354  -6.659  1.00 25.78     0.032 C 
HETATM   38  C10   D T 401      -8.300  -0.893  -5.526  1.00 24.04     0.003 C 
ENDBRANCH   4  37
TORSDOF 7
ENDMDL
MODEL 5
REMARK VINA RESULT:    -7.061      2.348      3.778
REMARK INTER + INTRA:         -11.267
REMARK INTER:                  -9.825
REMARK INTRA:                  -1.442
REMARK UNBOUND:                -1.316
REMARK  7 active torsions:
REMARK  status: ('A' for Active; 'I' for Inactive)
REMARK    1  A    between atoms: N3_2  and  C8_7 
REMARK    2  A    between atoms: C5_4  and  C9_34 
REMARK    3  A    between atoms: C7_6  and  N5_28 
REMARK       I    between atoms: C21_13  and  N6_18 
REMARK    4  A    between atoms: C21_13  and  C18_23 
REMARK    5  A    between atoms: C22_14  and  N6_18 
REMARK    6  A    between atoms: C16_24  and  O3_25 
REMARK    7  A    between atoms: N5_28  and  C1_29 
ROOT
HETATM    1  N1    D T 401      -5.600  -3.573  -6.768  1.00 24.43    -0.056 NA
HETATM    2  N3    D T 401      -9.469  -2.088  -6.261  1.00 24.87    -0.328 N 
HETATM    3  C4    D T 401      -5.894  -2.426  -7.403  1.00 24.33     0.138 A 
HETATM    4  C5    D T 401      -9.905  -0.835  -6.934  1.00 24.68     0.162 A 
HETATM    5  C6    D T 401      -8.858  -0.147  -7.740  1.00 25.06     0.258 A 
HETATM    6  C1    D T 401      -6.503  -4.231  -5.993  1.00 24.96     0.752 A 
HETATM    7  N2    D T 401      -7.759  -3.741  -5.830  1.00 25.42    -0.041 NA
HETATM    8  C2    D T 401      -8.153  -2.590  -6.429  1.00 24.50     0.176 A 
HETATM    9  O1    D T 401      -9.179   0.918  -8.326  1.00 25.29    -0.270 OA
HETATM   10  N4    D T 401      -7.549  -0.674  -7.916  1.00 24.77    -0.292 N 
HETATM   11  C11   D T 401      -6.580   0.045  -8.758  1.00 25.67     0.134 C 
HETATM   12  C3    D T 401      -7.169  -1.874  -7.276  1.00 24.44     0.117 A 
ENDROOT
BRANCH   6  13
HETATM   13  N5    D T 401      -6.091  -5.382  -5.402  1.00 24.95    -0.057 NA
BRANCH  13  14
HETATM   14  C7    D T 401      -5.848  -6.598  -5.967  1.00 25.44     0.122 A 
HETATM   15  C20   D T 401      -6.839  -7.541  -6.267  1.00 23.96     0.022 A 
HETATM   16  C19   D T 401      -6.494  -8.772  -6.838  1.00 24.92     0.006 A 
HETATM   17  C18   D T 401      -5.161  -9.092  -7.124  1.00 25.62     0.060 A 
HETATM   18  C17   D T 401      -4.143  -8.185  -6.837  1.00 25.49     0.030 A 
HETATM   19  C16   D T 401      -4.430  -6.946  -6.268  1.00 24.16     0.113 A 
BRANCH  17  20
HETATM   20  C21   D T 401      -4.788 -10.417  -7.731  1.00 26.92     0.275 C 
HETATM   21  O2    D T 401      -3.810 -10.454  -8.461  1.00 30.54    -0.266 OA
HETATM   22  N6    D T 401      -5.515 -11.507  -7.473  1.00 31.16    -0.236 NA
BRANCH  22  23
HETATM   23  C22   D T 401      -5.332 -12.748  -8.208  1.00 34.88     0.111 C 
HETATM   24  C29   D T 401      -5.647 -13.959  -7.333  1.00 36.76     0.048 C 
HETATM   25  C28   D T 401      -5.364 -15.256  -8.095  1.00 38.21     0.099 C 
HETATM   26  N7    D T 401      -6.106 -15.192  -9.356  1.00 37.76    -0.367 N 
HETATM   27  C24   D T 401      -5.956 -14.057 -10.268  1.00 37.52     0.099 C 
HETATM   28  C30   D T 401      -6.999 -16.283  -9.720  1.00 36.85     0.121 C 
HETATM   29  C23   D T 401      -6.223 -12.792  -9.448  1.00 35.87     0.048 C 
ENDBRANCH  22  23
ENDBRANCH  17  20
BRANCH  19  30
HETATM   30  O3    D T 401      -3.427  -6.049  -5.990  1.00 24.11    -0.327 OA
HETATM   31  C31   D T 401      -2.558  -6.224  -4.869  1.00 17.70     0.181 C 
ENDBRANCH  19  30
ENDBRANCH  13  14
ENDBRANCH   6  13
BRANCH   2  32
HETATM   32  C8    D T 401     -10.356  -2.877  -5.363  1.00 24.12     0.083 C 
HETATM   33  C15   D T 401     -11.317  -3.848  -6.039  1.00 23.24     0.022 C 
HETATM   34  C14   D T 401     -12.496  -3.989  -5.077  1.00 24.93     0.002 C 
HETATM   35  C13   D T 401     -12.545  -2.689  -4.234  1.00 23.09     0.002 C 
HETATM   36  C12   D T 401     -11.175  -2.011  -4.399  1.00 23.56     0.022 C 
ENDBRANCH   2  32
BRANCH   4  37
HETATM   37  C9    D T 401     -11.036  -1.129  -7.938  1.00 25.78     0.032 C 
HETATM   38  C10   D T 401     -12.354  -0.469  -7.567  1.00 24.04     0.003 C 
ENDBRANCH   4  37
TORSDOF 7
ENDMDL
MODEL 6
REMARK VINA RESULT:    -6.977      4.798     14.107
REMARK INTER + INTRA:         -11.148
REMARK INTER:                  -9.763
REMARK INTRA:                  -1.385
REMARK UNBOUND:                -1.316
REMARK  7 active torsions:
REMARK  status: ('A' for Active; 'I' for Inactive)
REMARK    1  A    between atoms: N3_2  and  C8_7 
REMARK    2  A    between atoms: C5_4  and  C9_34 
REMARK    3  A    between atoms: C7_6  and  N5_28 
REMARK       I    between atoms: C21_13  and  N6_18 
REMARK    4  A    between atoms: C21_13  and  C18_23 
REMARK    5  A    between atoms: C22_14  and  N6_18 
REMARK    6  A    between atoms: C16_24  and  O3_25 
REMARK    7  A    between atoms: N5_28  and  C1_29 
ROOT
HETATM    1  N1    D T 401      -6.176 -13.907  -7.874  1.00 24.43    -0.056 NA
HETATM    2  N3    D T 401      -4.107 -16.009 -10.830  1.00 24.87    -0.328 N 
HETATM    3  C4    D T 401      -5.789 -15.156  -7.568  1.00 24.33     0.138 A 
HETATM    4  C5    D T 401      -3.650 -17.406 -10.601  1.00 24.68     0.162 A 
HETATM    5  C6    D T 401      -3.939 -17.958  -9.247  1.00 25.06     0.258 A 
HETATM    6  C1    D T 401      -5.913 -13.337  -9.081  1.00 24.96     0.752 A 
HETATM    7  N2    D T 401      -5.238 -14.025 -10.036  1.00 25.42    -0.041 NA
HETATM    8  C2    D T 401      -4.805 -15.293  -9.823  1.00 24.50     0.176 A 
HETATM    9  O1    D T 401      -3.568 -19.135  -9.006  1.00 25.29    -0.270 OA
HETATM   10  N4    D T 401      -4.659 -17.234  -8.257  1.00 24.77    -0.292 N 
HETATM   11  C11   D T 401      -4.938 -17.861  -6.955  1.00 25.67     0.134 C 
HETATM   12  C3    D T 401      -5.093 -15.915  -8.509  1.00 24.44     0.117 A 
ENDROOT
BRANCH   6  13
HETATM   13  N5    D T 401      -6.355 -12.068  -9.277  1.00 24.95    -0.057 NA
BRANCH  13  14
HETATM   14  C7    D T 401      -6.119 -10.952  -8.531  1.00 25.44     0.122 A 
HETATM   15  C20   D T 401      -4.846 -10.525  -8.131  1.00 23.96     0.022 A 
HETATM   16  C19   D T 401      -4.699  -9.369  -7.356  1.00 24.92     0.006 A 
HETATM   17  C18   D T 401      -5.810  -8.613  -6.961  1.00 25.62     0.060 A 
HETATM   18  C17   D T 401      -7.095  -9.004  -7.332  1.00 25.49     0.030 A 
HETATM   19  C16   D T 401      -7.298 -10.147  -8.104  1.00 24.16     0.113 A 
BRANCH  17  20
HETATM   20  C21   D T 401      -5.655  -7.375  -6.121  1.00 26.92     0.275 C 
HETATM   21  O2    D T 401      -6.395  -7.242  -5.159  1.00 30.54    -0.266 OA
HETATM   22  N6    D T 401      -4.734  -6.458  -6.432  1.00 31.16    -0.236 NA
BRANCH  22  23
HETATM   23  C22   D T 401      -4.700  -5.152  -5.793  1.00 34.88     0.111 C 
HETATM   24  C29   D T 401      -3.264  -4.665  -5.611  1.00 36.76     0.048 C 
HETATM   25  C28   D T 401      -3.244  -3.333  -4.858  1.00 38.21     0.099 C 
HETATM   26  N7    D T 401      -4.124  -2.412  -5.580  1.00 37.76    -0.367 N 
HETATM   27  C24   D T 401      -5.510  -2.769  -5.886  1.00 37.52     0.099 C 
HETATM   28  C30   D T 401      -3.619  -1.108  -5.989  1.00 36.85     0.121 C 
HETATM   29  C23   D T 401      -5.470  -4.116  -6.611  1.00 35.87     0.048 C 
ENDBRANCH  22  23
ENDBRANCH  17  20
BRANCH  19  30
HETATM   30  O3    D T 401      -8.565 -10.530  -8.474  1.00 24.11    -0.327 OA
HETATM   31  C31   D T 401      -9.630  -9.584  -8.579  1.00 17.70     0.181 C 
ENDBRANCH  19  30
ENDBRANCH  13  14
ENDBRANCH   6  13
BRANCH   2  32
HETATM   32  C8    D T 401      -3.851 -15.269 -12.096  1.00 24.12     0.083 C 
HETATM   33  C15   D T 401      -4.778 -15.582 -13.265  1.00 23.24     0.022 C 
HETATM   34  C14   D T 401      -3.961 -15.284 -14.522  1.00 24.93     0.002 C 
HETATM   35  C13   D T 401      -2.469 -15.444 -14.136  1.00 23.09     0.002 C 
HETATM   36  C12   D T 401      -2.410 -15.403 -12.600  1.00 23.56     0.022 C 
ENDBRANCH   2  32
BRANCH   4  37
HETATM   37  C9    D T 401      -4.358 -18.370 -11.571  1.00 25.78     0.032 C 
HETATM   38  C10   D T 401      -3.424 -18.973 -12.607  1.00 24.04     0.003 C 
ENDBRANCH   4  37
TORSDOF 7
ENDMDL
MODEL 7
REMARK VINA RESULT:    -6.917      3.425      6.898
REMARK INTER + INTRA:         -11.064
REMARK INTER:                  -9.696
REMARK INTRA:                  -1.368
REMARK UNBOUND:                -1.316
REMARK  7 active torsions:
REMARK  status: ('A' for Active; 'I' for Inactive)
REMARK    1  A    between atoms: N3_2  and  C8_7 
REMARK    2  A    between atoms: C5_4  and  C9_34 
REMARK    3  A    between atoms: C7_6  and  N5_28 
REMARK       I    between atoms: C21_13  and  N6_18 
REMARK    4  A    between atoms: C21_13  and  C18_23 
REMARK    5  A    between atoms: C22_14  and  N6_18 
REMARK    6  A    between atoms: C16_24  and  O3_25 
REMARK    7  A    between atoms: N5_28  and  C1_29 
ROOT
HETATM    1  N1    D T 401      -7.941  -7.704  -7.365  1.00 24.43    -0.056 NA
HETATM    2  N3    D T 401      -6.519  -3.779  -7.286  1.00 24.87    -0.328 N 
HETATM    3  C4    D T 401      -8.792  -6.745  -7.766  1.00 24.33     0.138 A 
HETATM    4  C5    D T 401      -7.386  -2.639  -7.693  1.00 24.68     0.162 A 
HETATM    5  C6    D T 401      -8.749  -3.013  -8.166  1.00 25.06     0.258 A 
HETATM    6  C1    D T 401      -6.675  -7.429  -6.952  1.00 24.96     0.752 A 
HETATM    7  N2    D T 401      -6.218  -6.151  -6.932  1.00 25.42    -0.041 NA
HETATM    8  C2    D T 401      -7.001  -5.113  -7.318  1.00 24.50     0.176 A 
HETATM    9  O1    D T 401      -9.516  -2.083  -8.523  1.00 25.29    -0.270 OA
HETATM   10  N4    D T 401      -9.223  -4.353  -8.171  1.00 24.77    -0.292 N 
HETATM   11  C11   D T 401     -10.596  -4.639  -8.619  1.00 25.67     0.134 C 
HETATM   12  C3    D T 401      -8.382  -5.412  -7.766  1.00 24.44     0.117 A 
ENDROOT
BRANCH   6  13
HETATM   13  N5    D T 401      -5.906  -8.480  -6.569  1.00 24.95    -0.057 NA
BRANCH  13  14
HETATM   14  C7    D T 401      -5.796  -9.716  -7.134  1.00 25.44     0.122 A 
HETATM   15  C20   D T 401      -4.929 -10.025  -8.190  1.00 23.96     0.022 A 
HETATM   16  C19   D T 401      -4.891 -11.322  -8.716  1.00 24.92     0.006 A 
HETATM   17  C18   D T 401      -5.709 -12.338  -8.206  1.00 25.62     0.060 A 
HETATM   18  C17   D T 401      -6.590 -12.072  -7.159  1.00 25.49     0.030 A 
HETATM   19  C16   D T 401      -6.669 -10.798  -6.599  1.00 24.16     0.113 A 
BRANCH  17  20
HETATM   20  C21   D T 401      -5.675 -13.730  -8.775  1.00 26.92     0.275 C 
HETATM   21  O2    D T 401      -5.895 -14.661  -8.016  1.00 30.54    -0.266 OA
HETATM   22  N6    D T 401      -5.407 -13.925 -10.069  1.00 31.16    -0.236 NA
BRANCH  22  23
HETATM   23  C22   D T 401      -5.140 -15.248 -10.611  1.00 34.88     0.111 C 
HETATM   24  C29   D T 401      -6.072 -15.564 -11.778  1.00 36.76     0.048 C 
HETATM   25  C28   D T 401      -5.837 -16.992 -12.276  1.00 38.21     0.099 C 
HETATM   26  N7    D T 401      -4.408 -17.120 -12.572  1.00 37.76    -0.367 N 
HETATM   27  C24   D T 401      -3.393 -16.788 -11.570  1.00 37.52     0.099 C 
HETATM   28  C30   D T 401      -3.986 -17.602 -13.879  1.00 36.85     0.121 C 
HETATM   29  C23   D T 401      -3.694 -15.366 -11.091  1.00 35.87     0.048 C 
ENDBRANCH  22  23
ENDBRANCH  17  20
BRANCH  19  30
HETATM   30  O3    D T 401      -7.533 -10.538  -5.562  1.00 24.11    -0.327 OA
HETATM   31  C31   D T 401      -8.801 -11.189  -5.466  1.00 17.70     0.181 C 
ENDBRANCH  19  30
ENDBRANCH  13  14
ENDBRANCH   6  13
BRANCH   2  32
HETATM   32  C8    D T 401      -5.107  -3.608  -6.848  1.00 24.12     0.083 C 
HETATM   33  C15   D T 401      -4.888  -3.275  -5.377  1.00 23.24     0.022 C 
HETATM   34  C14   D T 401      -3.565  -2.510  -5.326  1.00 24.93     0.002 C 
HETATM   35  C13   D T 401      -3.374  -1.853  -6.716  1.00 23.09     0.002 C 
HETATM   36  C12   D T 401      -4.332  -2.576  -7.676  1.00 23.56     0.022 C 
ENDBRANCH   2  32
BRANCH   4  37
HETATM   37  C9    D T 401      -7.634  -1.700  -6.498  1.00 25.78     0.032 C 
HETATM   38  C10   D T 401      -7.007  -0.327  -6.674  1.00 24.04     0.003 C 
ENDBRANCH   4  37
TORSDOF 7
ENDMDL
MODEL 8
REMARK VINA RESULT:    -6.859      2.843      5.715
REMARK INTER + INTRA:         -10.981
REMARK INTER:                 -10.259
REMARK INTRA:                  -0.722
REMARK UNBOUND:                -1.316
REMARK  7 active torsions:
REMARK  status: ('A' for Active; 'I' for Inactive)
REMARK    1  A    between atoms: N3_2  and  C8_7 
REMARK    2  A    between atoms: C5_4  and  C9_34 
REMARK    3  A    between atoms: C7_6  and  N5_28 
REMARK       I    between atoms: C21_13  and  N6_18 
REMARK    4  A    between atoms: C21_13  and  C18_23 
REMARK    5  A    between atoms: C22_14  and  N6_18 
REMARK    6  A    between atoms: C16_24  and  O3_25 
REMARK    7  A    between atoms: N5_28  and  C1_29 
ROOT
HETATM    1  N1    D T 401      -9.997  -4.726  -8.219  1.00 24.43    -0.056 NA
HETATM    2  N3    D T 401      -6.302  -3.198  -7.017  1.00 24.87    -0.328 N 
HETATM    3  C4    D T 401      -9.904  -3.391  -8.108  1.00 24.33     0.138 A 
HETATM    4  C5    D T 401      -6.096  -1.734  -6.845  1.00 24.68     0.162 A 
HETATM    5  C6    D T 401      -7.271  -0.881  -7.178  1.00 25.06     0.258 A 
HETATM    6  C1    D T 401      -8.950  -5.555  -7.960  1.00 24.96     0.752 A 
HETATM    7  N2    D T 401      -7.751  -5.051  -7.572  1.00 25.42    -0.041 NA
HETATM    8  C2    D T 401      -7.556  -3.716  -7.431  1.00 24.50     0.176 A 
HETATM    9  O1    D T 401      -7.144   0.363  -7.051  1.00 25.29    -0.270 OA
HETATM   10  N4    D T 401      -8.528  -1.418  -7.571  1.00 24.77    -0.292 N 
HETATM   11  C11   D T 401      -9.654  -0.512  -7.848  1.00 25.67     0.134 C 
HETATM   12  C3    D T 401      -8.697  -2.813  -7.711  1.00 24.44     0.117 A 
ENDROOT
BRANCH   6  13
HETATM   13  N5    D T 401      -9.164  -6.888  -8.105  1.00 24.95    -0.057 NA
BRANCH  13  14
HETATM   14  C7    D T 401      -8.302  -7.924  -7.900  1.00 25.44     0.122 A 
HETATM   15  C20   D T 401      -7.104  -7.822  -7.180  1.00 23.96     0.022 A 
HETATM   16  C19   D T 401      -6.274  -8.939  -7.028  1.00 24.92     0.006 A 
HETATM   17  C18   D T 401      -6.613 -10.178  -7.586  1.00 25.62     0.060 A 
HETATM   18  C17   D T 401      -7.791 -10.322  -8.315  1.00 25.49     0.030 A 
HETATM   19  C16   D T 401      -8.655  -9.243  -8.497  1.00 24.16     0.113 A 
BRANCH  17  20
HETATM   20  C21   D T 401      -5.718 -11.377  -7.431  1.00 26.92     0.275 C 
HETATM   21  O2    D T 401      -4.514 -11.183  -7.351  1.00 30.54    -0.266 OA
HETATM   22  N6    D T 401      -6.237 -12.606  -7.386  1.00 31.16    -0.236 NA
BRANCH  22  23
HETATM   23  C22   D T 401      -5.406 -13.798  -7.466  1.00 34.88     0.111 C 
HETATM   24  C29   D T 401      -5.472 -14.603  -6.171  1.00 36.76     0.048 C 
HETATM   25  C28   D T 401      -4.524 -15.803  -6.240  1.00 38.21     0.099 C 
HETATM   26  N7    D T 401      -4.858 -16.552  -7.454  1.00 37.76    -0.367 N 
HETATM   27  C24   D T 401      -4.900 -15.898  -8.762  1.00 37.52     0.099 C 
HETATM   28  C30   D T 401      -5.139 -17.978  -7.363  1.00 36.85     0.121 C 
HETATM   29  C23   D T 401      -5.837 -14.695  -8.625  1.00 35.87     0.048 C 
ENDBRANCH  22  23
ENDBRANCH  17  20
BRANCH  19  30
HETATM   30  O3    D T 401      -9.820  -9.386  -9.211  1.00 24.11    -0.327 OA
HETATM   31  C31   D T 401      -9.965 -10.399 -10.208  1.00 17.70     0.181 C 
ENDBRANCH  19  30
ENDBRANCH  13  14
ENDBRANCH   6  13
BRANCH   2  32
HETATM   32  C8    D T 401      -5.225  -4.200  -6.795  1.00 24.12     0.083 C 
HETATM   33  C15   D T 401      -5.298  -5.001  -5.501  1.00 23.24     0.022 C 
HETATM   34  C14   D T 401      -3.856  -5.397  -5.185  1.00 24.93     0.002 C 
HETATM   35  C13   D T 401      -2.944  -4.340  -5.857  1.00 23.09     0.002 C 
HETATM   36  C12   D T 401      -3.813  -3.610  -6.894  1.00 23.56     0.022 C 
ENDBRANCH   2  32
BRANCH   4  37
HETATM   37  C9    D T 401      -5.783  -1.405  -5.373  1.00 25.78     0.032 C 
HETATM   38  C10   D T 401      -4.474  -0.653  -5.192  1.00 24.04     0.003 C 
ENDBRANCH   4  37
TORSDOF 7
ENDMDL
MODEL 9
REMARK VINA RESULT:    -6.659      1.921      3.696
REMARK INTER + INTRA:         -10.699
REMARK INTER:                 -10.151
REMARK INTRA:                  -0.549
REMARK UNBOUND:                -1.316
REMARK  7 active torsions:
REMARK  status: ('A' for Active; 'I' for Inactive)
REMARK    1  A    between atoms: N3_2  and  C8_7 
REMARK    2  A    between atoms: C5_4  and  C9_34 
REMARK    3  A    between atoms: C7_6  and  N5_28 
REMARK       I    between atoms: C21_13  and  N6_18 
REMARK    4  A    between atoms: C21_13  and  C18_23 
REMARK    5  A    between atoms: C22_14  and  N6_18 
REMARK    6  A    between atoms: C16_24  and  O3_25 
REMARK    7  A    between atoms: N5_28  and  C1_29 
ROOT
HETATM    1  N1    D T 401      -9.055  -3.821  -5.018  1.00 24.43    -0.056 NA
HETATM    2  N3    D T 401      -9.775  -0.171  -6.914  1.00 24.87    -0.328 N 
HETATM    3  C4    D T 401     -10.083  -3.092  -4.554  1.00 24.33     0.138 A 
HETATM    4  C5    D T 401     -10.879   0.722  -6.467  1.00 24.68     0.162 A 
HETATM    5  C6    D T 401     -11.713   0.195  -5.351  1.00 25.06     0.258 A 
HETATM    6  C1    D T 401      -8.276  -3.408  -6.055  1.00 24.96     0.752 A 
HETATM    7  N2    D T 401      -8.518  -2.221  -6.668  1.00 25.42    -0.041 NA
HETATM    8  C2    D T 401      -9.534  -1.414  -6.274  1.00 24.50     0.176 A 
HETATM    9  O1    D T 401     -12.659   0.913  -4.941  1.00 25.29    -0.270 OA
HETATM   10  N4    D T 401     -11.444  -1.044  -4.705  1.00 24.77    -0.292 N 
HETATM   11  C11   D T 401     -12.291  -1.480  -3.584  1.00 25.67     0.134 C 
HETATM   12  C3    D T 401     -10.381  -1.863  -5.142  1.00 24.44     0.117 A 
ENDROOT
BRANCH   6  13
HETATM   13  N5    D T 401      -7.264  -4.228  -6.436  1.00 24.95    -0.057 NA
BRANCH  13  14
HETATM   14  C7    D T 401      -7.319  -5.526  -6.848  1.00 25.44     0.122 A 
HETATM   15  C20   D T 401      -8.289  -6.035  -7.723  1.00 23.96     0.022 A 
HETATM   16  C19   D T 401      -8.274  -7.387  -8.084  1.00 24.92     0.006 A 
HETATM   17  C18   D T 401      -7.299  -8.262  -7.588  1.00 25.62     0.060 A 
HETATM   18  C17   D T 401      -6.319  -7.799  -6.712  1.00 25.49     0.030 A 
HETATM   19  C16   D T 401      -6.288  -6.461  -6.319  1.00 24.16     0.113 A 
BRANCH  17  20
HETATM   20  C21   D T 401      -7.286  -9.717  -7.970  1.00 26.92     0.275 C 
HETATM   21  O2    D T 401      -8.087 -10.092  -8.812  1.00 30.54    -0.266 OA
HETATM   22  N6    D T 401      -6.423 -10.559  -7.395  1.00 31.16    -0.236 NA
BRANCH  22  23
HETATM   23  C22   D T 401      -6.525 -12.000  -7.561  1.00 34.88     0.111 C 
HETATM   24  C29   D T 401      -5.334 -12.550  -8.342  1.00 36.76     0.048 C 
HETATM   25  C28   D T 401      -5.502 -14.052  -8.584  1.00 38.21     0.099 C 
HETATM   26  N7    D T 401      -5.733 -14.680  -7.281  1.00 37.76    -0.367 N 
HETATM   27  C24   D T 401      -6.799 -14.214  -6.392  1.00 37.52     0.099 C 
HETATM   28  C30   D T 401      -4.899 -15.799  -6.865  1.00 36.85     0.121 C 
HETATM   29  C23   D T 401      -6.596 -12.708  -6.209  1.00 35.87     0.048 C 
ENDBRANCH  22  23
ENDBRANCH  17  20
BRANCH  19  30
HETATM   30  O3    D T 401      -5.318  -6.003  -5.459  1.00 24.11    -0.327 OA
HETATM   31  C31   D T 401      -3.978  -5.773  -5.899  1.00 17.70     0.181 C 
ENDBRANCH  19  30
ENDBRANCH  13  14
ENDBRANCH   6  13
BRANCH   2  32
HETATM   32  C8    D T 401      -8.879   0.157  -8.056  1.00 24.12     0.083 C 
HETATM   33  C15   D T 401      -8.972  -0.752  -9.276  1.00 23.24     0.022 C 
HETATM   34  C14   D T 401      -7.601  -0.674  -9.947  1.00 24.93     0.002 C 
HETATM   35  C13   D T 401      -6.581  -0.299  -8.841  1.00 23.09     0.002 C 
HETATM   36  C12   D T 401      -7.400   0.253  -7.663  1.00 23.56     0.022 C 
ENDBRANCH   2  32
BRANCH   4  37
HETATM   37  C9    D T 401     -10.312   2.051  -5.933  1.00 25.78     0.032 C 
HETATM   38  C10   D T 401     -10.637   3.241  -6.820  1.00 24.04     0.003 C 
ENDBRANCH   4  37
TORSDOF 7
ENDMDL
