MODEL 1
REMARK VINA RESULT:    -7.458      0.000      0.000
REMARK INTER + INTRA:         -11.668
REMARK INTER:                 -10.510
REMARK INTRA:                  -1.157
REMARK UNBOUND:                -1.157
REMARK  7 active torsions:
REMARK  status: ('A' for Active; 'I' for Inactive)
REMARK    1  A    between atoms: N3_2  and  C8_7 
REMARK    2  A    between atoms: C5_4  and  C9_34 
REMARK    3  A    between atoms: C7_6  and  N5_28 
REMARK       I    between atoms: C21_13  and  N6_18 
REMARK    4  A    between atoms: C21_13  and  C18_23 
REMARK    5  A    between atoms: C22_14  and  N6_18 
REMARK    6  A    between atoms: C16_24  and  O3_25 
REMARK    7  A    between atoms: N5_28  and  C1_29 
ROOT
HETATM    1  N1    D T 401      11.021  -3.624   2.736  1.00 24.43    -0.056 NA
HETATM    2  N3    D T 401      14.011  -0.815   1.960  1.00 24.87    -0.328 N 
HETATM    3  C4    D T 401      11.829  -3.305   3.760  1.00 24.33     0.138 A 
HETATM    4  C5    D T 401      14.972  -0.404   3.019  1.00 24.68     0.162 A 
HETATM    5  C6    D T 401      14.751  -1.024   4.356  1.00 25.06     0.258 A 
HETATM    6  C1    D T 401      11.152  -3.070   1.502  1.00 24.96     0.752 A 
HETATM    7  N2    D T 401      12.125  -2.155   1.257  1.00 25.42    -0.041 NA
HETATM    8  C2    D T 401      12.992  -1.766   2.224  1.00 24.50     0.176 A 
HETATM    9  O1    D T 401      15.537  -0.703   5.283  1.00 25.29    -0.270 OA
HETATM   10  N4    D T 401      13.737  -1.991   4.599  1.00 24.77    -0.292 N 
HETATM   11  C11   D T 401      13.604  -2.585   5.938  1.00 25.67     0.134 C 
HETATM   12  C3    D T 401      12.850  -2.371   3.570  1.00 24.44     0.117 A 
ENDROOT
BRANCH   6  13
HETATM   13  N5    D T 401      10.277  -3.471   0.545  1.00 24.95    -0.057 NA
BRANCH  13  14
HETATM   14  C7    D T 401       9.960  -2.869  -0.636  1.00 25.44     0.122 A 
HETATM   15  C20   D T 401       9.540  -1.537  -0.756  1.00 23.96     0.022 A 
HETATM   16  C19   D T 401       9.225  -1.006  -2.011  1.00 24.92     0.006 A 
HETATM   17  C18   D T 401       9.318  -1.782  -3.174  1.00 25.62     0.060 A 
HETATM   18  C17   D T 401       9.726  -3.112  -3.099  1.00 25.49     0.030 A 
HETATM   19  C16   D T 401      10.051  -3.692  -1.876  1.00 24.16     0.113 A 
BRANCH  17  20
HETATM   20  C21   D T 401       8.971  -1.214  -4.523  1.00 26.92     0.275 C 
HETATM   21  O2    D T 401       8.741  -1.999  -5.430  1.00 30.54    -0.266 OA
HETATM   22  N6    D T 401       8.924   0.108  -4.708  1.00 31.16    -0.236 NA
BRANCH  22  23
HETATM   23  C22   D T 401       8.819   0.698  -6.033  1.00 34.88     0.111 C 
HETATM   24  C29   D T 401       7.381   0.651  -6.546  1.00 36.76     0.048 C 
HETATM   25  C28   D T 401       7.306   1.194  -7.975  1.00 38.21     0.099 C 
HETATM   26  N7    D T 401       7.917   2.524  -7.967  1.00 37.76    -0.367 N 
HETATM   27  C24   D T 401       9.268   2.737  -7.443  1.00 37.52     0.099 C 
HETATM   28  C30   D T 401       7.176   3.658  -8.503  1.00 36.85     0.121 C 
HETATM   29  C23   D T 401       9.290   2.151  -6.030  1.00 35.87     0.048 C 
ENDBRANCH  22  23
ENDBRANCH  17  20
BRANCH  19  30
HETATM   30  O3    D T 401      10.459  -5.003  -1.802  1.00 24.11    -0.327 OA
HETATM   31  C31   D T 401       9.541  -6.081  -1.999  1.00 17.70     0.181 C 
ENDBRANCH  19  30
ENDBRANCH  13  14
ENDBRANCH   6  13
BRANCH   2  32
HETATM   32  C8    D T 401      14.034  -0.255   0.581  1.00 24.12     0.083 C 
HETATM   33  C15   D T 401      14.901  -0.989  -0.436  1.00 23.24     0.022 C 
HETATM   34  C14   D T 401      15.301   0.068  -1.466  1.00 24.93     0.002 C 
HETATM   35  C13   D T 401      15.250   1.439  -0.746  1.00 23.09     0.002 C 
HETATM   36  C12   D T 401      14.419   1.228   0.531  1.00 23.56     0.022 C 
ENDBRANCH   2  32
BRANCH   4  37
HETATM   37  C9    D T 401      16.405  -0.816   2.633  1.00 25.78     0.032 C 
HETATM   38  C10   D T 401      16.575  -2.318   2.469  1.00 24.04     0.003 C 
ENDBRANCH   4  37
TORSDOF 7
ENDMDL
MODEL 2
REMARK VINA RESULT:    -7.300      1.169      1.365
REMARK INTER + INTRA:         -11.444
REMARK INTER:                 -10.359
REMARK INTRA:                  -1.085
REMARK UNBOUND:                -1.157
REMARK  7 active torsions:
REMARK  status: ('A' for Active; 'I' for Inactive)
REMARK    1  A    between atoms: N3_2  and  C8_7 
REMARK    2  A    between atoms: C5_4  and  C9_34 
REMARK    3  A    between atoms: C7_6  and  N5_28 
REMARK       I    between atoms: C21_13  and  N6_18 
REMARK    4  A    between atoms: C21_13  and  C18_23 
REMARK    5  A    between atoms: C22_14  and  N6_18 
REMARK    6  A    between atoms: C16_24  and  O3_25 
REMARK    7  A    between atoms: N5_28  and  C1_29 
ROOT
HETATM    1  N1    D T 401       9.852  -4.544   3.009  1.00 24.43    -0.056 NA
HETATM    2  N3    D T 401      13.025  -1.836   2.827  1.00 24.87    -0.328 N 
HETATM    3  C4    D T 401      10.617  -4.437   4.107  1.00 24.33     0.138 A 
HETATM    4  C5    D T 401      13.944  -1.652   3.981  1.00 24.68     0.162 A 
HETATM    5  C6    D T 401      13.617  -2.456   5.192  1.00 25.06     0.258 A 
HETATM    6  C1    D T 401      10.082  -3.815   1.885  1.00 24.96     0.752 A 
HETATM    7  N2    D T 401      11.113  -2.934   1.833  1.00 25.42    -0.041 NA
HETATM    8  C2    D T 401      11.943  -2.753   2.890  1.00 24.50     0.176 A 
HETATM    9  O1    D T 401      14.365  -2.331   6.195  1.00 25.29    -0.270 OA
HETATM   10  N4    D T 401      12.542  -3.386   5.233  1.00 24.77    -0.292 N 
HETATM   11  C11   D T 401      12.302  -4.171   6.454  1.00 25.67     0.134 C 
HETATM   12  C3    D T 401      11.694  -3.548   4.115  1.00 24.44     0.117 A 
ENDROOT
BRANCH   6  13
HETATM   13  N5    D T 401       9.242  -4.010   0.836  1.00 24.95    -0.057 NA
BRANCH  13  14
HETATM   14  C7    D T 401       9.186  -3.348  -0.354  1.00 25.44     0.122 A 
HETATM   15  C20   D T 401       9.343  -1.963  -0.495  1.00 23.96     0.022 A 
HETATM   16  C19   D T 401       9.258  -1.367  -1.758  1.00 24.92     0.006 A 
HETATM   17  C18   D T 401       9.017  -2.130  -2.907  1.00 25.62     0.060 A 
HETATM   18  C17   D T 401       8.848  -3.510  -2.812  1.00 25.49     0.030 A 
HETATM   19  C16   D T 401       8.922  -4.155  -1.579  1.00 24.16     0.113 A 
BRANCH  17  20
HETATM   20  C21   D T 401       8.917  -1.490  -4.265  1.00 26.92     0.275 C 
HETATM   21  O2    D T 401       8.924  -2.221  -5.242  1.00 30.54    -0.266 OA
HETATM   22  N6    D T 401       8.828  -0.162  -4.380  1.00 31.16    -0.236 NA
BRANCH  22  23
HETATM   23  C22   D T 401       8.959   0.511  -5.663  1.00 34.88     0.111 C 
HETATM   24  C29   D T 401       7.590   0.801  -6.276  1.00 36.76     0.048 C 
HETATM   25  C28   D T 401       7.749   1.427  -7.664  1.00 38.21     0.099 C 
HETATM   26  N7    D T 401       8.621   2.594  -7.516  1.00 37.76    -0.367 N 
HETATM   27  C24   D T 401       9.938   2.483  -6.887  1.00 37.52     0.099 C 
HETATM   28  C30   D T 401       8.180   3.888  -8.019  1.00 36.85     0.121 C 
HETATM   29  C23   D T 401       9.721   1.828  -5.522  1.00 35.87     0.048 C 
ENDBRANCH  22  23
ENDBRANCH  17  20
BRANCH  19  30
HETATM   30  O3    D T 401       8.762  -5.517  -1.485  1.00 24.11    -0.327 OA
HETATM   31  C31   D T 401       9.824  -6.416  -1.807  1.00 17.70     0.181 C 
ENDBRANCH  19  30
ENDBRANCH  13  14
ENDBRANCH   6  13
BRANCH   2  32
HETATM   32  C8    D T 401      13.154  -1.072   1.556  1.00 24.12     0.083 C 
HETATM   33  C15   D T 401      13.989  -1.719   0.456  1.00 23.24     0.022 C 
HETATM   34  C14   D T 401      14.526  -0.559  -0.382  1.00 24.93     0.002 C 
HETATM   35  C13   D T 401      14.574   0.681   0.547  1.00 23.09     0.002 C 
HETATM   36  C12   D T 401      13.678   0.356   1.753  1.00 23.56     0.022 C 
ENDBRANCH   2  32
BRANCH   4  37
HETATM   37  C9    D T 401      15.374  -2.085   3.604  1.00 25.78     0.032 C 
HETATM   38  C10   D T 401      15.472  -3.550   3.208  1.00 24.04     0.003 C 
ENDBRANCH   4  37
TORSDOF 7
ENDMDL
MODEL 3
REMARK VINA RESULT:    -7.200      2.778      5.402
REMARK INTER + INTRA:         -11.303
REMARK INTER:                  -9.847
REMARK INTRA:                  -1.456
REMARK UNBOUND:                -1.157
REMARK  7 active torsions:
REMARK  status: ('A' for Active; 'I' for Inactive)
REMARK    1  A    between atoms: N3_2  and  C8_7 
REMARK    2  A    between atoms: C5_4  and  C9_34 
REMARK    3  A    between atoms: C7_6  and  N5_28 
REMARK       I    between atoms: C21_13  and  N6_18 
REMARK    4  A    between atoms: C21_13  and  C18_23 
REMARK    5  A    between atoms: C22_14  and  N6_18 
REMARK    6  A    between atoms: C16_24  and  O3_25 
REMARK    7  A    between atoms: N5_28  and  C1_29 
ROOT
HETATM    1  N1    D T 401      12.325  -3.235   3.057  1.00 24.43    -0.056 NA
HETATM    2  N3    D T 401      10.884  -6.776   1.377  1.00 24.87    -0.328 N 
HETATM    3  C4    D T 401      12.581  -4.369   3.729  1.00 24.33     0.138 A 
HETATM    4  C5    D T 401      11.097  -8.086   2.049  1.00 24.68     0.162 A 
HETATM    5  C6    D T 401      11.888  -8.035   3.310  1.00 25.06     0.258 A 
HETATM    6  C1    D T 401      11.635  -3.220   1.886  1.00 24.96     0.752 A 
HETATM    7  N2    D T 401      11.171  -4.375   1.344  1.00 25.42    -0.041 NA
HETATM    8  C2    D T 401      11.378  -5.573   1.945  1.00 24.50     0.176 A 
HETATM    9  O1    D T 401      12.096  -9.120   3.911  1.00 25.29    -0.270 OA
HETATM   10  N4    D T 401      12.359  -6.819   3.877  1.00 24.77    -0.292 N 
HETATM   11  C11   D T 401      13.104  -6.846   5.145  1.00 25.67     0.134 C 
HETATM   12  C3    D T 401      12.129  -5.589   3.223  1.00 24.44     0.117 A 
ENDROOT
BRANCH   6  13
HETATM   13  N5    D T 401      11.437  -2.012   1.298  1.00 24.95    -0.057 NA
BRANCH  13  14
HETATM   14  C7    D T 401      11.081  -1.731   0.012  1.00 25.44     0.122 A 
HETATM   15  C20   D T 401       9.768  -1.474  -0.405  1.00 23.96     0.022 A 
HETATM   16  C19   D T 401       9.494  -1.205  -1.750  1.00 24.92     0.006 A 
HETATM   17  C18   D T 401      10.513  -1.185  -2.710  1.00 25.62     0.060 A 
HETATM   18  C17   D T 401      11.832  -1.442  -2.340  1.00 25.49     0.030 A 
HETATM   19  C16   D T 401      12.162  -1.716  -1.014  1.00 24.16     0.113 A 
BRANCH  17  20
HETATM   20  C21   D T 401      10.219  -0.904  -4.159  1.00 26.92     0.275 C 
HETATM   21  O2    D T 401      11.085  -1.169  -4.978  1.00 30.54    -0.266 OA
HETATM   22  N6    D T 401       9.045  -0.380  -4.520  1.00 31.16    -0.236 NA
BRANCH  22  23
HETATM   23  C22   D T 401       8.803   0.116  -5.866  1.00 34.88     0.111 C 
HETATM   24  C29   D T 401       7.571  -0.542  -6.483  1.00 36.76     0.048 C 
HETATM   25  C28   D T 401       7.385  -0.075  -7.929  1.00 38.21     0.099 C 
HETATM   26  N7    D T 401       7.363   1.389  -7.913  1.00 37.76    -0.367 N 
HETATM   27  C24   D T 401       8.446   2.158  -7.296  1.00 37.52     0.099 C 
HETATM   28  C30   D T 401       6.253   2.097  -8.536  1.00 36.85     0.121 C 
HETATM   29  C23   D T 401       8.604   1.631  -5.869  1.00 35.87     0.048 C 
ENDBRANCH  22  23
ENDBRANCH  17  20
BRANCH  19  30
HETATM   30  O3    D T 401      13.462  -1.963  -0.648  1.00 24.11    -0.327 OA
HETATM   31  C31   D T 401      14.555  -1.283  -1.269  1.00 17.70     0.181 C 
ENDBRANCH  19  30
ENDBRANCH  13  14
ENDBRANCH   6  13
BRANCH   2  32
HETATM   32  C8    D T 401      10.173  -6.635   0.077  1.00 24.12     0.083 C 
HETATM   33  C15   D T 401       8.657  -6.488   0.144  1.00 23.24     0.022 C 
HETATM   34  C14   D T 401       8.136  -7.036  -1.185  1.00 24.93     0.002 C 
HETATM   35  C13   D T 401       9.191  -8.049  -1.696  1.00 23.09     0.002 C 
HETATM   36  C12   D T 401      10.483  -7.765  -0.913  1.00 23.56     0.022 C 
ENDBRANCH   2  32
BRANCH   4  37
HETATM   37  C9    D T 401       9.747  -8.702   2.464  1.00 25.78     0.032 C 
HETATM   38  C10   D T 401       8.971  -7.841   3.448  1.00 24.04     0.003 C 
ENDBRANCH   4  37
TORSDOF 7
ENDMDL
MODEL 4
REMARK VINA RESULT:    -7.122      3.737     10.169
REMARK INTER + INTRA:         -11.194
REMARK INTER:                  -9.756
REMARK INTRA:                  -1.437
REMARK UNBOUND:                -1.157
REMARK  7 active torsions:
REMARK  status: ('A' for Active; 'I' for Inactive)
REMARK    1  A    between atoms: N3_2  and  C8_7 
REMARK    2  A    between atoms: C5_4  and  C9_34 
REMARK    3  A    between atoms: C7_6  and  N5_28 
REMARK       I    between atoms: C21_13  and  N6_18 
REMARK    4  A    between atoms: C21_13  and  C18_23 
REMARK    5  A    between atoms: C22_14  and  N6_18 
REMARK    6  A    between atoms: C16_24  and  O3_25 
REMARK    7  A    between atoms: N5_28  and  C1_29 
ROOT
HETATM    1  N1    D T 401      11.749  -3.103  -0.107  1.00 24.43    -0.056 NA
HETATM    2  N3    D T 401      10.211  -1.475  -3.631  1.00 24.87    -0.328 N 
HETATM    3  C4    D T 401      11.043  -3.930  -0.895  1.00 24.33     0.138 A 
HETATM    4  C5    D T 401       9.398  -2.299  -4.566  1.00 24.68     0.162 A 
HETATM    5  C6    D T 401       9.228  -3.727  -4.176  1.00 25.06     0.258 A 
HETATM    6  C1    D T 401      11.966  -1.799  -0.425  1.00 24.96     0.752 A 
HETATM    7  N2    D T 401      11.465  -1.277  -1.573  1.00 25.42    -0.041 NA
HETATM    8  C2    D T 401      10.738  -2.030  -2.436  1.00 24.50     0.176 A 
HETATM    9  O1    D T 401       8.551  -4.463  -4.938  1.00 25.29    -0.270 OA
HETATM   10  N4    D T 401       9.745  -4.262  -2.964  1.00 24.77    -0.292 N 
HETATM   11  C11   D T 401       9.505  -5.674  -2.629  1.00 25.67     0.134 C 
HETATM   12  C3    D T 401      10.501  -3.451  -2.089  1.00 24.44     0.117 A 
ENDROOT
BRANCH   6  13
HETATM   13  N5    D T 401      12.695  -1.060   0.450  1.00 24.95    -0.057 NA
BRANCH  13  14
HETATM   14  C7    D T 401      14.038  -1.080   0.682  1.00 25.44     0.122 A 
HETATM   15  C20   D T 401      14.661  -1.883   1.646  1.00 23.96     0.022 A 
HETATM   16  C19   D T 401      16.048  -1.829   1.821  1.00 24.92     0.006 A 
HETATM   17  C18   D T 401      16.847  -0.980   1.045  1.00 25.62     0.060 A 
HETATM   18  C17   D T 401      16.267  -0.160   0.078  1.00 25.49     0.030 A 
HETATM   19  C16   D T 401      14.891  -0.173  -0.138  1.00 24.16     0.113 A 
BRANCH  17  20
HETATM   20  C21   D T 401      18.338  -0.915   1.237  1.00 26.92     0.275 C 
HETATM   21  O2    D T 401      18.757  -0.448   2.284  1.00 30.54    -0.266 OA
HETATM   22  N6    D T 401      19.161  -1.355   0.282  1.00 31.16    -0.236 NA
BRANCH  22  23
HETATM   23  C22   D T 401      20.594  -1.106   0.325  1.00 34.88     0.111 C 
HETATM   24  C29   D T 401      21.353  -2.337   0.816  1.00 36.76     0.048 C 
HETATM   25  C28   D T 401      22.847  -2.028   0.939  1.00 38.21     0.099 C 
HETATM   26  N7    D T 401      23.290  -1.501  -0.353  1.00 37.76    -0.367 N 
HETATM   27  C24   D T 401      22.615  -0.364  -0.982  1.00 37.52     0.099 C 
HETATM   28  C30   D T 401      24.434  -2.108  -1.021  1.00 36.85     0.121 C 
HETATM   29  C23   D T 401      21.129  -0.718  -1.052  1.00 35.87     0.048 C 
ENDBRANCH  22  23
ENDBRANCH  17  20
BRANCH  19  30
HETATM   30  O3    D T 401      14.320   0.631  -1.095  1.00 24.11    -0.327 OA
HETATM   31  C31   D T 401      14.767   1.972  -1.305  1.00 17.70     0.181 C 
ENDBRANCH  19  30
ENDBRANCH  13  14
ENDBRANCH   6  13
BRANCH   2  32
HETATM   32  C8    D T 401      10.542  -0.047  -3.885  1.00 24.12     0.083 C 
HETATM   33  C15   D T 401       9.436   0.966  -3.611  1.00 23.24     0.022 C 
HETATM   34  C14   D T 401       9.730   2.149  -4.535  1.00 24.93     0.002 C 
HETATM   35  C13   D T 401      10.532   1.590  -5.737  1.00 23.09     0.002 C 
HETATM   36  C12   D T 401      11.067   0.215  -5.302  1.00 23.56     0.022 C 
ENDBRANCH   2  32
BRANCH   4  37
HETATM   37  C9    D T 401       7.962  -1.749  -4.659  1.00 25.78     0.032 C 
HETATM   38  C10   D T 401       7.626  -1.176  -6.027  1.00 24.04     0.003 C 
ENDBRANCH   4  37
TORSDOF 7
ENDMDL
MODEL 5
REMARK VINA RESULT:    -7.099      3.945     10.045
REMARK INTER + INTRA:         -11.162
REMARK INTER:                  -9.616
REMARK INTRA:                  -1.546
REMARK UNBOUND:                -1.157
REMARK  7 active torsions:
REMARK  status: ('A' for Active; 'I' for Inactive)
REMARK    1  A    between atoms: N3_2  and  C8_7 
REMARK    2  A    between atoms: C5_4  and  C9_34 
REMARK    3  A    between atoms: C7_6  and  N5_28 
REMARK       I    between atoms: C21_13  and  N6_18 
REMARK    4  A    between atoms: C21_13  and  C18_23 
REMARK    5  A    between atoms: C22_14  and  N6_18 
REMARK    6  A    between atoms: C16_24  and  O3_25 
REMARK    7  A    between atoms: N5_28  and  C1_29 
ROOT
HETATM    1  N1    D T 401      11.918  -3.211  -0.216  1.00 24.43    -0.056 NA
HETATM    2  N3    D T 401      10.277  -1.497  -3.651  1.00 24.87    -0.328 N 
HETATM    3  C4    D T 401      11.151  -4.006  -0.979  1.00 24.33     0.138 A 
HETATM    4  C5    D T 401       9.398  -2.284  -4.557  1.00 24.68     0.162 A 
HETATM    5  C6    D T 401       9.199  -3.710  -4.173  1.00 25.06     0.258 A 
HETATM    6  C1    D T 401      12.162  -1.911  -0.530  1.00 24.96     0.752 A 
HETATM    7  N2    D T 401      11.628  -1.361  -1.650  1.00 25.42    -0.041 NA
HETATM    8  C2    D T 401      10.839  -2.080  -2.486  1.00 24.50     0.176 A 
HETATM    9  O1    D T 401       8.466  -4.415  -4.911  1.00 25.29    -0.270 OA
HETATM   10  N4    D T 401       9.753  -4.274  -2.990  1.00 24.77    -0.292 N 
HETATM   11  C11   D T 401       9.482  -5.681  -2.659  1.00 25.67     0.134 C 
HETATM   12  C3    D T 401      10.572  -3.497  -2.143  1.00 24.44     0.117 A 
ENDROOT
BRANCH   6  13
HETATM   13  N5    D T 401      12.953  -1.205   0.318  1.00 24.95    -0.057 NA
BRANCH  13  14
HETATM   14  C7    D T 401      14.250  -0.819   0.162  1.00 25.44     0.122 A 
HETATM   15  C20   D T 401      14.649   0.386  -0.431  1.00 23.96     0.022 A 
HETATM   16  C19   D T 401      16.008   0.695  -0.559  1.00 24.92     0.006 A 
HETATM   17  C18   D T 401      17.000  -0.183  -0.102  1.00 25.62     0.060 A 
HETATM   18  C17   D T 401      16.647  -1.395   0.488  1.00 25.49     0.030 A 
HETATM   19  C16   D T 401      15.309  -1.753   0.640  1.00 24.16     0.113 A 
BRANCH  17  20
HETATM   20  C21   D T 401      18.461   0.143  -0.247  1.00 26.92     0.275 C 
HETATM   21  O2    D T 401      18.766   1.301  -0.486  1.00 30.54    -0.266 OA
HETATM   22  N6    D T 401      19.383  -0.815  -0.118  1.00 31.16    -0.236 NA
BRANCH  22  23
HETATM   23  C22   D T 401      20.777  -0.597  -0.471  1.00 34.88     0.111 C 
HETATM   24  C29   D T 401      21.623  -0.317   0.769  1.00 36.76     0.048 C 
HETATM   25  C28   D T 401      23.066  -0.002   0.370  1.00 38.21     0.099 C 
HETATM   26  N7    D T 401      23.538  -1.109  -0.464  1.00 37.76    -0.367 N 
HETATM   27  C24   D T 401      22.795  -1.535  -1.651  1.00 37.52     0.099 C 
HETATM   28  C30   D T 401      24.778  -1.790  -0.119  1.00 36.85     0.121 C 
HETATM   29  C23   D T 401      21.359  -1.808  -1.198  1.00 35.87     0.048 C 
ENDBRANCH  22  23
ENDBRANCH  17  20
BRANCH  19  30
HETATM   30  O3    D T 401      14.961  -2.946   1.228  1.00 24.11    -0.327 OA
HETATM   31  C31   D T 401      15.269  -4.198   0.612  1.00 17.70     0.181 C 
ENDBRANCH  19  30
ENDBRANCH  13  14
ENDBRANCH   6  13
BRANCH   2  32
HETATM   32  C8    D T 401      10.643  -0.077  -3.907  1.00 24.12     0.083 C 
HETATM   33  C15   D T 401       9.593   0.970  -3.551  1.00 23.24     0.022 C 
HETATM   34  C14   D T 401       9.871   2.155  -4.476  1.00 24.93     0.002 C 
HETATM   35  C13   D T 401      10.578   1.587  -5.733  1.00 23.09     0.002 C 
HETATM   36  C12   D T 401      11.089   0.189  -5.350  1.00 23.56     0.022 C 
ENDBRANCH   2  32
BRANCH   4  37
HETATM   37  C9    D T 401       7.978  -1.687  -4.580  1.00 25.78     0.032 C 
HETATM   38  C10   D T 401       7.610  -1.063  -5.917  1.00 24.04     0.003 C 
ENDBRANCH   4  37
TORSDOF 7
ENDMDL
MODEL 6
REMARK VINA RESULT:    -7.043      3.054      5.814
REMARK INTER + INTRA:         -11.082
REMARK INTER:                 -10.474
REMARK INTRA:                  -0.608
REMARK UNBOUND:                -1.157
REMARK  7 active torsions:
REMARK  status: ('A' for Active; 'I' for Inactive)
REMARK    1  A    between atoms: N3_2  and  C8_7 
REMARK    2  A    between atoms: C5_4  and  C9_34 
REMARK    3  A    between atoms: C7_6  and  N5_28 
REMARK       I    between atoms: C21_13  and  N6_18 
REMARK    4  A    between atoms: C21_13  and  C18_23 
REMARK    5  A    between atoms: C22_14  and  N6_18 
REMARK    6  A    between atoms: C16_24  and  O3_25 
REMARK    7  A    between atoms: N5_28  and  C1_29 
ROOT
HETATM    1  N1    D T 401       9.679  -5.091   0.470  1.00 24.43    -0.056 NA
HETATM    2  N3    D T 401       9.611  -5.971   4.551  1.00 24.87    -0.328 N 
HETATM    3  C4    D T 401       9.360  -6.350   0.810  1.00 24.33     0.138 A 
HETATM    4  C5    D T 401       9.288  -7.340   5.036  1.00 24.68     0.162 A 
HETATM    5  C6    D T 401       8.951  -8.329   3.974  1.00 25.06     0.258 A 
HETATM    6  C1    D T 401       9.965  -4.135   1.393  1.00 24.96     0.752 A 
HETATM    7  N2    D T 401       9.939  -4.427   2.719  1.00 25.42    -0.041 NA
HETATM    8  C2    D T 401       9.629  -5.670   3.164  1.00 24.50     0.176 A 
HETATM    9  O1    D T 401       8.668  -9.499   4.337  1.00 25.29    -0.270 OA
HETATM   10  N4    D T 401       8.994  -8.017   2.587  1.00 24.77    -0.292 N 
HETATM   11  C11   D T 401       8.682  -9.059   1.596  1.00 25.67     0.134 C 
HETATM   12  C3    D T 401       9.318  -6.712   2.158  1.00 24.44     0.117 A 
ENDROOT
BRANCH   6  13
HETATM   13  N5    D T 401      10.275  -2.897   0.930  1.00 24.95    -0.057 NA
BRANCH  13  14
HETATM   14  C7    D T 401      10.130  -2.389  -0.327  1.00 25.44     0.122 A 
HETATM   15  C20   D T 401       8.895  -2.171  -0.952  1.00 23.96     0.022 A 
HETATM   16  C19   D T 401       8.843  -1.655  -2.252  1.00 24.92     0.006 A 
HETATM   17  C18   D T 401      10.012  -1.344  -2.959  1.00 25.62     0.060 A 
HETATM   18  C17   D T 401      11.261  -1.551  -2.376  1.00 25.49     0.030 A 
HETATM   19  C16   D T 401      11.371  -2.063  -1.085  1.00 24.16     0.113 A 
BRANCH  17  20
HETATM   20  C21   D T 401       9.958  -0.798  -4.359  1.00 26.92     0.275 C 
HETATM   21  O2    D T 401      10.942  -0.943  -5.067  1.00 30.54    -0.266 OA
HETATM   22  N6    D T 401       8.862  -0.173  -4.798  1.00 31.16    -0.236 NA
BRANCH  22  23
HETATM   23  C22   D T 401       8.845   0.565  -6.051  1.00 34.88     0.111 C 
HETATM   24  C29   D T 401       7.496   0.428  -6.754  1.00 36.76     0.048 C 
HETATM   25  C28   D T 401       7.527   1.136  -8.111  1.00 38.21     0.099 C 
HETATM   26  N7    D T 401       7.964   2.513  -7.873  1.00 37.76    -0.367 N 
HETATM   27  C24   D T 401       9.206   2.802  -7.153  1.00 37.52     0.099 C 
HETATM   28  C30   D T 401       7.160   3.619  -8.374  1.00 36.85     0.121 C 
HETATM   29  C23   D T 401       9.130   2.049  -5.823  1.00 35.87     0.048 C 
ENDBRANCH  22  23
ENDBRANCH  17  20
BRANCH  19  30
HETATM   30  O3    D T 401      12.602  -2.262  -0.508  1.00 24.11    -0.327 OA
HETATM   31  C31   D T 401      13.253  -1.229   0.235  1.00 17.70     0.181 C 
ENDBRANCH  19  30
ENDBRANCH  13  14
ENDBRANCH   6  13
BRANCH   2  32
HETATM   32  C8    D T 401       9.910  -4.835   5.465  1.00 24.12     0.083 C 
HETATM   33  C15   D T 401      11.296  -4.211   5.343  1.00 23.24     0.022 C 
HETATM   34  C14   D T 401      11.598  -3.620   6.720  1.00 24.93     0.002 C 
HETATM   35  C13   D T 401      10.766  -4.428   7.748  1.00 23.09     0.002 C 
HETATM   36  C12   D T 401       9.682  -5.167   6.945  1.00 23.56     0.022 C 
ENDBRANCH   2  32
BRANCH   4  37
HETATM   37  C9    D T 401      10.500  -7.952   5.764  1.00 25.78     0.032 C 
HETATM   38  C10   D T 401      11.756  -7.994   4.908  1.00 24.04     0.003 C 
ENDBRANCH   4  37
TORSDOF 7
ENDMDL
MODEL 7
REMARK VINA RESULT:    -6.557      3.363      5.354
REMARK INTER + INTRA:         -10.397
REMARK INTER:                  -9.161
REMARK INTRA:                  -1.236
REMARK UNBOUND:                -1.157
REMARK  7 active torsions:
REMARK  status: ('A' for Active; 'I' for Inactive)
REMARK    1  A    between atoms: N3_2  and  C8_7 
REMARK    2  A    between atoms: C5_4  and  C9_34 
REMARK    3  A    between atoms: C7_6  and  N5_28 
REMARK       I    between atoms: C21_13  and  N6_18 
REMARK    4  A    between atoms: C21_13  and  C18_23 
REMARK    5  A    between atoms: C22_14  and  N6_18 
REMARK    6  A    between atoms: C16_24  and  O3_25 
REMARK    7  A    between atoms: N5_28  and  C1_29 
ROOT
HETATM    1  N1    D T 401      12.122  -4.119   0.267  1.00 24.43    -0.056 NA
HETATM    2  N3    D T 401      11.799  -6.996   3.276  1.00 24.87    -0.328 N 
HETATM    3  C4    D T 401      13.229  -4.824   0.549  1.00 24.33     0.138 A 
HETATM    4  C5    D T 401      12.970  -7.820   3.679  1.00 24.68     0.162 A 
HETATM    5  C6    D T 401      14.220  -7.574   2.905  1.00 25.06     0.258 A 
HETATM    6  C1    D T 401      10.944  -4.319   0.916  1.00 24.96     0.752 A 
HETATM    7  N2    D T 401      10.845  -5.258   1.892  1.00 25.42    -0.041 NA
HETATM    8  C2    D T 401      11.907  -6.022   2.250  1.00 24.50     0.176 A 
HETATM    9  O1    D T 401      15.236  -8.250   3.209  1.00 25.29    -0.270 OA
HETATM   10  N4    D T 401      14.317  -6.579   1.894  1.00 24.77    -0.292 N 
HETATM   11  C11   D T 401      15.596  -6.370   1.198  1.00 25.67     0.134 C 
HETATM   12  C3    D T 401      13.191  -5.803   1.543  1.00 24.44     0.117 A 
ENDROOT
BRANCH   6  13
HETATM   13  N5    D T 401       9.892  -3.545   0.546  1.00 24.95    -0.057 NA
BRANCH  13  14
HETATM   14  C7    D T 401       9.657  -2.929  -0.647  1.00 25.44     0.122 A 
HETATM   15  C20   D T 401       9.944  -1.583  -0.910  1.00 23.96     0.022 A 
HETATM   16  C19   D T 401       9.657  -1.031  -2.164  1.00 24.92     0.006 A 
HETATM   17  C18   D T 401       9.081  -1.801  -3.183  1.00 25.62     0.060 A 
HETATM   18  C17   D T 401       8.774  -3.142  -2.962  1.00 25.49     0.030 A 
HETATM   19  C16   D T 401       9.038  -3.742  -1.732  1.00 24.16     0.113 A 
BRANCH  17  20
HETATM   20  C21   D T 401       8.765  -1.207  -4.529  1.00 26.92     0.275 C 
HETATM   21  O2    D T 401       8.452  -1.970  -5.429  1.00 30.54    -0.266 OA
HETATM   22  N6    D T 401       8.832   0.113  -4.716  1.00 31.16    -0.236 NA
BRANCH  22  23
HETATM   23  C22   D T 401       8.759   0.709  -6.042  1.00 34.88     0.111 C 
HETATM   24  C29   D T 401       7.334   0.663  -6.589  1.00 36.76     0.048 C 
HETATM   25  C28   D T 401       7.294   1.211  -8.018  1.00 38.21     0.099 C 
HETATM   26  N7    D T 401       7.904   2.542  -7.989  1.00 37.76    -0.367 N 
HETATM   27  C24   D T 401       9.241   2.752  -7.433  1.00 37.52     0.099 C 
HETATM   28  C30   D T 401       7.176   3.677  -8.540  1.00 36.85     0.121 C 
HETATM   29  C23   D T 401       9.229   2.162  -6.021  1.00 35.87     0.048 C 
ENDBRANCH  22  23
ENDBRANCH  17  20
BRANCH  19  30
HETATM   30  O3    D T 401       8.741  -5.066  -1.516  1.00 24.11    -0.327 OA
HETATM   31  C31   D T 401       9.565  -6.111  -2.038  1.00 17.70     0.181 C 
ENDBRANCH  19  30
ENDBRANCH  13  14
ENDBRANCH   6  13
BRANCH   2  32
HETATM   32  C8    D T 401      10.452  -7.146   3.890  1.00 24.12     0.083 C 
HETATM   33  C15   D T 401      10.228  -6.435   5.220  1.00 23.24     0.022 C 
HETATM   34  C14   D T 401       9.143  -7.241   5.935  1.00 24.93     0.002 C 
HETATM   35  C13   D T 401       9.219  -8.686   5.378  1.00 23.09     0.002 C 
HETATM   36  C12   D T 401      10.021  -8.607   4.069  1.00 23.56     0.022 C 
ENDBRANCH   2  32
BRANCH   4  37
HETATM   37  C9    D T 401      13.357  -7.527   5.141  1.00 25.78     0.032 C 
HETATM   38  C10   D T 401      13.159  -8.719   6.065  1.00 24.04     0.003 C 
ENDBRANCH   4  37
TORSDOF 7
ENDMDL
MODEL 8
REMARK VINA RESULT:    -6.287     16.061     18.373
REMARK INTER + INTRA:         -10.017
REMARK INTER:                  -8.435
REMARK INTRA:                  -1.582
REMARK UNBOUND:                -1.157
REMARK  7 active torsions:
REMARK  status: ('A' for Active; 'I' for Inactive)
REMARK    1  A    between atoms: N3_2  and  C8_7 
REMARK    2  A    between atoms: C5_4  and  C9_34 
REMARK    3  A    between atoms: C7_6  and  N5_28 
REMARK       I    between atoms: C21_13  and  N6_18 
REMARK    4  A    between atoms: C21_13  and  C18_23 
REMARK    5  A    between atoms: C22_14  and  N6_18 
REMARK    6  A    between atoms: C16_24  and  O3_25 
REMARK    7  A    between atoms: N5_28  and  C1_29 
ROOT
HETATM    1  N1    D T 401      23.074   9.043  -8.332  1.00 24.43    -0.056 NA
HETATM    2  N3    D T 401      20.005  11.023 -10.357  1.00 24.87    -0.328 N 
HETATM    3  C4    D T 401      22.170   9.688  -7.577  1.00 24.33     0.138 A 
HETATM    4  C5    D T 401      18.962  11.782  -9.617  1.00 24.68     0.162 A 
HETATM    5  C6    D T 401      19.073  11.737  -8.132  1.00 25.06     0.258 A 
HETATM    6  C1    D T 401      23.008   9.022  -9.690  1.00 24.96     0.752 A 
HETATM    7  N2    D T 401      22.007   9.666 -10.342  1.00 25.42    -0.041 NA
HETATM    8  C2    D T 401      21.045  10.346  -9.669  1.00 24.50     0.176 A 
HETATM    9  O1    D T 401      18.211  12.362  -7.464  1.00 25.29    -0.270 OA
HETATM   10  N4    D T 401      20.134  11.071  -7.458  1.00 24.77    -0.292 N 
HETATM   11  C11   D T 401      20.196  11.100  -5.988  1.00 25.67     0.134 C 
HETATM   12  C3    D T 401      21.117  10.369  -8.189  1.00 24.44     0.117 A 
ENDROOT
BRANCH   6  13
HETATM   13  N5    D T 401      23.979   8.338 -10.348  1.00 24.95    -0.057 NA
BRANCH  13  14
HETATM   14  C7    D T 401      23.855   7.309 -11.233  1.00 25.44     0.122 A 
HETATM   15  C20   D T 401      23.893   7.457 -12.626  1.00 23.96     0.022 A 
HETATM   16  C19   D T 401      23.745   6.343 -13.460  1.00 24.92     0.006 A 
HETATM   17  C18   D T 401      23.558   5.059 -12.931  1.00 25.62     0.060 A 
HETATM   18  C17   D T 401      23.508   4.868 -11.552  1.00 25.49     0.030 A 
HETATM   19  C16   D T 401      23.649   5.942 -10.676  1.00 24.16     0.113 A 
BRANCH  17  20
HETATM   20  C21   D T 401      23.391   3.861 -13.826  1.00 26.92     0.275 C 
HETATM   21  O2    D T 401      23.938   3.884 -14.917  1.00 30.54    -0.266 OA
HETATM   22  N6    D T 401      22.662   2.816 -13.426  1.00 31.16    -0.236 NA
BRANCH  22  23
HETATM   23  C22   D T 401      22.286   1.745 -14.335  1.00 34.88     0.111 C 
HETATM   24  C29   D T 401      23.162   0.511 -14.126  1.00 36.76     0.048 C 
HETATM   25  C28   D T 401      22.811  -0.571 -15.150  1.00 38.21     0.099 C 
HETATM   26  N7    D T 401      21.370  -0.811 -15.053  1.00 37.76    -0.367 N 
HETATM   27  C24   D T 401      20.408   0.287 -15.167  1.00 37.52     0.099 C 
HETATM   28  C30   D T 401      20.880  -2.168 -14.855  1.00 36.85     0.121 C 
HETATM   29  C23   D T 401      20.824   1.346 -14.145  1.00 35.87     0.048 C 
ENDBRANCH  22  23
ENDBRANCH  17  20
BRANCH  19  30
HETATM   30  O3    D T 401      23.606   5.753  -9.316  1.00 24.11    -0.327 OA
HETATM   31  C31   D T 401      22.381   5.452  -8.643  1.00 17.70     0.181 C 
ENDBRANCH  19  30
ENDBRANCH  13  14
ENDBRANCH   6  13
BRANCH   2  32
HETATM   32  C8    D T 401      20.021  10.900 -11.840  1.00 24.12     0.083 C 
HETATM   33  C15   D T 401      20.724  12.016 -12.607  1.00 23.24     0.022 C 
HETATM   34  C14   D T 401      20.052  12.051 -13.980  1.00 24.93     0.002 C 
HETATM   35  C13   D T 401      18.623  11.479 -13.795  1.00 23.09     0.002 C 
HETATM   36  C12   D T 401      18.626  10.727 -12.454  1.00 23.56     0.022 C 
ENDBRANCH   2  32
BRANCH   4  37
HETATM   37  C9    D T 401      19.041  13.281  -9.965  1.00 25.78     0.032 C 
HETATM   38  C10   D T 401      17.787  13.805 -10.647  1.00 24.04     0.003 C 
ENDBRANCH   4  37
TORSDOF 7
ENDMDL
MODEL 9
REMARK VINA RESULT:    -6.222      3.822      9.097
REMARK INTER + INTRA:          -9.925
REMARK INTER:                  -8.446
REMARK INTRA:                  -1.479
REMARK UNBOUND:                -1.157
REMARK  7 active torsions:
REMARK  status: ('A' for Active; 'I' for Inactive)
REMARK    1  A    between atoms: N3_2  and  C8_7 
REMARK    2  A    between atoms: C5_4  and  C9_34 
REMARK    3  A    between atoms: C7_6  and  N5_28 
REMARK       I    between atoms: C21_13  and  N6_18 
REMARK    4  A    between atoms: C21_13  and  C18_23 
REMARK    5  A    between atoms: C22_14  and  N6_18 
REMARK    6  A    between atoms: C16_24  and  O3_25 
REMARK    7  A    between atoms: N5_28  and  C1_29 
ROOT
HETATM    1  N1    D T 401       9.830  -4.372  -0.995  1.00 24.43    -0.056 NA
HETATM    2  N3    D T 401       9.466  -6.131   2.775  1.00 24.87    -0.328 N 
HETATM    3  C4    D T 401       9.448  -5.659  -0.964  1.00 24.33     0.138 A 
HETATM    4  C5    D T 401       9.066  -7.556   2.921  1.00 24.68     0.162 A 
HETATM    5  C6    D T 401       8.767  -8.269   1.648  1.00 25.06     0.258 A 
HETATM    6  C1    D T 401      10.087  -3.660   0.134  1.00 24.96     0.752 A 
HETATM    7  N2    D T 401       9.964  -4.237   1.357  1.00 25.42    -0.041 NA
HETATM    8  C2    D T 401       9.585  -5.531   1.494  1.00 24.50     0.176 A 
HETATM    9  O1    D T 401       8.422  -9.476   1.723  1.00 25.29    -0.270 OA
HETATM   10  N4    D T 401       8.911  -7.660   0.370  1.00 24.77    -0.292 N 
HETATM   11  C11   D T 401       8.631  -8.440  -0.845  1.00 25.67     0.134 C 
HETATM   12  C3    D T 401       9.306  -6.309   0.263  1.00 24.44     0.117 A 
ENDROOT
BRANCH   6  13
HETATM   13  N5    D T 401      10.467  -2.365  -0.022  1.00 24.95    -0.057 NA
BRANCH  13  14
HETATM   14  C7    D T 401      11.718  -1.826   0.023  1.00 25.44     0.122 A 
HETATM   15  C20   D T 401      12.375  -1.453   1.203  1.00 23.96     0.022 A 
HETATM   16  C19   D T 401      13.658  -0.895   1.151  1.00 24.92     0.006 A 
HETATM   17  C18   D T 401      14.315  -0.696  -0.070  1.00 25.62     0.060 A 
HETATM   18  C17   D T 401      13.695  -1.047  -1.267  1.00 25.49     0.030 A 
HETATM   19  C16   D T 401      12.419  -1.605  -1.274  1.00 24.16     0.113 A 
BRANCH  17  20
HETATM   20  C21   D T 401      15.691  -0.089  -0.127  1.00 26.92     0.275 C 
HETATM   21  O2    D T 401      15.797   1.040  -0.581  1.00 30.54    -0.266 OA
HETATM   22  N6    D T 401      16.751  -0.777   0.305  1.00 31.16    -0.236 NA
BRANCH  22  23
HETATM   23  C22   D T 401      18.113  -0.327   0.061  1.00 34.88     0.111 C 
HETATM   24  C29   D T 401      18.889  -0.186   1.369  1.00 36.76     0.048 C 
HETATM   25  C28   D T 401      20.289   0.372   1.100  1.00 38.21     0.099 C 
HETATM   26  N7    D T 401      20.916  -0.491   0.098  1.00 37.76    -0.367 N 
HETATM   27  C24   D T 401      20.259  -0.773  -1.180  1.00 37.52     0.099 C 
HETATM   28  C30   D T 401      22.226  -1.069   0.366  1.00 36.85     0.121 C 
HETATM   29  C23   D T 401      18.861  -1.299  -0.850  1.00 35.87     0.048 C 
ENDBRANCH  22  23
ENDBRANCH  17  20
BRANCH  19  30
HETATM   30  O3    D T 401      11.810  -1.957  -2.455  1.00 24.11    -0.327 OA
HETATM   31  C31   D T 401      11.167  -0.984  -3.281  1.00 17.70     0.181 C 
ENDBRANCH  19  30
ENDBRANCH  13  14
ENDBRANCH   6  13
BRANCH   2  32
HETATM   32  C8    D T 401       9.742  -5.241   3.935  1.00 24.12     0.083 C 
HETATM   33  C15   D T 401      11.135  -5.334   4.547  1.00 23.24     0.022 C 
HETATM   34  C14   D T 401      10.967  -4.917   6.008  1.00 24.93     0.002 C 
HETATM   35  C13   D T 401       9.497  -5.221   6.395  1.00 23.09     0.002 C 
HETATM   36  C12   D T 401       8.727  -5.393   5.075  1.00 23.56     0.022 C 
ENDBRANCH   2  32
BRANCH   4  37
HETATM   37  C9    D T 401      10.207  -8.371   3.562  1.00 25.78     0.032 C 
HETATM   38  C10   D T 401       9.860  -8.907   4.942  1.00 24.04     0.003 C 
ENDBRANCH   4  37
TORSDOF 7
ENDMDL
