MODEL 1
REMARK VINA RESULT:    -8.564      0.000      0.000
REMARK INTER + INTRA:         -13.090
REMARK INTER:                 -12.069
REMARK INTRA:                  -1.022
REMARK UNBOUND:                -1.022
REMARK  7 active torsions:
REMARK  status: ('A' for Active; 'I' for Inactive)
REMARK    1  A    between atoms: N3_2  and  C8_7 
REMARK    2  A    between atoms: C5_4  and  C9_34 
REMARK    3  A    between atoms: C7_6  and  N5_28 
REMARK       I    between atoms: C21_13  and  N6_18 
REMARK    4  A    between atoms: C21_13  and  C18_23 
REMARK    5  A    between atoms: C22_14  and  N6_18 
REMARK    6  A    between atoms: C16_24  and  O3_25 
REMARK    7  A    between atoms: N5_28  and  C1_29 
ROOT
HETATM    1  N1    D T 401     -10.956   6.960  -3.440  1.00 24.43    -0.056 NA
HETATM    2  N3    D T 401     -14.100   5.718  -0.990  1.00 24.87    -0.328 N 
HETATM    3  C4    D T 401     -11.390   7.840  -2.524  1.00 24.33     0.138 A 
HETATM    4  C5    D T 401     -14.668   6.621   0.048  1.00 24.68     0.162 A 
HETATM    5  C6    D T 401     -14.004   7.950   0.169  1.00 25.06     0.258 A 
HETATM    6  C1    D T 401     -11.499   5.721  -3.579  1.00 24.96     0.752 A 
HETATM    7  N2    D T 401     -12.519   5.323  -2.777  1.00 25.42    -0.041 NA
HETATM    8  C2    D T 401     -13.028   6.138  -1.819  1.00 24.50     0.176 A 
HETATM    9  O1    D T 401     -14.448   8.746   1.034  1.00 25.29    -0.270 OA
HETATM   10  N4    D T 401     -12.945   8.363  -0.686  1.00 24.77    -0.292 N 
HETATM   11  C11   D T 401     -12.365   9.706  -0.529  1.00 25.67     0.134 C 
HETATM   12  C3    D T 401     -12.437   7.489  -1.670  1.00 24.44     0.117 A 
ENDROOT
BRANCH   6  13
HETATM   13  N5    D T 401     -10.979   4.918  -4.542  1.00 24.95    -0.057 NA
BRANCH  13  14
HETATM   14  C7    D T 401     -11.545   3.848  -5.167  1.00 25.44     0.122 A 
HETATM   15  C20   D T 401     -12.877   3.448  -4.994  1.00 23.96     0.022 A 
HETATM   16  C19   D T 401     -13.370   2.326  -5.670  1.00 24.92     0.006 A 
HETATM   17  C18   D T 401     -12.557   1.578  -6.530  1.00 25.62     0.060 A 
HETATM   18  C17   D T 401     -11.225   1.937  -6.725  1.00 25.49     0.030 A 
HETATM   19  C16   D T 401     -10.681   3.045  -6.077  1.00 24.16     0.113 A 
BRANCH  17  20
HETATM   20  C21   D T 401     -13.084   0.367  -7.250  1.00 26.92     0.275 C 
HETATM   21  O2    D T 401     -13.691  -0.467  -6.596  1.00 30.54    -0.266 OA
HETATM   22  N6    D T 401     -12.884   0.222  -8.563  1.00 31.16    -0.236 NA
BRANCH  22  23
HETATM   23  C22   D T 401     -13.170  -1.025  -9.253  1.00 34.88     0.111 C 
HETATM   24  C29   D T 401     -14.523  -0.966  -9.960  1.00 36.76     0.048 C 
HETATM   25  C28   D T 401     -14.848  -2.315 -10.606  1.00 38.21     0.099 C 
HETATM   26  N7    D T 401     -13.715  -2.672 -11.462  1.00 37.76    -0.367 N 
HETATM   27  C24   D T 401     -12.349  -2.706 -10.939  1.00 37.52     0.099 C 
HETATM   28  C30   D T 401     -13.951  -3.014 -12.859  1.00 36.85     0.121 C 
HETATM   29  C23   D T 401     -12.091  -1.348 -10.285  1.00 35.87     0.048 C 
ENDBRANCH  22  23
ENDBRANCH  17  20
BRANCH  19  30
HETATM   30  O3    D T 401      -9.369   3.403  -6.275  1.00 24.11    -0.327 OA
HETATM   31  C31   D T 401      -8.294   2.582  -5.814  1.00 17.70     0.181 C 
ENDBRANCH  19  30
ENDBRANCH  13  14
ENDBRANCH   6  13
BRANCH   2  32
HETATM   32  C8    D T 401     -14.588   4.330  -1.212  1.00 24.12     0.083 C 
HETATM   33  C15   D T 401     -15.685   4.154  -2.255  1.00 23.24     0.022 C 
HETATM   34  C14   D T 401     -16.452   2.900  -1.834  1.00 24.93     0.002 C 
HETATM   35  C13   D T 401     -16.256   2.749  -0.304  1.00 23.09     0.002 C 
HETATM   36  C12   D T 401     -15.056   3.633   0.071  1.00 23.56     0.022 C 
ENDBRANCH   2  32
BRANCH   4  37
HETATM   37  C9    D T 401     -16.139   6.949  -0.272  1.00 25.78     0.032 C 
HETATM   38  C10   D T 401     -17.093   6.574   0.850  1.00 24.04     0.003 C 
ENDBRANCH   4  37
TORSDOF 7
ENDMDL
MODEL 2
REMARK VINA RESULT:    -8.562      1.761      2.510
REMARK INTER + INTRA:         -13.087
REMARK INTER:                 -11.933
REMARK INTRA:                  -1.154
REMARK UNBOUND:                -1.022
REMARK  7 active torsions:
REMARK  status: ('A' for Active; 'I' for Inactive)
REMARK    1  A    between atoms: N3_2  and  C8_7 
REMARK    2  A    between atoms: C5_4  and  C9_34 
REMARK    3  A    between atoms: C7_6  and  N5_28 
REMARK       I    between atoms: C21_13  and  N6_18 
REMARK    4  A    between atoms: C21_13  and  C18_23 
REMARK    5  A    between atoms: C22_14  and  N6_18 
REMARK    6  A    between atoms: C16_24  and  O3_25 
REMARK    7  A    between atoms: N5_28  and  C1_29 
ROOT
HETATM    1  N1    D T 401     -13.392   6.319  -1.998  1.00 24.43    -0.056 NA
HETATM    2  N3    D T 401     -16.848   4.508  -0.514  1.00 24.87    -0.328 N 
HETATM    3  C4    D T 401     -13.811   6.722  -0.788  1.00 24.33     0.138 A 
HETATM    4  C5    D T 401     -17.408   4.892   0.810  1.00 24.68     0.162 A 
HETATM    5  C6    D T 401     -16.624   5.912   1.562  1.00 25.06     0.258 A 
HETATM    6  C1    D T 401     -14.046   5.370  -2.720  1.00 24.96     0.752 A 
HETATM    7  N2    D T 401     -15.167   4.783  -2.230  1.00 25.42    -0.041 NA
HETATM    8  C2    D T 401     -15.670   5.119  -1.016  1.00 24.50     0.176 A 
HETATM    9  O1    D T 401     -17.058   6.266   2.688  1.00 25.29    -0.270 OA
HETATM   10  N4    D T 401     -15.458   6.532   1.034  1.00 24.77    -0.292 N 
HETATM   11  C11   D T 401     -14.759   7.559   1.822  1.00 25.67     0.134 C 
HETATM   12  C3    D T 401     -14.959   6.156  -0.231  1.00 24.44     0.117 A 
ENDROOT
BRANCH   6  13
HETATM   13  N5    D T 401     -13.529   5.046  -3.933  1.00 24.95    -0.057 NA
BRANCH  13  14
HETATM   14  C7    D T 401     -13.652   3.885  -4.636  1.00 25.44     0.122 A 
HETATM   15  C20   D T 401     -14.861   3.203  -4.828  1.00 23.96     0.022 A 
HETATM   16  C19   D T 401     -14.890   2.009  -5.557  1.00 24.92     0.006 A 
HETATM   17  C18   D T 401     -13.724   1.465  -6.110  1.00 25.62     0.060 A 
HETATM   18  C17   D T 401     -12.500   2.107  -5.938  1.00 25.49     0.030 A 
HETATM   19  C16   D T 401     -12.412   3.299  -5.221  1.00 24.16     0.113 A 
BRANCH  17  20
HETATM   20  C21   D T 401     -13.753   0.177  -6.887  1.00 26.92     0.275 C 
HETATM   21  O2    D T 401     -13.633  -0.867  -6.264  1.00 30.54    -0.266 OA
HETATM   22  N6    D T 401     -13.902   0.192  -8.214  1.00 31.16    -0.236 NA
BRANCH  22  23
HETATM   23  C22   D T 401     -13.708  -1.000  -9.025  1.00 34.88     0.111 C 
HETATM   24  C29   D T 401     -14.816  -1.143 -10.067  1.00 36.76     0.048 C 
HETATM   25  C28   D T 401     -14.645  -2.447 -10.850  1.00 38.21     0.099 C 
HETATM   26  N7    D T 401     -13.283  -2.457 -11.388  1.00 37.76    -0.367 N 
HETATM   27  C24   D T 401     -12.122  -2.265 -10.517  1.00 37.52     0.099 C 
HETATM   28  C30   D T 401     -13.075  -2.678 -12.813  1.00 36.85     0.121 C 
HETATM   29  C23   D T 401     -12.360  -0.968  -9.743  1.00 35.87     0.048 C 
ENDBRANCH  22  23
ENDBRANCH  17  20
BRANCH  19  30
HETATM   30  O3    D T 401     -11.206   3.936  -5.057  1.00 24.11    -0.327 OA
HETATM   31  C31   D T 401     -10.010   3.436  -5.659  1.00 17.70     0.181 C 
ENDBRANCH  19  30
ENDBRANCH  13  14
ENDBRANCH   6  13
BRANCH   2  32
HETATM   32  C8    D T 401     -17.455   3.459  -1.378  1.00 24.12     0.083 C 
HETATM   33  C15   D T 401     -18.619   3.896  -2.260  1.00 23.24     0.022 C 
HETATM   34  C14   D T 401     -19.457   2.636  -2.482  1.00 24.93     0.002 C 
HETATM   35  C13   D T 401     -19.189   1.702  -1.276  1.00 23.09     0.002 C 
HETATM   36  C12   D T 401     -17.904   2.214  -0.604  1.00 23.56     0.022 C 
ENDBRANCH   2  32
BRANCH   4  37
HETATM   37  C9    D T 401     -18.804   5.522   0.641  1.00 25.78     0.032 C 
HETATM   38  C10   D T 401     -19.927   4.638   1.159  1.00 24.04     0.003 C 
ENDBRANCH   4  37
TORSDOF 7
ENDMDL
MODEL 3
REMARK VINA RESULT:    -8.284      2.663     10.787
REMARK INTER + INTRA:         -12.696
REMARK INTER:                 -11.682
REMARK INTRA:                  -1.014
REMARK UNBOUND:                -1.022
REMARK  7 active torsions:
REMARK  status: ('A' for Active; 'I' for Inactive)
REMARK    1  A    between atoms: N3_2  and  C8_7 
REMARK    2  A    between atoms: C5_4  and  C9_34 
REMARK    3  A    between atoms: C7_6  and  N5_28 
REMARK       I    between atoms: C21_13  and  N6_18 
REMARK    4  A    between atoms: C21_13  and  C18_23 
REMARK    5  A    between atoms: C22_14  and  N6_18 
REMARK    6  A    between atoms: C16_24  and  O3_25 
REMARK    7  A    between atoms: N5_28  and  C1_29 
ROOT
HETATM    1  N1    D T 401     -11.420  -0.865 -10.177  1.00 24.43    -0.056 NA
HETATM    2  N3    D T 401     -14.710  -2.947  -8.671  1.00 24.87    -0.328 N 
HETATM    3  C4    D T 401     -11.810  -1.952 -10.861  1.00 24.33     0.138 A 
HETATM    4  C5    D T 401     -15.215  -4.175  -9.342  1.00 24.68     0.162 A 
HETATM    5  C6    D T 401     -14.498  -4.559 -10.592  1.00 25.06     0.258 A 
HETATM    6  C1    D T 401     -12.052  -0.446  -9.048  1.00 24.96     0.752 A 
HETATM    7  N2    D T 401     -13.123  -1.126  -8.566  1.00 25.42    -0.041 NA
HETATM    8  C2    D T 401     -13.596  -2.236  -9.186  1.00 24.50     0.176 A 
HETATM    9  O1    D T 401     -14.892  -5.589 -11.195  1.00 25.29    -0.270 OA
HETATM   10  N4    D T 401     -13.368  -3.848 -11.081  1.00 24.77    -0.292 N 
HETATM   11  C11   D T 401     -12.690  -4.311 -12.302  1.00 25.67     0.134 C 
HETATM   12  C3    D T 401     -12.904  -2.694 -10.414  1.00 24.44     0.117 A 
ENDROOT
BRANCH   6  13
HETATM   13  N5    D T 401     -11.566   0.667  -8.440  1.00 24.95    -0.057 NA
BRANCH  13  14
HETATM   14  C7    D T 401     -12.182   1.500  -7.556  1.00 25.44     0.122 A 
HETATM   15  C20   D T 401     -13.567   1.548  -7.349  1.00 23.96     0.022 A 
HETATM   16  C19   D T 401     -14.113   2.447  -6.426  1.00 24.92     0.006 A 
HETATM   17  C18   D T 401     -13.300   3.316  -5.688  1.00 25.62     0.060 A 
HETATM   18  C17   D T 401     -11.918   3.307  -5.867  1.00 25.49     0.030 A 
HETATM   19  C16   D T 401     -11.321   2.433  -6.774  1.00 24.16     0.113 A 
BRANCH  17  20
HETATM   20  C21   D T 401     -13.886   4.289  -4.701  1.00 26.92     0.275 C 
HETATM   21  O2    D T 401     -14.369   5.322  -5.137  1.00 30.54    -0.266 OA
HETATM   22  N6    D T 401     -13.869   4.016  -3.394  1.00 31.16    -0.236 NA
BRANCH  22  23
HETATM   23  C22   D T 401     -14.212   5.015  -2.394  1.00 34.88     0.111 C 
HETATM   24  C29   D T 401     -15.683   4.913  -1.995  1.00 36.76     0.048 C 
HETATM   25  C28   D T 401     -16.047   6.027  -1.011  1.00 38.21     0.099 C 
HETATM   26  N7    D T 401     -15.096   5.954   0.101  1.00 37.76    -0.367 N 
HETATM   27  C24   D T 401     -13.652   5.973  -0.133  1.00 37.52     0.099 C 
HETATM   28  C30   D T 401     -15.595   5.875   1.468  1.00 36.85     0.121 C 
HETATM   29  C23   D T 401     -13.352   4.862  -1.141  1.00 35.87     0.048 C 
ENDBRANCH  22  23
ENDBRANCH  17  20
BRANCH  19  30
HETATM   30  O3    D T 401      -9.957   2.419  -6.946  1.00 24.11    -0.327 OA
HETATM   31  C31   D T 401      -9.076   2.963  -5.961  1.00 17.70     0.181 C 
ENDBRANCH  19  30
ENDBRANCH  13  14
ENDBRANCH   6  13
BRANCH   2  32
HETATM   32  C8    D T 401     -15.339  -2.373  -7.450  1.00 24.12     0.083 C 
HETATM   33  C15   D T 401     -14.984  -3.039  -6.126  1.00 23.24     0.022 C 
HETATM   34  C14   D T 401     -16.179  -2.781  -5.206  1.00 24.93     0.002 C 
HETATM   35  C13   D T 401     -17.413  -2.580  -6.122  1.00 23.09     0.002 C 
HETATM   36  C12   D T 401     -16.869  -2.293  -7.531  1.00 23.56     0.022 C 
ENDBRANCH   2  32
BRANCH   4  37
HETATM   37  C9    D T 401     -15.061  -5.396  -8.416  1.00 25.78     0.032 C 
HETATM   38  C10   D T 401     -16.392  -5.985  -7.975  1.00 24.04     0.003 C 
ENDBRANCH   4  37
TORSDOF 7
ENDMDL
MODEL 4
REMARK VINA RESULT:    -8.262      2.817      4.289
REMARK INTER + INTRA:         -12.664
REMARK INTER:                 -11.033
REMARK INTRA:                  -1.631
REMARK UNBOUND:                -1.022
REMARK  7 active torsions:
REMARK  status: ('A' for Active; 'I' for Inactive)
REMARK    1  A    between atoms: N3_2  and  C8_7 
REMARK    2  A    between atoms: C5_4  and  C9_34 
REMARK    3  A    between atoms: C7_6  and  N5_28 
REMARK       I    between atoms: C21_13  and  N6_18 
REMARK    4  A    between atoms: C21_13  and  C18_23 
REMARK    5  A    between atoms: C22_14  and  N6_18 
REMARK    6  A    between atoms: C16_24  and  O3_25 
REMARK    7  A    between atoms: N5_28  and  C1_29 
ROOT
HETATM    1  N1    D T 401     -14.724   5.261   0.245  1.00 24.43    -0.056 NA
HETATM    2  N3    D T 401     -18.562   4.686  -1.295  1.00 24.87    -0.328 N 
HETATM    3  C4    D T 401     -15.716   5.953   0.826  1.00 24.33     0.138 A 
HETATM    4  C5    D T 401     -19.731   5.416  -0.735  1.00 24.68     0.162 A 
HETATM    5  C6    D T 401     -19.432   6.306   0.423  1.00 25.06     0.258 A 
HETATM    6  C1    D T 401     -14.937   4.410  -0.794  1.00 24.96     0.752 A 
HETATM    7  N2    D T 401     -16.188   4.226  -1.287  1.00 25.42    -0.041 NA
HETATM    8  C2    D T 401     -17.258   4.877  -0.768  1.00 24.50     0.176 A 
HETATM    9  O1    D T 401     -20.390   6.942   0.931  1.00 25.29    -0.270 OA
HETATM   10  N4    D T 401     -18.116   6.504   0.924  1.00 24.77    -0.292 N 
HETATM   11  C11   D T 401     -17.895   7.428   2.047  1.00 25.67     0.134 C 
HETATM   12  C3    D T 401     -17.024   5.807   0.362  1.00 24.44     0.117 A 
ENDROOT
BRANCH   6  13
HETATM   13  N5    D T 401     -13.855   3.766  -1.302  1.00 24.95    -0.057 NA
BRANCH  13  14
HETATM   14  C7    D T 401     -13.698   3.183  -2.523  1.00 25.44     0.122 A 
HETATM   15  C20   D T 401     -14.058   1.860  -2.818  1.00 23.96     0.022 A 
HETATM   16  C19   D T 401     -13.848   1.342  -4.101  1.00 24.92     0.006 A 
HETATM   17  C18   D T 401     -13.279   2.119  -5.117  1.00 25.62     0.060 A 
HETATM   18  C17   D T 401     -12.901   3.436  -4.865  1.00 25.49     0.030 A 
HETATM   19  C16   D T 401     -13.086   4.004  -3.606  1.00 24.16     0.113 A 
BRANCH  17  20
HETATM   20  C21   D T 401     -13.046   1.559  -6.494  1.00 26.92     0.275 C 
HETATM   21  O2    D T 401     -12.317   2.185  -7.248  1.00 30.54    -0.266 OA
HETATM   22  N6    D T 401     -13.627   0.416  -6.866  1.00 31.16    -0.236 NA
BRANCH  22  23
HETATM   23  C22   D T 401     -13.617  -0.041  -8.246  1.00 34.88     0.111 C 
HETATM   24  C29   D T 401     -12.522  -1.083  -8.474  1.00 36.76     0.048 C 
HETATM   25  C28   D T 401     -12.468  -1.486  -9.949  1.00 38.21     0.099 C 
HETATM   26  N7    D T 401     -13.816  -1.908 -10.335  1.00 37.76    -0.367 N 
HETATM   27  C24   D T 401     -14.975  -1.041 -10.117  1.00 37.52     0.099 C 
HETATM   28  C30   D T 401     -14.008  -3.209 -10.963  1.00 36.85     0.121 C 
HETATM   29  C23   D T 401     -14.962  -0.650  -8.638  1.00 35.87     0.048 C 
ENDBRANCH  22  23
ENDBRANCH  17  20
BRANCH  19  30
HETATM   30  O3    D T 401     -12.719   5.305  -3.359  1.00 24.11    -0.327 OA
HETATM   31  C31   D T 401     -13.567   6.399  -3.713  1.00 17.70     0.181 C 
ENDBRANCH  19  30
ENDBRANCH  13  14
ENDBRANCH   6  13
BRANCH   2  32
HETATM   32  C8    D T 401     -18.675   3.705  -2.408  1.00 24.12     0.083 C 
HETATM   33  C15   D T 401     -18.641   4.274  -3.821  1.00 23.24     0.022 C 
HETATM   34  C14   D T 401     -19.422   3.279  -4.680  1.00 24.93     0.002 C 
HETATM   35  C13   D T 401     -20.411   2.551  -3.735  1.00 23.09     0.002 C 
HETATM   36  C12   D T 401     -19.910   2.802  -2.303  1.00 23.56     0.022 C 
ENDBRANCH   2  32
BRANCH   4  37
HETATM   37  C9    D T 401     -20.339   6.352  -1.797  1.00 25.78     0.032 C 
HETATM   38  C10   D T 401     -21.767   5.987  -2.169  1.00 24.04     0.003 C 
ENDBRANCH   4  37
TORSDOF 7
ENDMDL
MODEL 5
REMARK VINA RESULT:    -7.892      2.498      2.966
REMARK INTER + INTRA:         -12.143
REMARK INTER:                 -11.121
REMARK INTRA:                  -1.023
REMARK UNBOUND:                -1.022
REMARK  7 active torsions:
REMARK  status: ('A' for Active; 'I' for Inactive)
REMARK    1  A    between atoms: N3_2  and  C8_7 
REMARK    2  A    between atoms: C5_4  and  C9_34 
REMARK    3  A    between atoms: C7_6  and  N5_28 
REMARK       I    between atoms: C21_13  and  N6_18 
REMARK    4  A    between atoms: C21_13  and  C18_23 
REMARK    5  A    between atoms: C22_14  and  N6_18 
REMARK    6  A    between atoms: C16_24  and  O3_25 
REMARK    7  A    between atoms: N5_28  and  C1_29 
ROOT
HETATM    1  N1    D T 401     -11.431   5.377  -4.024  1.00 24.43    -0.056 NA
HETATM    2  N3    D T 401     -14.689   5.012  -1.439  1.00 24.87    -0.328 N 
HETATM    3  C4    D T 401     -11.632   6.385  -3.160  1.00 24.33     0.138 A 
HETATM    4  C5    D T 401     -15.012   6.080  -0.454  1.00 24.68     0.162 A 
HETATM    5  C6    D T 401     -14.069   7.234  -0.434  1.00 25.06     0.258 A 
HETATM    6  C1    D T 401     -12.237   4.283  -4.069  1.00 24.96     0.752 A 
HETATM    7  N2    D T 401     -13.293   4.170  -3.224  1.00 25.42    -0.041 NA
HETATM    8  C2    D T 401     -13.579   5.133  -2.314  1.00 24.50     0.176 A 
HETATM    9  O1    D T 401     -14.300   8.160   0.384  1.00 25.29    -0.270 OA
HETATM   10  N4    D T 401     -12.974   7.351  -1.334  1.00 24.77    -0.292 N 
HETATM   11  C11   D T 401     -12.109   8.540  -1.277  1.00 25.67     0.134 C 
HETATM   12  C3    D T 401     -12.702   6.327  -2.267  1.00 24.44     0.117 A 
ENDROOT
BRANCH   6  13
HETATM   13  N5    D T 401     -11.937   3.327  -4.986  1.00 24.95    -0.057 NA
BRANCH  13  14
HETATM   14  C7    D T 401     -12.721   2.323  -5.469  1.00 25.44     0.122 A 
HETATM   15  C20   D T 401     -13.743   1.700  -4.739  1.00 23.96     0.022 A 
HETATM   16  C19   D T 401     -14.491   0.666  -5.313  1.00 24.92     0.006 A 
HETATM   17  C18   D T 401     -14.245   0.229  -6.620  1.00 25.62     0.060 A 
HETATM   18  C17   D T 401     -13.235   0.816  -7.379  1.00 25.49     0.030 A 
HETATM   19  C16   D T 401     -12.458   1.849  -6.857  1.00 24.16     0.113 A 
BRANCH  17  20
HETATM   20  C21   D T 401     -15.043  -0.888  -7.236  1.00 26.92     0.275 C 
HETATM   21  O2    D T 401     -15.626  -0.661  -8.285  1.00 30.54    -0.266 OA
HETATM   22  N6    D T 401     -15.104  -2.082  -6.642  1.00 31.16    -0.236 NA
BRANCH  22  23
HETATM   23  C22   D T 401     -16.038  -3.111  -7.072  1.00 34.88     0.111 C 
HETATM   24  C29   D T 401     -15.424  -3.991  -8.159  1.00 36.76     0.048 C 
HETATM   25  C28   D T 401     -16.449  -5.010  -8.663  1.00 38.21     0.099 C 
HETATM   26  N7    D T 401     -16.957  -5.731  -7.494  1.00 37.76    -0.367 N 
HETATM   27  C24   D T 401     -17.515  -5.017  -6.345  1.00 37.52     0.099 C 
HETATM   28  C30   D T 401     -16.922  -7.188  -7.478  1.00 36.85     0.121 C 
HETATM   29  C23   D T 401     -16.462  -3.998  -5.904  1.00 35.87     0.048 C 
ENDBRANCH  22  23
ENDBRANCH  17  20
BRANCH  19  30
HETATM   30  O3    D T 401     -11.466   2.434  -7.608  1.00 24.11    -0.327 OA
HETATM   31  C31   D T 401     -10.268   1.729  -7.939  1.00 17.70     0.181 C 
ENDBRANCH  19  30
ENDBRANCH  13  14
ENDBRANCH   6  13
BRANCH   2  32
HETATM   32  C8    D T 401     -15.477   3.755  -1.559  1.00 24.12     0.083 C 
HETATM   33  C15   D T 401     -16.730   3.819  -2.425  1.00 23.24     0.022 C 
HETATM   34  C14   D T 401     -17.664   2.743  -1.870  1.00 24.93     0.002 C 
HETATM   35  C13   D T 401     -17.278   2.538  -0.384  1.00 23.09     0.002 C 
HETATM   36  C12   D T 401     -15.881   3.155  -0.207  1.00 23.56     0.022 C 
ENDBRANCH   2  32
BRANCH   4  37
HETATM   37  C9    D T 401     -16.384   6.705  -0.768  1.00 25.78     0.032 C 
HETATM   38  C10   D T 401     -17.420   6.449   0.314  1.00 24.04     0.003 C 
ENDBRANCH   4  37
TORSDOF 7
ENDMDL
MODEL 6
REMARK VINA RESULT:    -7.883      2.380      4.548
REMARK INTER + INTRA:         -12.130
REMARK INTER:                 -11.519
REMARK INTRA:                  -0.611
REMARK UNBOUND:                -1.022
REMARK  7 active torsions:
REMARK  status: ('A' for Active; 'I' for Inactive)
REMARK    1  A    between atoms: N3_2  and  C8_7 
REMARK    2  A    between atoms: C5_4  and  C9_34 
REMARK    3  A    between atoms: C7_6  and  N5_28 
REMARK       I    between atoms: C21_13  and  N6_18 
REMARK    4  A    between atoms: C21_13  and  C18_23 
REMARK    5  A    between atoms: C22_14  and  N6_18 
REMARK    6  A    between atoms: C16_24  and  O3_25 
REMARK    7  A    between atoms: N5_28  and  C1_29 
ROOT
HETATM    1  N1    D T 401     -14.713   2.176  -5.766  1.00 24.43    -0.056 NA
HETATM    2  N3    D T 401     -13.934   5.284  -3.089  1.00 24.87    -0.328 N 
HETATM    3  C4    D T 401     -15.682   2.469  -4.884  1.00 24.33     0.138 A 
HETATM    4  C5    D T 401     -14.933   5.678  -2.059  1.00 24.68     0.162 A 
HETATM    5  C6    D T 401     -16.219   4.926  -2.097  1.00 25.06     0.258 A 
HETATM    6  C1    D T 401     -13.531   2.847  -5.803  1.00 24.96     0.752 A 
HETATM    7  N2    D T 401     -13.285   3.858  -4.931  1.00 25.42    -0.041 NA
HETATM    8  C2    D T 401     -14.201   4.231  -4.003  1.00 24.50     0.176 A 
HETATM    9  O1    D T 401     -17.094   5.227  -1.247  1.00 25.29    -0.270 OA
HETATM   10  N4    D T 401     -16.461   3.858  -3.005  1.00 24.77    -0.292 N 
HETATM   11  C11   D T 401     -17.743   3.138  -2.956  1.00 25.67     0.134 C 
HETATM   12  C3    D T 401     -15.488   3.498  -3.962  1.00 24.44     0.117 A 
ENDROOT
BRANCH   6  13
HETATM   13  N5    D T 401     -12.626   2.461  -6.739  1.00 24.95    -0.057 NA
BRANCH  13  14
HETATM   14  C7    D T 401     -12.649   1.372  -7.558  1.00 25.44     0.122 A 
HETATM   15  C20   D T 401     -13.797   0.616  -7.833  1.00 23.96     0.022 A 
HETATM   16  C19   D T 401     -13.723  -0.496  -8.680  1.00 24.92     0.006 A 
HETATM   17  C18   D T 401     -12.513  -0.882  -9.271  1.00 25.62     0.060 A 
HETATM   18  C17   D T 401     -11.347  -0.163  -9.018  1.00 25.49     0.030 A 
HETATM   19  C16   D T 401     -11.362   0.952  -8.182  1.00 24.16     0.113 A 
BRANCH  17  20
HETATM   20  C21   D T 401     -12.432  -2.082 -10.174  1.00 26.92     0.275 C 
HETATM   21  O2    D T 401     -12.606  -3.184  -9.677  1.00 30.54    -0.266 OA
HETATM   22  N6    D T 401     -12.173  -1.931 -11.476  1.00 31.16    -0.236 NA
BRANCH  22  23
HETATM   23  C22   D T 401     -11.861  -3.061 -12.336  1.00 34.88     0.111 C 
HETATM   24  C29   D T 401     -13.053  -3.430 -13.217  1.00 36.76     0.048 C 
HETATM   25  C28   D T 401     -12.737  -4.674 -14.049  1.00 38.21     0.099 C 
HETATM   26  N7    D T 401     -11.491  -4.410 -14.772  1.00 37.76    -0.367 N 
HETATM   27  C24   D T 401     -10.281  -3.983 -14.068  1.00 37.52     0.099 C 
HETATM   28  C30   D T 401     -11.447  -4.588 -16.217  1.00 36.85     0.121 C 
HETATM   29  C23   D T 401     -10.662  -2.759 -13.234  1.00 35.87     0.048 C 
ENDBRANCH  22  23
ENDBRANCH  17  20
BRANCH  19  30
HETATM   30  O3    D T 401     -10.213   1.666  -7.939  1.00 24.11    -0.327 OA
HETATM   31  C31   D T 401      -8.948   1.017  -7.800  1.00 17.70     0.181 C 
ENDBRANCH  19  30
ENDBRANCH  13  14
ENDBRANCH   6  13
BRANCH   2  32
HETATM   32  C8    D T 401     -12.620   5.965  -3.249  1.00 24.12     0.083 C 
HETATM   33  C15   D T 401     -11.497   5.498  -2.330  1.00 23.24     0.022 C 
HETATM   34  C14   D T 401     -10.564   6.701  -2.183  1.00 24.93     0.002 C 
HETATM   35  C13   D T 401     -11.423   7.967  -2.433  1.00 23.09     0.002 C 
HETATM   36  C12   D T 401     -12.706   7.492  -3.134  1.00 23.56     0.022 C 
ENDBRANCH   2  32
BRANCH   4  37
HETATM   37  C9    D T 401     -14.376   5.425  -0.645  1.00 25.78     0.032 C 
HETATM   38  C10   D T 401     -14.233   6.694   0.178  1.00 24.04     0.003 C 
ENDBRANCH   4  37
TORSDOF 7
ENDMDL
MODEL 7
REMARK VINA RESULT:    -7.831      3.371      4.612
REMARK INTER + INTRA:         -12.058
REMARK INTER:                 -10.328
REMARK INTRA:                  -1.730
REMARK UNBOUND:                -1.022
REMARK  7 active torsions:
REMARK  status: ('A' for Active; 'I' for Inactive)
REMARK    1  A    between atoms: N3_2  and  C8_7 
REMARK    2  A    between atoms: C5_4  and  C9_34 
REMARK    3  A    between atoms: C7_6  and  N5_28 
REMARK       I    between atoms: C21_13  and  N6_18 
REMARK    4  A    between atoms: C21_13  and  C18_23 
REMARK    5  A    between atoms: C22_14  and  N6_18 
REMARK    6  A    between atoms: C16_24  and  O3_25 
REMARK    7  A    between atoms: N5_28  and  C1_29 
ROOT
HETATM    1  N1    D T 401     -13.382   3.971  -4.770  1.00 24.43    -0.056 NA
HETATM    2  N3    D T 401     -15.984   4.038  -1.506  1.00 24.87    -0.328 N 
HETATM    3  C4    D T 401     -13.034   4.756  -3.738  1.00 24.33     0.138 A 
HETATM    4  C5    D T 401     -15.703   4.887  -0.316  1.00 24.68     0.162 A 
HETATM    5  C6    D T 401     -14.423   5.650  -0.367  1.00 25.06     0.258 A 
HETATM    6  C1    D T 401     -14.521   3.226  -4.771  1.00 24.96     0.752 A 
HETATM    7  N2    D T 401     -15.360   3.251  -3.705  1.00 25.42    -0.041 NA
HETATM    8  C2    D T 401     -15.097   4.011  -2.613  1.00 24.50     0.176 A 
HETATM    9  O1    D T 401     -14.142   6.380   0.617  1.00 25.29    -0.270 OA
HETATM   10  N4    D T 401     -13.556   5.629  -1.494  1.00 24.77    -0.292 N 
HETATM   11  C11   D T 401     -12.329   6.440  -1.484  1.00 25.67     0.134 C 
HETATM   12  C3    D T 401     -13.858   4.824  -2.614  1.00 24.44     0.117 A 
ENDROOT
BRANCH   6  13
HETATM   13  N5    D T 401     -14.769   2.472  -5.872  1.00 24.95    -0.057 NA
BRANCH  13  14
HETATM   14  C7    D T 401     -15.008   1.133  -5.960  1.00 25.44     0.122 A 
HETATM   15  C20   D T 401     -14.008   0.151  -5.959  1.00 23.96     0.022 A 
HETATM   16  C19   D T 401     -14.348  -1.202  -6.065  1.00 24.92     0.006 A 
HETATM   17  C18   D T 401     -15.683  -1.611  -6.174  1.00 25.62     0.060 A 
HETATM   18  C17   D T 401     -16.707  -0.668  -6.185  1.00 25.49     0.030 A 
HETATM   19  C16   D T 401     -16.427   0.694  -6.083  1.00 24.16     0.113 A 
BRANCH  17  20
HETATM   20  C21   D T 401     -16.049  -3.066  -6.296  1.00 26.92     0.275 C 
HETATM   21  O2    D T 401     -16.229  -3.697  -5.266  1.00 30.54    -0.266 OA
HETATM   22  N6    D T 401     -16.166  -3.633  -7.499  1.00 31.16    -0.236 NA
BRANCH  22  23
HETATM   23  C22   D T 401     -16.291  -5.073  -7.663  1.00 34.88     0.111 C 
HETATM   24  C29   D T 401     -17.572  -5.433  -8.415  1.00 36.76     0.048 C 
HETATM   25  C28   D T 401     -17.732  -6.952  -8.500  1.00 38.21     0.099 C 
HETATM   26  N7    D T 401     -16.499  -7.488  -9.081  1.00 37.76    -0.367 N 
HETATM   27  C24   D T 401     -15.190  -7.174  -8.508  1.00 37.52     0.099 C 
HETATM   28  C30   D T 401     -16.575  -8.362 -10.245  1.00 36.85     0.121 C 
HETATM   29  C23   D T 401     -15.098  -5.650  -8.422  1.00 35.87     0.048 C 
ENDBRANCH  22  23
ENDBRANCH  17  20
BRANCH  19  30
HETATM   30  O3    D T 401     -17.438   1.624  -6.088  1.00 24.11    -0.327 OA
HETATM   31  C31   D T 401     -18.414   1.670  -5.045  1.00 17.70     0.181 C 
ENDBRANCH  19  30
ENDBRANCH  13  14
ENDBRANCH   6  13
BRANCH   2  32
HETATM   32  C8    D T 401     -17.179   3.156  -1.608  1.00 24.12     0.083 C 
HETATM   33  C15   D T 401     -18.485   3.827  -2.017  1.00 23.24     0.022 C 
HETATM   34  C14   D T 401     -19.593   2.965  -1.411  1.00 24.93     0.002 C 
HETATM   35  C13   D T 401     -18.980   2.248  -0.181  1.00 23.09     0.002 C 
HETATM   36  C12   D T 401     -17.453   2.349  -0.333  1.00 23.56     0.022 C 
ENDBRANCH   2  32
BRANCH   4  37
HETATM   37  C9    D T 401     -16.791   5.965  -0.155  1.00 25.78     0.032 C 
HETATM   38  C10   D T 401     -17.621   5.794   1.107  1.00 24.04     0.003 C 
ENDBRANCH   4  37
TORSDOF 7
ENDMDL
MODEL 8
REMARK VINA RESULT:    -7.576      2.256      4.311
REMARK INTER + INTRA:         -11.698
REMARK INTER:                 -11.134
REMARK INTRA:                  -0.564
REMARK UNBOUND:                -1.022
REMARK  7 active torsions:
REMARK  status: ('A' for Active; 'I' for Inactive)
REMARK    1  A    between atoms: N3_2  and  C8_7 
REMARK    2  A    between atoms: C5_4  and  C9_34 
REMARK    3  A    between atoms: C7_6  and  N5_28 
REMARK       I    between atoms: C21_13  and  N6_18 
REMARK    4  A    between atoms: C21_13  and  C18_23 
REMARK    5  A    between atoms: C22_14  and  N6_18 
REMARK    6  A    between atoms: C16_24  and  O3_25 
REMARK    7  A    between atoms: N5_28  and  C1_29 
ROOT
HETATM    1  N1    D T 401     -11.858   2.777  -5.974  1.00 24.43    -0.056 NA
HETATM    2  N3    D T 401     -13.052   4.828  -2.540  1.00 24.87    -0.328 N 
HETATM    3  C4    D T 401     -11.013   3.708  -5.505  1.00 24.33     0.138 A 
HETATM    4  C5    D T 401     -12.198   5.893  -1.946  1.00 24.68     0.162 A 
HETATM    5  C6    D T 401     -10.895   6.122  -2.632  1.00 25.06     0.258 A 
HETATM    6  C1    D T 401     -13.047   2.499  -5.375  1.00 24.96     0.752 A 
HETATM    7  N2    D T 401     -13.427   3.169  -4.257  1.00 25.42    -0.041 NA
HETATM    8  C2    D T 401     -12.643   4.127  -3.704  1.00 24.50     0.176 A 
HETATM    9  O1    D T 401     -10.139   7.011  -2.163  1.00 25.29    -0.270 OA
HETATM   10  N4    D T 401     -10.511   5.426  -3.811  1.00 24.77    -0.292 N 
HETATM   11  C11   D T 401      -9.224   5.735  -4.452  1.00 25.67     0.134 C 
HETATM   12  C3    D T 401     -11.349   4.431  -4.359  1.00 24.44     0.117 A 
ENDROOT
BRANCH   6  13
HETATM   13  N5    D T 401     -13.819   1.537  -5.942  1.00 24.95    -0.057 NA
BRANCH  13  14
HETATM   14  C7    D T 401     -13.497   0.641  -6.917  1.00 25.44     0.122 A 
HETATM   15  C20   D T 401     -12.470   0.829  -7.853  1.00 23.96     0.022 A 
HETATM   16  C19   D T 401     -12.219  -0.143  -8.828  1.00 24.92     0.006 A 
HETATM   17  C18   D T 401     -12.976  -1.319  -8.897  1.00 25.62     0.060 A 
HETATM   18  C17   D T 401     -14.009  -1.542  -7.991  1.00 25.49     0.030 A 
HETATM   19  C16   D T 401     -14.305  -0.608  -6.999  1.00 24.16     0.113 A 
BRANCH  17  20
HETATM   20  C21   D T 401     -12.711  -2.360  -9.950  1.00 26.92     0.275 C 
HETATM   21  O2    D T 401     -12.858  -3.533  -9.642  1.00 30.54    -0.266 OA
HETATM   22  N6    D T 401     -12.326  -1.998 -11.176  1.00 31.16    -0.236 NA
BRANCH  22  23
HETATM   23  C22   D T 401     -11.842  -2.964 -12.149  1.00 34.88     0.111 C 
HETATM   24  C29   D T 401     -12.974  -3.451 -13.052  1.00 36.76     0.048 C 
HETATM   25  C28   D T 401     -12.466  -4.531 -14.010  1.00 38.21     0.099 C 
HETATM   26  N7    D T 401     -11.305  -3.980 -14.712  1.00 37.76    -0.367 N 
HETATM   27  C24   D T 401     -10.171  -3.417 -13.979  1.00 37.52     0.099 C 
HETATM   28  C30   D T 401     -11.269  -4.005 -16.169  1.00 36.85     0.121 C 
HETATM   29  C23   D T 401     -10.740  -2.367 -13.022  1.00 35.87     0.048 C 
ENDBRANCH  22  23
ENDBRANCH  17  20
BRANCH  19  30
HETATM   30  O3    D T 401     -15.321  -0.832  -6.100  1.00 24.11    -0.327 OA
HETATM   31  C31   D T 401     -16.651  -0.374  -6.349  1.00 17.70     0.181 C 
ENDBRANCH  19  30
ENDBRANCH  13  14
ENDBRANCH   6  13
BRANCH   2  32
HETATM   32  C8    D T 401     -14.356   4.414  -1.955  1.00 24.12     0.083 C 
HETATM   33  C15   D T 401     -15.554   5.303  -2.269  1.00 23.24     0.022 C 
HETATM   34  C14   D T 401     -16.519   5.114  -1.098  1.00 24.93     0.002 C 
HETATM   35  C13   D T 401     -15.664   4.690   0.123  1.00 23.09     0.002 C 
HETATM   36  C12   D T 401     -14.310   4.221  -0.435  1.00 23.56     0.022 C 
ENDBRANCH   2  32
BRANCH   4  37
HETATM   37  C9    D T 401     -12.915   7.255  -2.009  1.00 25.78     0.032 C 
HETATM   38  C10   D T 401     -13.328   7.779  -0.643  1.00 24.04     0.003 C 
ENDBRANCH   4  37
TORSDOF 7
ENDMDL
MODEL 9
REMARK VINA RESULT:    -7.345      2.384     11.991
REMARK INTER + INTRA:         -11.373
REMARK INTER:                 -10.604
REMARK INTRA:                  -0.769
REMARK UNBOUND:                -1.022
REMARK  7 active torsions:
REMARK  status: ('A' for Active; 'I' for Inactive)
REMARK    1  A    between atoms: N3_2  and  C8_7 
REMARK    2  A    between atoms: C5_4  and  C9_34 
REMARK    3  A    between atoms: C7_6  and  N5_28 
REMARK       I    between atoms: C21_13  and  N6_18 
REMARK    4  A    between atoms: C21_13  and  C18_23 
REMARK    5  A    between atoms: C22_14  and  N6_18 
REMARK    6  A    between atoms: C16_24  and  O3_25 
REMARK    7  A    between atoms: N5_28  and  C1_29 
ROOT
HETATM    1  N1    D T 401     -13.441  -1.545  -7.560  1.00 24.43    -0.056 NA
HETATM    2  N3    D T 401     -12.942  -3.312 -11.310  1.00 24.87    -0.328 N 
HETATM    3  C4    D T 401     -13.998  -2.754  -7.736  1.00 24.33     0.138 A 
HETATM    4  C5    D T 401     -13.532  -4.643 -11.617  1.00 24.68     0.162 A 
HETATM    5  C6    D T 401     -14.253  -5.296 -10.487  1.00 25.06     0.258 A 
HETATM    6  C1    D T 401     -12.745  -0.912  -8.542  1.00 24.96     0.752 A 
HETATM    7  N2    D T 401     -12.584  -1.493  -9.757  1.00 25.42    -0.041 NA
HETATM    8  C2    D T 401     -13.107  -2.714 -10.034  1.00 24.50     0.176 A 
HETATM    9  O1    D T 401     -14.766  -6.424 -10.699  1.00 25.29    -0.270 OA
HETATM   10  N4    D T 401     -14.428  -4.673  -9.221  1.00 24.77    -0.292 N 
HETATM   11  C11   D T 401     -15.184  -5.366  -8.167  1.00 25.67     0.134 C 
HETATM   12  C3    D T 401     -13.868  -3.403  -8.965  1.00 24.44     0.117 A 
ENDROOT
BRANCH   6  13
HETATM   13  N5    D T 401     -12.229   0.310  -8.248  1.00 24.95    -0.057 NA
BRANCH  13  14
HETATM   14  C7    D T 401     -12.718   1.271  -7.416  1.00 25.44     0.122 A 
HETATM   15  C20   D T 401     -14.055   1.350  -7.001  1.00 23.96     0.022 A 
HETATM   16  C19   D T 401     -14.470   2.383  -6.153  1.00 24.92     0.006 A 
HETATM   17  C18   D T 401     -13.573   3.356  -5.697  1.00 25.62     0.060 A 
HETATM   18  C17   D T 401     -12.237   3.319  -6.090  1.00 25.49     0.030 A 
HETATM   19  C16   D T 401     -11.768   2.314  -6.935  1.00 24.16     0.113 A 
BRANCH  17  20
HETATM   20  C21   D T 401     -14.021   4.471  -4.791  1.00 26.92     0.275 C 
HETATM   21  O2    D T 401     -14.314   5.540  -5.304  1.00 30.54    -0.266 OA
HETATM   22  N6    D T 401     -14.087   4.283  -3.471  1.00 31.16    -0.236 NA
BRANCH  22  23
HETATM   23  C22   D T 401     -14.290   5.385  -2.544  1.00 34.88     0.111 C 
HETATM   24  C29   D T 401     -15.556   5.180  -1.714  1.00 36.76     0.048 C 
HETATM   25  C28   D T 401     -15.802   6.390  -0.809  1.00 38.21     0.099 C 
HETATM   26  N7    D T 401     -14.579   6.609  -0.033  1.00 37.76    -0.367 N 
HETATM   27  C24   D T 401     -13.280   6.758  -0.690  1.00 37.52     0.099 C 
HETATM   28  C30   D T 401     -14.657   6.698   1.419  1.00 36.85     0.121 C 
HETATM   29  C23   D T 401     -13.101   5.539  -1.597  1.00 35.87     0.048 C 
ENDBRANCH  22  23
ENDBRANCH  17  20
BRANCH  19  30
HETATM   30  O3    D T 401     -10.449   2.274  -7.317  1.00 24.11    -0.327 OA
HETATM   31  C31   D T 401      -9.403   2.685  -6.435  1.00 17.70     0.181 C 
ENDBRANCH  19  30
ENDBRANCH  13  14
ENDBRANCH   6  13
BRANCH   2  32
HETATM   32  C8    D T 401     -12.133  -2.538 -12.291  1.00 24.12     0.083 C 
HETATM   33  C15   D T 401     -12.879  -1.977 -13.495  1.00 23.24     0.022 C 
HETATM   34  C14   D T 401     -11.835  -1.865 -14.606  1.00 24.93     0.002 C 
HETATM   35  C13   D T 401     -10.735  -2.911 -14.294  1.00 23.09     0.002 C 
HETATM   36  C12   D T 401     -10.915  -3.306 -12.819  1.00 23.56     0.022 C 
ENDBRANCH   2  32
BRANCH   4  37
HETATM   37  C9    D T 401     -14.589  -4.519 -12.731  1.00 25.78     0.032 C 
HETATM   38  C10   D T 401     -14.213  -5.269 -13.999  1.00 24.04     0.003 C 
ENDBRANCH   4  37
TORSDOF 7
ENDMDL
