MODEL 1
REMARK VINA RESULT:    -8.653      0.000      0.000
REMARK INTER + INTRA:         -13.696
REMARK INTER:                 -12.700
REMARK INTRA:                  -0.996
REMARK UNBOUND:                -0.996
REMARK  8 active torsions:
REMARK  status: ('A' for Active; 'I' for Inactive)
REMARK    1  A    between atoms: S1_2  and  N7_4 
REMARK    2  A    between atoms: S1_2  and  C21_9 
REMARK    3  A    between atoms: N7_4  and  C23_5 
REMARK    4  A    between atoms: C17_14  and  N1_15 
REMARK    5  A    between atoms: N1_15  and  C1_16 
REMARK    6  A    between atoms: C4_18  and  N4_23 
REMARK    7  A    between atoms: N4_23  and  C6_24 
REMARK    8  A    between atoms: C9_27  and  N5_30 
ROOT
HETATM    1  C1    D T1201     -11.589   2.455  -6.759  1.00 25.50     0.178 A 
HETATM    2  N3    D T1201     -12.174   1.517  -7.522  1.00 24.51    -0.041 NA
HETATM    3  C4    D T1201     -11.428   0.701  -8.268  1.00 26.00     0.751 A 
HETATM    4  N2    D T1201     -10.091   0.785  -8.282  1.00 27.09    -0.058 NA
HETATM    5  C3    D T1201      -9.485   1.705  -7.526  1.00 26.64     0.117 A 
HETATM    6  C2    D T1201     -10.207   2.585  -6.736  1.00 22.40     0.034 A 
HETATM    7  C5    D T1201      -9.487   3.609  -5.892  1.00 20.91     0.036 C 
ENDROOT
BRANCH   1   8
HETATM    8  N1    D T1201     -12.400   3.252  -6.024  1.00 26.87    -0.227 NA
BRANCH   8   9
HETATM    9  C17   D T1201     -12.934   3.117  -4.779  1.00 26.69     0.084 A 
HETATM   10  C18   D T1201     -13.353   1.888  -4.265  1.00 27.53     0.019 A 
HETATM   11  C19   D T1201     -13.874   1.793  -2.969  1.00 30.18     0.002 A 
HETATM   12  C20   D T1201     -13.960   2.939  -2.177  1.00 27.75     0.013 A 
HETATM   13  C21   D T1201     -13.534   4.162  -2.704  1.00 29.98     0.106 A 
HETATM   14  C22   D T1201     -13.022   4.252  -3.987  1.00 25.75     0.032 A 
BRANCH  13  15
HETATM   15  S1    D T1201     -13.564   5.663  -1.753  1.00 33.88     0.281 S 
HETATM   16  O2    D T1201     -12.443   5.606  -0.872  1.00 32.26    -0.199 OA
HETATM   17  O1    D T1201     -14.856   5.738  -1.133  1.00 41.11    -0.199 OA
BRANCH  15  18
HETATM   18  N7    D T1201     -13.189   6.917  -2.926  1.00 34.20    -0.189 NA
BRANCH  18  19
HETATM   19  C23   D T1201     -12.090   7.858  -2.857  1.00 42.34     0.097 C 
HETATM   20  C26   D T1201     -10.787   7.085  -3.013  1.00 28.35     0.025 C 
HETATM   21  C25   D T1201     -12.105   8.624  -1.542  1.00 32.55     0.025 C 
HETATM   22  C24   D T1201     -12.238   8.827  -4.024  1.00 33.84     0.025 C 
ENDBRANCH  18  19
ENDBRANCH  15  18
ENDBRANCH  13  15
ENDBRANCH   8   9
ENDBRANCH   1   8
BRANCH   3  23
HETATM   23  N4    D T1201     -12.028  -0.251  -9.042  1.00 27.54    -0.059 NA
BRANCH  23  24
HETATM   24  C6    D T1201     -13.065  -1.110  -8.839  1.00 28.50     0.100 A 
HETATM   25  C11   D T1201     -14.116  -1.151  -9.750  1.00 28.34     0.021 A 
HETATM   26  C10   D T1201     -15.172  -2.026  -9.568  1.00 24.65     0.018 A 
HETATM   27  C9    D T1201     -15.199  -2.871  -8.461  1.00 32.26     0.056 A 
HETATM   28  C8    D T1201     -14.147  -2.849  -7.539  1.00 24.70     0.018 A 
HETATM   29  C7    D T1201     -13.087  -1.965  -7.733  1.00 27.68     0.021 A 
BRANCH  27  30
HETATM   30  N5    D T1201     -16.287  -3.754  -8.343  1.00 35.69    -0.344 N 
HETATM   31  C15   D T1201     -16.289  -5.030  -9.100  1.00 37.46     0.137 C 
HETATM   32  C14   D T1201     -16.500  -6.278  -8.261  1.00 37.22     0.274 C 
HETATM   33  N6    D T1201     -17.743  -6.119  -7.501  1.00 55.55     0.143 N 
HETATM   34  C16   D T1201     -17.994  -7.358  -6.746  1.00 64.64     0.286 C 
HETATM   35  C13   D T1201     -17.595  -4.981  -6.575  1.00 53.32     0.274 C 
HETATM   36  C12   D T1201     -17.375  -3.672  -7.337  1.00 47.69     0.137 C 
ENDBRANCH  27  30
ENDBRANCH  23  24
ENDBRANCH   3  23
TORSDOF 8
ENDMDL
MODEL 2
REMARK VINA RESULT:    -8.590      3.392      8.060
REMARK INTER + INTRA:         -13.604
REMARK INTER:                 -11.658
REMARK INTRA:                  -1.946
REMARK UNBOUND:                -0.996
REMARK  8 active torsions:
REMARK  status: ('A' for Active; 'I' for Inactive)
REMARK    1  A    between atoms: S1_2  and  N7_4 
REMARK    2  A    between atoms: S1_2  and  C21_9 
REMARK    3  A    between atoms: N7_4  and  C23_5 
REMARK    4  A    between atoms: C17_14  and  N1_15 
REMARK    5  A    between atoms: N1_15  and  C1_16 
REMARK    6  A    between atoms: C4_18  and  N4_23 
REMARK    7  A    between atoms: N4_23  and  C6_24 
REMARK    8  A    between atoms: C9_27  and  N5_30 
ROOT
HETATM    1  C1    D T1201     -13.145   1.290  -7.221  1.00 25.50     0.178 A 
HETATM    2  N3    D T1201     -13.947   2.090  -6.499  1.00 24.51    -0.041 NA
HETATM    3  C4    D T1201     -15.088   1.616  -5.996  1.00 26.00     0.751 A 
HETATM    4  N2    D T1201     -15.468   0.346  -6.188  1.00 27.09    -0.058 NA
HETATM    5  C3    D T1201     -14.684  -0.471  -6.898  1.00 26.64     0.117 A 
HETATM    6  C2    D T1201     -13.492  -0.034  -7.451  1.00 22.40     0.034 A 
HETATM    7  C5    D T1201     -12.630  -0.988  -8.243  1.00 20.91     0.036 C 
ENDROOT
BRANCH   1   8
HETATM    8  N1    D T1201     -12.002   1.831  -7.703  1.00 26.87    -0.227 NA
BRANCH   8   9
HETATM    9  C17   D T1201     -10.832   2.185  -7.103  1.00 26.69     0.084 A 
HETATM   10  C18   D T1201      -9.619   1.548  -7.376  1.00 27.53     0.019 A 
HETATM   11  C19   D T1201      -8.436   1.962  -6.753  1.00 30.18     0.002 A 
HETATM   12  C20   D T1201      -8.468   3.035  -5.860  1.00 27.75     0.013 A 
HETATM   13  C21   D T1201      -9.689   3.665  -5.599  1.00 29.98     0.106 A 
HETATM   14  C22   D T1201     -10.857   3.250  -6.216  1.00 25.75     0.032 A 
BRANCH  13  15
HETATM   15  S1    D T1201      -9.817   5.066  -4.514  1.00 33.88     0.281 S 
HETATM   16  O2    D T1201      -9.556   6.221  -5.311  1.00 32.26    -0.199 OA
HETATM   17  O1    D T1201      -8.915   4.831  -3.423  1.00 41.11    -0.199 OA
BRANCH  15  18
HETATM   18  N7    D T1201     -11.526   5.137  -4.111  1.00 34.20    -0.189 NA
BRANCH  18  19
HETATM   19  C23   D T1201     -12.138   5.981  -3.105  1.00 42.34     0.097 C 
HETATM   20  C26   D T1201     -11.492   7.358  -3.177  1.00 28.35     0.025 C 
HETATM   21  C25   D T1201     -11.974   5.384  -1.714  1.00 32.55     0.025 C 
HETATM   22  C24   D T1201     -13.618   6.105  -3.445  1.00 33.84     0.025 C 
ENDBRANCH  18  19
ENDBRANCH  15  18
ENDBRANCH  13  15
ENDBRANCH   8   9
ENDBRANCH   1   8
BRANCH   3  23
HETATM   23  N4    D T1201     -15.900   2.432  -5.262  1.00 27.54    -0.059 NA
BRANCH  23  24
HETATM   24  C6    D T1201     -15.839   2.924  -3.992  1.00 28.50     0.100 A 
HETATM   25  C11   D T1201     -16.794   3.840  -3.560  1.00 28.34     0.021 A 
HETATM   26  C10   D T1201     -16.755   4.340  -2.271  1.00 24.65     0.018 A 
HETATM   27  C9    D T1201     -15.752   3.938  -1.392  1.00 32.26     0.056 A 
HETATM   28  C8    D T1201     -14.789   3.012  -1.808  1.00 24.70     0.018 A 
HETATM   29  C7    D T1201     -14.837   2.513  -3.108  1.00 27.68     0.021 A 
BRANCH  27  30
HETATM   30  N5    D T1201     -15.780   4.462  -0.088  1.00 35.69    -0.344 N 
HETATM   31  C15   D T1201     -15.073   5.731   0.214  1.00 37.46     0.137 C 
HETATM   32  C14   D T1201     -15.927   6.807   0.860  1.00 37.22     0.274 C 
HETATM   33  N6    D T1201     -16.538   6.249   2.070  1.00 55.55     0.143 N 
HETATM   34  C16   D T1201     -17.304   7.311   2.743  1.00 64.64     0.286 C 
HETATM   35  C13   D T1201     -17.434   5.143   1.685  1.00 53.32     0.274 C 
HETATM   36  C12   D T1201     -16.656   4.005   1.019  1.00 47.69     0.137 C 
ENDBRANCH  27  30
ENDBRANCH  23  24
ENDBRANCH   3  23
TORSDOF 8
ENDMDL
MODEL 3
REMARK VINA RESULT:    -8.542      1.520      2.034
REMARK INTER + INTRA:         -13.533
REMARK INTER:                 -12.355
REMARK INTRA:                  -1.177
REMARK UNBOUND:                -0.996
REMARK  8 active torsions:
REMARK  status: ('A' for Active; 'I' for Inactive)
REMARK    1  A    between atoms: S1_2  and  N7_4 
REMARK    2  A    between atoms: S1_2  and  C21_9 
REMARK    3  A    between atoms: N7_4  and  C23_5 
REMARK    4  A    between atoms: C17_14  and  N1_15 
REMARK    5  A    between atoms: N1_15  and  C1_16 
REMARK    6  A    between atoms: C4_18  and  N4_23 
REMARK    7  A    between atoms: N4_23  and  C6_24 
REMARK    8  A    between atoms: C9_27  and  N5_30 
ROOT
HETATM    1  C1    D T1201     -11.391   2.484  -6.737  1.00 25.50     0.178 A 
HETATM    2  N3    D T1201     -12.031   1.587  -7.505  1.00 24.51    -0.041 NA
HETATM    3  C4    D T1201     -11.334   0.734  -8.258  1.00 26.00     0.751 A 
HETATM    4  N2    D T1201      -9.995   0.740  -8.272  1.00 27.09    -0.058 NA
HETATM    5  C3    D T1201      -9.336   1.619  -7.512  1.00 26.64     0.117 A 
HETATM    6  C2    D T1201     -10.004   2.534  -6.715  1.00 22.40     0.034 A 
HETATM    7  C5    D T1201      -9.225   3.509  -5.865  1.00 20.91     0.036 C 
ENDROOT
BRANCH   1   8
HETATM    8  N1    D T1201     -12.155   3.322  -5.996  1.00 26.87    -0.227 NA
BRANCH   8   9
HETATM    9  C17   D T1201     -12.765   3.178  -4.788  1.00 26.69     0.084 A 
HETATM   10  C18   D T1201     -13.310   1.966  -4.356  1.00 27.53     0.019 A 
HETATM   11  C19   D T1201     -13.908   1.858  -3.095  1.00 30.18     0.002 A 
HETATM   12  C20   D T1201     -13.945   2.972  -2.254  1.00 27.75     0.013 A 
HETATM   13  C21   D T1201     -13.393   4.177  -2.699  1.00 29.98     0.106 A 
HETATM   14  C22   D T1201     -12.806   4.281  -3.948  1.00 25.75     0.032 A 
BRANCH  13  15
HETATM   15  S1    D T1201     -13.355   5.633  -1.680  1.00 33.88     0.281 S 
HETATM   16  O2    D T1201     -12.953   6.709  -2.527  1.00 32.26    -0.199 OA
HETATM   17  O1    D T1201     -12.493   5.343  -0.571  1.00 41.11    -0.199 OA
BRANCH  15  18
HETATM   18  N7    D T1201     -15.045   5.930  -1.298  1.00 34.20    -0.189 NA
BRANCH  18  19
HETATM   19  C23   D T1201     -15.575   6.353  -0.018  1.00 42.34     0.097 C 
HETATM   20  C26   D T1201     -17.048   6.693  -0.198  1.00 28.35     0.025 C 
HETATM   21  C25   D T1201     -14.810   7.553   0.523  1.00 32.55     0.025 C 
HETATM   22  C24   D T1201     -15.447   5.180   0.945  1.00 33.84     0.025 C 
ENDBRANCH  18  19
ENDBRANCH  15  18
ENDBRANCH  13  15
ENDBRANCH   8   9
ENDBRANCH   1   8
BRANCH   3  23
HETATM   23  N4    D T1201     -11.988  -0.176  -9.037  1.00 27.54    -0.059 NA
BRANCH  23  24
HETATM   24  C6    D T1201     -13.025  -1.032  -8.814  1.00 28.50     0.100 A 
HETATM   25  C11   D T1201     -14.104  -1.054  -9.693  1.00 28.34     0.021 A 
HETATM   26  C10   D T1201     -15.159  -1.924  -9.490  1.00 24.65     0.018 A 
HETATM   27  C9    D T1201     -15.159  -2.783  -8.394  1.00 32.26     0.056 A 
HETATM   28  C8    D T1201     -14.079  -2.779  -7.504  1.00 24.70     0.018 A 
HETATM   29  C7    D T1201     -13.020  -1.900  -7.719  1.00 27.68     0.021 A 
BRANCH  27  30
HETATM   30  N5    D T1201     -16.248  -3.661  -8.254  1.00 35.69    -0.344 N 
HETATM   31  C15   D T1201     -16.358  -4.849  -9.135  1.00 37.46     0.137 C 
HETATM   32  C14   D T1201     -16.511  -6.176  -8.412  1.00 37.22     0.274 C 
HETATM   33  N6    D T1201     -17.665  -6.084  -7.514  1.00 55.55     0.143 N 
HETATM   34  C16   D T1201     -17.865  -7.392  -6.869  1.00 64.64     0.286 C 
HETATM   35  C13   D T1201     -17.395  -5.052  -6.496  1.00 53.32     0.274 C 
HETATM   36  C12   D T1201     -17.225  -3.672  -7.136  1.00 47.69     0.137 C 
ENDBRANCH  27  30
ENDBRANCH  23  24
ENDBRANCH   3  23
TORSDOF 8
ENDMDL
MODEL 4
REMARK VINA RESULT:    -8.495      4.306     10.041
REMARK INTER + INTRA:         -13.463
REMARK INTER:                 -12.445
REMARK INTRA:                  -1.018
REMARK UNBOUND:                -0.996
REMARK  8 active torsions:
REMARK  status: ('A' for Active; 'I' for Inactive)
REMARK    1  A    between atoms: S1_2  and  N7_4 
REMARK    2  A    between atoms: S1_2  and  C21_9 
REMARK    3  A    between atoms: N7_4  and  C23_5 
REMARK    4  A    between atoms: C17_14  and  N1_15 
REMARK    5  A    between atoms: N1_15  and  C1_16 
REMARK    6  A    between atoms: C4_18  and  N4_23 
REMARK    7  A    between atoms: N4_23  and  C6_24 
REMARK    8  A    between atoms: C9_27  and  N5_30 
ROOT
HETATM    1  C1    D T1201     -11.352   2.737  -6.573  1.00 25.50     0.178 A 
HETATM    2  N3    D T1201     -11.734   3.636  -5.651  1.00 24.51    -0.041 NA
HETATM    3  C4    D T1201     -10.820   4.262  -4.907  1.00 26.00     0.751 A 
HETATM    4  N2    D T1201      -9.510   4.022  -5.054  1.00 27.09    -0.058 NA
HETATM    5  C3    D T1201      -9.104   3.137  -5.969  1.00 26.64     0.117 A 
HETATM    6  C2    D T1201     -10.007   2.451  -6.765  1.00 22.40     0.034 A 
HETATM    7  C5    D T1201      -9.511   1.462  -7.793  1.00 20.91     0.036 C 
ENDROOT
BRANCH   1   8
HETATM    8  N1    D T1201     -12.327   2.137  -7.294  1.00 26.87    -0.227 NA
BRANCH   8   9
HETATM    9  C17   D T1201     -12.959   0.938  -7.161  1.00 26.69     0.084 A 
HETATM   10  C18   D T1201     -13.634   0.565  -5.996  1.00 27.53     0.019 A 
HETATM   11  C19   D T1201     -14.290  -0.669  -5.913  1.00 30.18     0.002 A 
HETATM   12  C20   D T1201     -14.282  -1.528  -7.013  1.00 27.75     0.013 A 
HETATM   13  C21   D T1201     -13.605  -1.140  -8.173  1.00 29.98     0.106 A 
HETATM   14  C22   D T1201     -12.954   0.080  -8.250  1.00 25.75     0.032 A 
BRANCH  13  15
HETATM   15  S1    D T1201     -13.580  -2.148  -9.636  1.00 33.88     0.281 S 
HETATM   16  O2    D T1201     -12.241  -2.110 -10.130  1.00 32.26    -0.199 OA
HETATM   17  O1    D T1201     -14.594  -1.636 -10.512  1.00 41.11    -0.199 OA
BRANCH  15  18
HETATM   18  N7    D T1201     -13.822  -3.781  -9.033  1.00 34.20    -0.189 NA
BRANCH  18  19
HETATM   19  C23   D T1201     -14.947  -4.646  -9.322  1.00 42.34     0.097 C 
HETATM   20  C26   D T1201     -14.925  -4.981 -10.807  1.00 28.35     0.025 C 
HETATM   21  C25   D T1201     -16.262  -3.981  -8.941  1.00 32.55     0.025 C 
HETATM   22  C24   D T1201     -14.761  -5.928  -8.518  1.00 33.84     0.025 C 
ENDBRANCH  18  19
ENDBRANCH  15  18
ENDBRANCH  13  15
ENDBRANCH   8   9
ENDBRANCH   1   8
BRANCH   3  23
HETATM   23  N4    D T1201     -11.213   5.174  -3.971  1.00 27.54    -0.059 NA
BRANCH  23  24
HETATM   24  C6    D T1201     -12.304   5.280  -3.162  1.00 28.50     0.100 A 
HETATM   25  C11   D T1201     -12.144   5.259  -1.780  1.00 28.34     0.021 A 
HETATM   26  C10   D T1201     -13.239   5.378  -0.943  1.00 24.65     0.018 A 
HETATM   27  C9    D T1201     -14.519   5.510  -1.477  1.00 32.26     0.056 A 
HETATM   28  C8    D T1201     -14.697   5.540  -2.865  1.00 24.70     0.018 A 
HETATM   29  C7    D T1201     -13.587   5.422  -3.699  1.00 27.68     0.021 A 
BRANCH  27  30
HETATM   30  N5    D T1201     -15.589   5.651  -0.576  1.00 35.69    -0.344 N 
HETATM   31  C15   D T1201     -16.859   4.925  -0.818  1.00 37.46     0.137 C 
HETATM   32  C14   D T1201     -17.339   4.062   0.336  1.00 37.22     0.274 C 
HETATM   33  N6    D T1201     -17.438   4.902   1.532  1.00 55.55     0.143 N 
HETATM   34  C16   D T1201     -17.977   4.089   2.635  1.00 64.64     0.286 C 
HETATM   35  C13   D T1201     -16.093   5.399   1.878  1.00 53.32     0.274 C 
HETATM   36  C12   D T1201     -15.525   6.283   0.765  1.00 47.69     0.137 C 
ENDBRANCH  27  30
ENDBRANCH  23  24
ENDBRANCH   3  23
TORSDOF 8
ENDMDL
MODEL 5
REMARK VINA RESULT:    -8.494      3.185      5.724
REMARK INTER + INTRA:         -13.462
REMARK INTER:                 -12.779
REMARK INTRA:                  -0.683
REMARK UNBOUND:                -0.996
REMARK  8 active torsions:
REMARK  status: ('A' for Active; 'I' for Inactive)
REMARK    1  A    between atoms: S1_2  and  N7_4 
REMARK    2  A    between atoms: S1_2  and  C21_9 
REMARK    3  A    between atoms: N7_4  and  C23_5 
REMARK    4  A    between atoms: C17_14  and  N1_15 
REMARK    5  A    between atoms: N1_15  and  C1_16 
REMARK    6  A    between atoms: C4_18  and  N4_23 
REMARK    7  A    between atoms: N4_23  and  C6_24 
REMARK    8  A    between atoms: C9_27  and  N5_30 
ROOT
HETATM    1  C1    D T1201     -12.229   6.063  -3.412  1.00 25.50     0.178 A 
HETATM    2  N3    D T1201     -11.929   5.027  -4.212  1.00 24.51    -0.041 NA
HETATM    3  C4    D T1201     -10.654   4.705  -4.440  1.00 26.00     0.751 A 
HETATM    4  N2    D T1201      -9.645   5.391  -3.886  1.00 27.09    -0.058 NA
HETATM    5  C3    D T1201      -9.919   6.422  -3.081  1.00 26.64     0.117 A 
HETATM    6  C2    D T1201     -11.222   6.808  -2.813  1.00 22.40     0.034 A 
HETATM    7  C5    D T1201     -11.492   7.975  -1.894  1.00 20.91     0.036 C 
ENDROOT
BRANCH   1   8
HETATM    8  N1    D T1201     -13.541   6.338  -3.220  1.00 26.87    -0.227 NA
BRANCH   8   9
HETATM    9  C17   D T1201     -14.617   5.542  -2.973  1.00 26.69     0.084 A 
HETATM   10  C18   D T1201     -15.241   4.784  -3.967  1.00 27.53     0.019 A 
HETATM   11  C19   D T1201     -16.331   3.961  -3.662  1.00 30.18     0.002 A 
HETATM   12  C20   D T1201     -16.789   3.885  -2.345  1.00 27.75     0.013 A 
HETATM   13  C21   D T1201     -16.152   4.647  -1.360  1.00 29.98     0.106 A 
HETATM   14  C22   D T1201     -15.076   5.463  -1.667  1.00 25.75     0.032 A 
BRANCH  13  15
HETATM   15  S1    D T1201     -16.636   4.579   0.348  1.00 33.88     0.281 S 
HETATM   16  O2    D T1201     -17.112   5.882   0.686  1.00 32.26    -0.199 OA
HETATM   17  O1    D T1201     -15.499   4.109   1.085  1.00 41.11    -0.199 OA
BRANCH  15  18
HETATM   18  N7    D T1201     -18.052   3.537   0.349  1.00 34.20    -0.189 NA
BRANCH  18  19
HETATM   19  C23   D T1201     -19.139   3.565   1.305  1.00 42.34     0.097 C 
HETATM   20  C26   D T1201     -19.877   2.235   1.232  1.00 28.35     0.025 C 
HETATM   21  C25   D T1201     -20.089   4.721   1.022  1.00 32.55     0.025 C 
HETATM   22  C24   D T1201     -18.530   3.723   2.693  1.00 33.84     0.025 C 
ENDBRANCH  18  19
ENDBRANCH  15  18
ENDBRANCH  13  15
ENDBRANCH   8   9
ENDBRANCH   1   8
BRANCH   3  23
HETATM   23  N4    D T1201     -10.353   3.651  -5.254  1.00 27.54    -0.059 NA
BRANCH  23  24
HETATM   24  C6    D T1201     -11.109   2.764  -5.960  1.00 28.50     0.100 A 
HETATM   25  C11   D T1201     -10.649   2.285  -7.183  1.00 28.34     0.021 A 
HETATM   26  C10   D T1201     -11.396   1.374  -7.907  1.00 24.65     0.018 A 
HETATM   27  C9    D T1201     -12.626   0.933  -7.424  1.00 32.26     0.056 A 
HETATM   28  C8    D T1201     -13.100   1.398  -6.193  1.00 24.70     0.018 A 
HETATM   29  C7    D T1201     -12.338   2.314  -5.469  1.00 27.68     0.021 A 
BRANCH  27  30
HETATM   30  N5    D T1201     -13.327  -0.011  -8.194  1.00 35.69    -0.344 N 
HETATM   31  C15   D T1201     -12.610  -0.813  -9.216  1.00 37.46     0.137 C 
HETATM   32  C14   D T1201     -12.770  -2.317  -9.084  1.00 37.22     0.274 C 
HETATM   33  N6    D T1201     -14.201  -2.632  -9.085  1.00 55.55     0.143 N 
HETATM   34  C16   D T1201     -14.361  -4.094  -9.037  1.00 64.64     0.286 C 
HETATM   35  C13   D T1201     -14.826  -2.014  -7.900  1.00 53.32     0.274 C 
HETATM   36  C12   D T1201     -14.711  -0.487  -7.946  1.00 47.69     0.137 C 
ENDBRANCH  27  30
ENDBRANCH  23  24
ENDBRANCH   3  23
TORSDOF 8
ENDMDL
MODEL 6
REMARK VINA RESULT:    -8.404      3.181      5.139
REMARK INTER + INTRA:         -13.330
REMARK INTER:                 -12.241
REMARK INTRA:                  -1.089
REMARK UNBOUND:                -0.996
REMARK  8 active torsions:
REMARK  status: ('A' for Active; 'I' for Inactive)
REMARK    1  A    between atoms: S1_2  and  N7_4 
REMARK    2  A    between atoms: S1_2  and  C21_9 
REMARK    3  A    between atoms: N7_4  and  C23_5 
REMARK    4  A    between atoms: C17_14  and  N1_15 
REMARK    5  A    between atoms: N1_15  and  C1_16 
REMARK    6  A    between atoms: C4_18  and  N4_23 
REMARK    7  A    between atoms: N4_23  and  C6_24 
REMARK    8  A    between atoms: C9_27  and  N5_30 
ROOT
HETATM    1  C1    D T1201     -12.006   5.483  -3.680  1.00 25.50     0.178 A 
HETATM    2  N3    D T1201     -12.304   4.542  -4.591  1.00 24.51    -0.041 NA
HETATM    3  C4    D T1201     -11.327   3.887  -5.221  1.00 26.00     0.751 A 
HETATM    4  N2    D T1201     -10.035   4.140  -4.971  1.00 27.09    -0.058 NA
HETATM    5  C3    D T1201      -9.713   5.067  -4.064  1.00 26.64     0.117 A 
HETATM    6  C2    D T1201     -10.684   5.784  -3.383  1.00 22.40     0.034 A 
HETATM    7  C5    D T1201     -10.281   6.820  -2.361  1.00 20.91     0.036 C 
ENDROOT
BRANCH   1   8
HETATM    8  N1    D T1201     -13.042   6.110  -3.075  1.00 26.87    -0.227 NA
BRANCH   8   9
HETATM    9  C17   D T1201     -13.686   5.886  -1.896  1.00 26.69     0.084 A 
HETATM   10  C18   D T1201     -13.433   6.632  -0.743  1.00 27.53     0.019 A 
HETATM   11  C19   D T1201     -14.137   6.382   0.441  1.00 30.18     0.002 A 
HETATM   12  C20   D T1201     -15.115   5.386   0.462  1.00 27.75     0.013 A 
HETATM   13  C21   D T1201     -15.360   4.650  -0.701  1.00 29.98     0.106 A 
HETATM   14  C22   D T1201     -14.658   4.898  -1.869  1.00 25.75     0.032 A 
BRANCH  13  15
HETATM   15  S1    D T1201     -16.616   3.396  -0.780  1.00 33.88     0.281 S 
HETATM   16  O2    D T1201     -15.951   2.146  -0.597  1.00 32.26    -0.199 OA
HETATM   17  O1    D T1201     -17.303   3.572  -2.027  1.00 41.11    -0.199 OA
BRANCH  15  18
HETATM   18  N7    D T1201     -17.566   3.652   0.676  1.00 34.20    -0.189 NA
BRANCH  18  19
HETATM   19  C23   D T1201     -18.985   3.409   0.831  1.00 42.34     0.097 C 
HETATM   20  C26   D T1201     -19.303   3.350   2.318  1.00 28.35     0.025 C 
HETATM   21  C25   D T1201     -19.398   2.115   0.143  1.00 32.55     0.025 C 
HETATM   22  C24   D T1201     -19.725   4.586   0.208  1.00 33.84     0.025 C 
ENDBRANCH  18  19
ENDBRANCH  15  18
ENDBRANCH  13  15
ENDBRANCH   8   9
ENDBRANCH   1   8
BRANCH   3  23
HETATM   23  N4    D T1201     -11.635   2.932  -6.147  1.00 27.54    -0.059 NA
BRANCH  23  24
HETATM   24  C6    D T1201     -12.535   1.909  -6.178  1.00 28.50     0.100 A 
HETATM   25  C11   D T1201     -12.755   1.219  -7.366  1.00 28.34     0.021 A 
HETATM   26  C10   D T1201     -13.655   0.170  -7.414  1.00 24.65     0.018 A 
HETATM   27  C9    D T1201     -14.361  -0.201  -6.272  1.00 32.26     0.056 A 
HETATM   28  C8    D T1201     -14.146   0.477  -5.067  1.00 24.70     0.018 A 
HETATM   29  C7    D T1201     -13.235   1.531  -5.029  1.00 27.68     0.021 A 
BRANCH  27  30
HETATM   30  N5    D T1201     -15.243  -1.290  -6.378  1.00 35.69    -0.344 N 
HETATM   31  C15   D T1201     -16.498  -1.152  -7.157  1.00 37.46     0.137 C 
HETATM   32  C14   D T1201     -16.702  -2.196  -8.241  1.00 37.22     0.274 C 
HETATM   33  N6    D T1201     -16.612  -3.524  -7.627  1.00 55.55     0.143 N 
HETATM   34  C16   D T1201     -16.887  -4.538  -8.657  1.00 64.64     0.286 C 
HETATM   35  C13   D T1201     -15.254  -3.707  -7.084  1.00 53.32     0.274 C 
HETATM   36  C12   D T1201     -14.956  -2.690  -5.978  1.00 47.69     0.137 C 
ENDBRANCH  27  30
ENDBRANCH  23  24
ENDBRANCH   3  23
TORSDOF 8
ENDMDL
MODEL 7
REMARK VINA RESULT:    -8.381      3.265      5.414
REMARK INTER + INTRA:         -13.296
REMARK INTER:                 -12.711
REMARK INTRA:                  -0.585
REMARK UNBOUND:                -0.996
REMARK  8 active torsions:
REMARK  status: ('A' for Active; 'I' for Inactive)
REMARK    1  A    between atoms: S1_2  and  N7_4 
REMARK    2  A    between atoms: S1_2  and  C21_9 
REMARK    3  A    between atoms: N7_4  and  C23_5 
REMARK    4  A    between atoms: C17_14  and  N1_15 
REMARK    5  A    between atoms: N1_15  and  C1_16 
REMARK    6  A    between atoms: C4_18  and  N4_23 
REMARK    7  A    between atoms: N4_23  and  C6_24 
REMARK    8  A    between atoms: C9_27  and  N5_30 
ROOT
HETATM    1  C1    D T1201     -12.259   5.447  -3.661  1.00 25.50     0.178 A 
HETATM    2  N3    D T1201     -11.855   4.511  -4.535  1.00 24.51    -0.041 NA
HETATM    3  C4    D T1201     -10.563   4.405  -4.853  1.00 26.00     0.751 A 
HETATM    4  N2    D T1201      -9.638   5.213  -4.318  1.00 27.09    -0.058 NA
HETATM    5  C3    D T1201     -10.014   6.148  -3.441  1.00 26.64     0.117 A 
HETATM    6  C2    D T1201     -11.342   6.311  -3.078  1.00 22.40     0.034 A 
HETATM    7  C5    D T1201     -11.728   7.376  -2.080  1.00 20.91     0.036 C 
ENDROOT
BRANCH   1   8
HETATM    8  N1    D T1201     -13.582   5.504  -3.381  1.00 26.87    -0.227 NA
BRANCH   8   9
HETATM    9  C17   D T1201     -14.360   4.826  -2.492  1.00 26.69     0.084 A 
HETATM   10  C18   D T1201     -14.286   3.442  -2.324  1.00 27.53     0.019 A 
HETATM   11  C19   D T1201     -15.089   2.790  -1.381  1.00 30.18     0.002 A 
HETATM   12  C20   D T1201     -15.961   3.538  -0.587  1.00 27.75     0.013 A 
HETATM   13  C21   D T1201     -16.022   4.923  -0.763  1.00 29.98     0.106 A 
HETATM   14  C22   D T1201     -15.228   5.563  -1.700  1.00 25.75     0.032 A 
BRANCH  13  15
HETATM   15  S1    D T1201     -17.067   5.959   0.232  1.00 33.88     0.281 S 
HETATM   16  O2    D T1201     -16.577   7.291   0.083  1.00 32.26    -0.199 OA
HETATM   17  O1    D T1201     -17.045   5.419   1.561  1.00 41.11    -0.199 OA
BRANCH  15  18
HETATM   18  N7    D T1201     -18.617   5.923  -0.598  1.00 34.20    -0.189 NA
BRANCH  18  19
HETATM   19  C23   D T1201     -19.922   6.076   0.011  1.00 42.34     0.097 C 
HETATM   20  C26   D T1201     -19.922   7.360   0.829  1.00 28.35     0.025 C 
HETATM   21  C25   D T1201     -20.260   4.880   0.891  1.00 32.55     0.025 C 
HETATM   22  C24   D T1201     -20.943   6.199  -1.113  1.00 33.84     0.025 C 
ENDBRANCH  18  19
ENDBRANCH  15  18
ENDBRANCH  13  15
ENDBRANCH   8   9
ENDBRANCH   1   8
BRANCH   3  23
HETATM   23  N4    D T1201     -10.157   3.452  -5.742  1.00 27.54    -0.059 NA
BRANCH  23  24
HETATM   24  C6    D T1201     -10.817   2.533  -6.501  1.00 28.50     0.100 A 
HETATM   25  C11   D T1201     -12.155   2.253  -6.238  1.00 28.34     0.021 A 
HETATM   26  C10   D T1201     -12.845   1.333  -7.006  1.00 24.65     0.018 A 
HETATM   27  C9    D T1201     -12.203   0.666  -8.047  1.00 32.26     0.056 A 
HETATM   28  C8    D T1201     -10.860   0.940  -8.329  1.00 24.70     0.018 A 
HETATM   29  C7    D T1201     -10.175   1.871  -7.551  1.00 27.68     0.021 A 
BRANCH  27  30
HETATM   30  N5    D T1201     -12.963  -0.241  -8.806  1.00 35.69    -0.344 N 
HETATM   31  C15   D T1201     -12.287  -1.168  -9.746  1.00 37.46     0.137 C 
HETATM   32  C14   D T1201     -12.614  -2.638  -9.549  1.00 37.22     0.274 C 
HETATM   33  N6    D T1201     -14.069  -2.800  -9.612  1.00 55.55     0.143 N 
HETATM   34  C16   D T1201     -14.387  -4.233  -9.501  1.00 64.64     0.286 C 
HETATM   35  C13   D T1201     -14.681  -2.056  -8.496  1.00 53.32     0.274 C 
HETATM   36  C12   D T1201     -14.400  -0.555  -8.611  1.00 47.69     0.137 C 
ENDBRANCH  27  30
ENDBRANCH  23  24
ENDBRANCH   3  23
TORSDOF 8
ENDMDL
MODEL 8
REMARK VINA RESULT:    -8.346      2.682      3.688
REMARK INTER + INTRA:         -13.245
REMARK INTER:                 -12.532
REMARK INTRA:                  -0.713
REMARK UNBOUND:                -0.996
REMARK  8 active torsions:
REMARK  status: ('A' for Active; 'I' for Inactive)
REMARK    1  A    between atoms: S1_2  and  N7_4 
REMARK    2  A    between atoms: S1_2  and  C21_9 
REMARK    3  A    between atoms: N7_4  and  C23_5 
REMARK    4  A    between atoms: C17_14  and  N1_15 
REMARK    5  A    between atoms: N1_15  and  C1_16 
REMARK    6  A    between atoms: C4_18  and  N4_23 
REMARK    7  A    between atoms: N4_23  and  C6_24 
REMARK    8  A    between atoms: C9_27  and  N5_30 
ROOT
HETATM    1  C1    D T1201     -11.629   4.079  -4.981  1.00 25.50     0.178 A 
HETATM    2  N3    D T1201     -12.109   3.229  -5.905  1.00 24.51    -0.041 NA
HETATM    3  C4    D T1201     -11.276   2.626  -6.756  1.00 26.00     0.751 A 
HETATM    4  N2    D T1201      -9.955   2.842  -6.719  1.00 27.09    -0.058 NA
HETATM    5  C3    D T1201      -9.453   3.678  -5.805  1.00 26.64     0.117 A 
HETATM    6  C2    D T1201     -10.268   4.338  -4.900  1.00 22.40     0.034 A 
HETATM    7  C5    D T1201      -9.663   5.272  -3.879  1.00 20.91     0.036 C 
ENDROOT
BRANCH   1   8
HETATM    8  N1    D T1201     -12.525   4.658  -4.148  1.00 26.87    -0.227 NA
BRANCH   8   9
HETATM    9  C17   D T1201     -13.366   4.146  -3.208  1.00 26.69     0.084 A 
HETATM   10  C18   D T1201     -13.706   2.792  -3.156  1.00 27.53     0.019 A 
HETATM   11  C19   D T1201     -14.557   2.305  -2.157  1.00 30.18     0.002 A 
HETATM   12  C20   D T1201     -15.059   3.182  -1.194  1.00 27.75     0.013 A 
HETATM   13  C21   D T1201     -14.709   4.533  -1.257  1.00 29.98     0.106 A 
HETATM   14  C22   D T1201     -13.869   5.012  -2.249  1.00 25.75     0.032 A 
BRANCH  13  15
HETATM   15  S1    D T1201     -15.263   5.712  -0.049  1.00 33.88     0.281 S 
HETATM   16  O2    D T1201     -16.168   6.588  -0.723  1.00 32.26    -0.199 OA
HETATM   17  O1    D T1201     -14.090   6.320   0.508  1.00 41.11    -0.199 OA
BRANCH  15  18
HETATM   18  N7    D T1201     -16.248   4.762   1.054  1.00 34.20    -0.189 NA
BRANCH  18  19
HETATM   19  C23   D T1201     -17.354   5.246   1.853  1.00 42.34     0.097 C 
HETATM   20  C26   D T1201     -18.591   5.317   0.969  1.00 28.35     0.025 C 
HETATM   21  C25   D T1201     -17.043   6.611   2.451  1.00 32.55     0.025 C 
HETATM   22  C24   D T1201     -17.594   4.235   2.968  1.00 33.84     0.025 C 
ENDBRANCH  18  19
ENDBRANCH  15  18
ENDBRANCH  13  15
ENDBRANCH   8   9
ENDBRANCH   1   8
BRANCH   3  23
HETATM   23  N4    D T1201     -11.769   1.764  -7.693  1.00 27.54    -0.059 NA
BRANCH  23  24
HETATM   24  C6    D T1201     -12.429   0.574  -7.620  1.00 28.50     0.100 A 
HETATM   25  C11   D T1201     -12.203  -0.401  -8.586  1.00 28.34     0.021 A 
HETATM   26  C10   D T1201     -12.855  -1.619  -8.522  1.00 24.65     0.018 A 
HETATM   27  C9    D T1201     -13.755  -1.880  -7.491  1.00 32.26     0.056 A 
HETATM   28  C8    D T1201     -13.989  -0.913  -6.507  1.00 24.70     0.018 A 
HETATM   29  C7    D T1201     -13.326   0.311  -6.580  1.00 27.68     0.021 A 
BRANCH  27  30
HETATM   30  N5    D T1201     -14.368  -3.145  -7.466  1.00 35.69    -0.344 N 
HETATM   31  C15   D T1201     -15.319  -3.484  -6.380  1.00 37.46     0.137 C 
HETATM   32  C14   D T1201     -16.684  -3.963  -6.844  1.00 37.22     0.274 C 
HETATM   33  N6    D T1201     -16.492  -5.103  -7.744  1.00 55.55     0.143 N 
HETATM   34  C16   D T1201     -17.813  -5.622  -8.135  1.00 64.64     0.286 C 
HETATM   35  C13   D T1201     -15.752  -4.650  -8.936  1.00 53.32     0.274 C 
HETATM   36  C12   D T1201     -14.356  -4.144  -8.563  1.00 47.69     0.137 C 
ENDBRANCH  27  30
ENDBRANCH  23  24
ENDBRANCH   3  23
TORSDOF 8
ENDMDL
MODEL 9
REMARK VINA RESULT:    -7.906      4.229      6.540
REMARK INTER + INTRA:         -12.599
REMARK INTER:                 -11.507
REMARK INTRA:                  -1.092
REMARK UNBOUND:                -0.996
REMARK  8 active torsions:
REMARK  status: ('A' for Active; 'I' for Inactive)
REMARK    1  A    between atoms: S1_2  and  N7_4 
REMARK    2  A    between atoms: S1_2  and  C21_9 
REMARK    3  A    between atoms: N7_4  and  C23_5 
REMARK    4  A    between atoms: C17_14  and  N1_15 
REMARK    5  A    between atoms: N1_15  and  C1_16 
REMARK    6  A    between atoms: C4_18  and  N4_23 
REMARK    7  A    between atoms: N4_23  and  C6_24 
REMARK    8  A    between atoms: C9_27  and  N5_30 
ROOT
HETATM    1  C1    D T1201     -14.410   4.872  -1.751  1.00 25.50     0.178 A 
HETATM    2  N3    D T1201     -14.486   4.427  -3.017  1.00 24.51    -0.041 NA
HETATM    3  C4    D T1201     -13.884   5.100  -4.000  1.00 26.00     0.751 A 
HETATM    4  N2    D T1201     -13.193   6.223  -3.763  1.00 27.09    -0.058 NA
HETATM    5  C3    D T1201     -13.097   6.681  -2.512  1.00 26.64     0.117 A 
HETATM    6  C2    D T1201     -13.706   6.030  -1.451  1.00 22.40     0.034 A 
HETATM    7  C5    D T1201     -13.571   6.577  -0.050  1.00 20.91     0.036 C 
ENDROOT
BRANCH   1   8
HETATM    8  N1    D T1201     -15.041   4.145  -0.800  1.00 26.87    -0.227 NA
BRANCH   8   9
HETATM    9  C17   D T1201     -16.343   3.783  -0.637  1.00 26.69     0.084 A 
HETATM   10  C18   D T1201     -16.777   2.458  -0.729  1.00 27.53     0.019 A 
HETATM   11  C19   D T1201     -18.123   2.130  -0.531  1.00 30.18     0.002 A 
HETATM   12  C20   D T1201     -19.039   3.137  -0.222  1.00 27.75     0.013 A 
HETATM   13  C21   D T1201     -18.589   4.458  -0.130  1.00 29.98     0.106 A 
HETATM   14  C22   D T1201     -17.257   4.779  -0.330  1.00 25.75     0.032 A 
BRANCH  13  15
HETATM   15  S1    D T1201     -19.673   5.798   0.303  1.00 33.88     0.281 S 
HETATM   16  O2    D T1201     -18.904   6.700   1.099  1.00 32.26    -0.199 OA
HETATM   17  O1    D T1201     -20.822   5.217   0.935  1.00 41.11    -0.199 OA
BRANCH  15  18
HETATM   18  N7    D T1201     -19.957   6.626  -1.221  1.00 34.20    -0.189 NA
BRANCH  18  19
HETATM   19  C23   D T1201     -20.734   7.833  -1.412  1.00 42.34     0.097 C 
HETATM   20  C26   D T1201     -21.921   7.795  -0.459  1.00 28.35     0.025 C 
HETATM   21  C25   D T1201     -21.208   7.958  -2.853  1.00 32.55     0.025 C 
HETATM   22  C24   D T1201     -19.844   9.017  -1.054  1.00 33.84     0.025 C 
ENDBRANCH  18  19
ENDBRANCH  15  18
ENDBRANCH  13  15
ENDBRANCH   8   9
ENDBRANCH   1   8
BRANCH   3  23
HETATM   23  N4    D T1201     -13.965   4.644  -5.284  1.00 27.54    -0.059 NA
BRANCH  23  24
HETATM   24  C6    D T1201     -13.678   3.452  -5.878  1.00 28.50     0.100 A 
HETATM   25  C11   D T1201     -12.409   3.232  -6.406  1.00 28.34     0.021 A 
HETATM   26  C10   D T1201     -12.096   2.023  -7.002  1.00 24.65     0.018 A 
HETATM   27  C9    D T1201     -13.052   1.015  -7.088  1.00 32.26     0.056 A 
HETATM   28  C8    D T1201     -14.330   1.217  -6.555  1.00 24.70     0.018 A 
HETATM   29  C7    D T1201     -14.635   2.437  -5.956  1.00 27.68     0.021 A 
BRANCH  27  30
HETATM   30  N5    D T1201     -12.666  -0.199  -7.683  1.00 35.69    -0.344 N 
HETATM   31  C15   D T1201     -13.052  -1.486  -7.055  1.00 37.46     0.137 C 
HETATM   32  C14   D T1201     -13.789  -2.453  -7.966  1.00 37.22     0.274 C 
HETATM   33  N6    D T1201     -12.969  -2.680  -9.159  1.00 55.55     0.143 N 
HETATM   34  C16   D T1201     -13.641  -3.677 -10.009  1.00 64.64     0.286 C 
HETATM   35  C13   D T1201     -12.824  -1.406  -9.888  1.00 53.32     0.274 C 
HETATM   36  C12   D T1201     -12.090  -0.363  -9.041  1.00 47.69     0.137 C 
ENDBRANCH  27  30
ENDBRANCH  23  24
ENDBRANCH   3  23
TORSDOF 8
ENDMDL
