MODEL 1
REMARK VINA RESULT:    -9.598      0.000      0.000
REMARK INTER + INTRA:         -14.676
REMARK INTER:                 -14.087
REMARK INTRA:                  -0.589
REMARK UNBOUND:                -0.589
REMARK  8 active torsions:
REMARK  status: ('A' for Active; 'I' for Inactive)
REMARK    1  A    between atoms: S1_2  and  N7_4 
REMARK    2  A    between atoms: S1_2  and  C21_9 
REMARK    3  A    between atoms: N7_4  and  C23_5 
REMARK    4  A    between atoms: C17_14  and  N1_15 
REMARK    5  A    between atoms: N1_15  and  C1_16 
REMARK    6  A    between atoms: C4_18  and  N4_23 
REMARK    7  A    between atoms: N4_23  and  C6_24 
REMARK    8  A    between atoms: C9_27  and  N5_30 
ROOT
HETATM    1  C1    D T1201       2.622  12.665   0.016  1.00 25.50     0.178 A 
HETATM    2  N3    D T1201       3.461  12.200   0.955  1.00 24.51    -0.041 NA
HETATM    3  C4    D T1201       3.034  12.024   2.208  1.00 26.00     0.751 A 
HETATM    4  N2    D T1201       1.773  12.301   2.565  1.00 27.09    -0.058 NA
HETATM    5  C3    D T1201       0.917  12.758   1.647  1.00 26.64     0.117 A 
HETATM    6  C2    D T1201       1.305  12.967   0.333  1.00 22.40     0.034 A 
HETATM    7  C5    D T1201       0.308  13.481  -0.677  1.00 20.91     0.036 C 
ENDROOT
BRANCH   1   8
HETATM    8  N1    D T1201       3.116  12.818  -1.235  1.00 26.87    -0.227 NA
BRANCH   8   9
HETATM    9  C17   D T1201       4.266  13.373  -1.704  1.00 26.69     0.084 A 
HETATM   10  C18   D T1201       5.320  12.610  -2.216  1.00 27.53     0.019 A 
HETATM   11  C19   D T1201       6.475  13.225  -2.710  1.00 30.18     0.002 A 
HETATM   12  C20   D T1201       6.569  14.618  -2.706  1.00 27.75     0.013 A 
HETATM   13  C21   D T1201       5.507  15.368  -2.195  1.00 29.98     0.106 A 
HETATM   14  C22   D T1201       4.366  14.756  -1.702  1.00 25.75     0.032 A 
BRANCH  13  15
HETATM   15  S1    D T1201       5.519  17.145  -2.189  1.00 33.88     0.281 S 
HETATM   16  O2    D T1201       6.623  17.545  -3.002  1.00 32.26    -0.199 OA
HETATM   17  O1    D T1201       5.563  17.557  -0.815  1.00 41.11    -0.199 OA
BRANCH  15  18
HETATM   18  N7    D T1201       4.074  17.586  -3.089  1.00 34.20    -0.189 NA
BRANCH  18  19
HETATM   19  C23   D T1201       2.791  17.954  -2.528  1.00 42.34     0.097 C 
HETATM   20  C26   D T1201       1.907  18.467  -3.656  1.00 28.35     0.025 C 
HETATM   21  C25   D T1201       2.948  19.013  -1.446  1.00 32.55     0.025 C 
HETATM   22  C24   D T1201       2.167  16.695  -1.937  1.00 33.84     0.025 C 
ENDBRANCH  18  19
ENDBRANCH  15  18
ENDBRANCH  13  15
ENDBRANCH   8   9
ENDBRANCH   1   8
BRANCH   3  23
HETATM   23  N4    D T1201       3.890  11.552   3.159  1.00 27.54    -0.059 NA
BRANCH  23  24
HETATM   24  C6    D T1201       5.249  11.525   3.270  1.00 28.50     0.100 A 
HETATM   25  C11   D T1201       6.012  12.521   2.666  1.00 28.34     0.021 A 
HETATM   26  C10   D T1201       7.390  12.516   2.779  1.00 24.65     0.018 A 
HETATM   27  C9    D T1201       8.033  11.506   3.490  1.00 32.26     0.056 A 
HETATM   28  C8    D T1201       7.281  10.500   4.109  1.00 24.70     0.018 A 
HETATM   29  C7    D T1201       5.892  10.516   3.992  1.00 27.68     0.021 A 
BRANCH  27  30
HETATM   30  N5    D T1201       9.434  11.569   3.589  1.00 35.69    -0.344 N 
HETATM   31  C15   D T1201      10.108  11.138   4.836  1.00 37.46     0.137 C 
HETATM   32  C14   D T1201      11.189  10.088   4.656  1.00 37.22     0.274 C 
HETATM   33  N6    D T1201      12.165  10.591   3.685  1.00 55.55     0.143 N 
HETATM   34  C16   D T1201      13.256   9.611   3.564  1.00 64.64     0.286 C 
HETATM   35  C13   D T1201      11.493  10.764   2.383  1.00 53.32     0.274 C 
HETATM   36  C12   D T1201      10.379  11.811   2.469  1.00 47.69     0.137 C 
ENDBRANCH  27  30
ENDBRANCH  23  24
ENDBRANCH   3  23
TORSDOF 8
ENDMDL
MODEL 2
REMARK VINA RESULT:    -9.552      1.510      2.926
REMARK INTER + INTRA:         -14.608
REMARK INTER:                 -13.354
REMARK INTRA:                  -1.254
REMARK UNBOUND:                -0.589
REMARK  8 active torsions:
REMARK  status: ('A' for Active; 'I' for Inactive)
REMARK    1  A    between atoms: S1_2  and  N7_4 
REMARK    2  A    between atoms: S1_2  and  C21_9 
REMARK    3  A    between atoms: N7_4  and  C23_5 
REMARK    4  A    between atoms: C17_14  and  N1_15 
REMARK    5  A    between atoms: N1_15  and  C1_16 
REMARK    6  A    between atoms: C4_18  and  N4_23 
REMARK    7  A    between atoms: N4_23  and  C6_24 
REMARK    8  A    between atoms: C9_27  and  N5_30 
ROOT
HETATM    1  C1    D T1201       2.060  13.126  -0.158  1.00 25.50     0.178 A 
HETATM    2  N3    D T1201       3.018  12.754   0.706  1.00 24.51    -0.041 NA
HETATM    3  C4    D T1201       2.694  12.384   1.947  1.00 26.00     0.751 A 
HETATM    4  N2    D T1201       1.423  12.372   2.367  1.00 27.09    -0.058 NA
HETATM    5  C3    D T1201       0.450  12.732   1.524  1.00 26.64     0.117 A 
HETATM    6  C2    D T1201       0.726  13.131   0.226  1.00 22.40     0.034 A 
HETATM    7  C5    D T1201      -0.400  13.527  -0.698  1.00 20.91     0.036 C 
ENDROOT
BRANCH   1   8
HETATM    8  N1    D T1201       2.453  13.487  -1.402  1.00 26.87    -0.227 NA
BRANCH   8   9
HETATM    9  C17   D T1201       2.897  14.666  -1.917  1.00 26.69     0.084 A 
HETATM   10  C18   D T1201       2.208  15.871  -1.749  1.00 27.53     0.019 A 
HETATM   11  C19   D T1201       2.715  17.064  -2.276  1.00 30.18     0.002 A 
HETATM   12  C20   D T1201       3.930  17.052  -2.964  1.00 27.75     0.013 A 
HETATM   13  C21   D T1201       4.608  15.841  -3.121  1.00 29.98     0.106 A 
HETATM   14  C22   D T1201       4.102  14.661  -2.602  1.00 25.75     0.032 A 
BRANCH  13  15
HETATM   15  S1    D T1201       6.180  15.736  -3.943  1.00 33.88     0.281 S 
HETATM   16  O2    D T1201       6.171  16.736  -4.963  1.00 32.26    -0.199 OA
HETATM   17  O1    D T1201       6.328  14.379  -4.388  1.00 41.11    -0.199 OA
BRANCH  15  18
HETATM   18  N7    D T1201       7.332  16.290  -2.737  1.00 34.20    -0.189 NA
BRANCH  18  19
HETATM   19  C23   D T1201       7.531  15.729  -1.416  1.00 42.34     0.097 C 
HETATM   20  C26   D T1201       8.957  16.033  -0.979  1.00 28.35     0.025 C 
HETATM   21  C25   D T1201       7.277  14.229  -1.414  1.00 32.55     0.025 C 
HETATM   22  C24   D T1201       6.560  16.423  -0.469  1.00 33.84     0.025 C 
ENDBRANCH  18  19
ENDBRANCH  15  18
ENDBRANCH  13  15
ENDBRANCH   8   9
ENDBRANCH   1   8
BRANCH   3  23
HETATM   23  N4    D T1201       3.672  12.007   2.821  1.00 27.54    -0.059 NA
BRANCH  23  24
HETATM   24  C6    D T1201       5.033  12.079   2.797  1.00 28.50     0.100 A 
HETATM   25  C11   D T1201       5.788  11.101   3.440  1.00 28.34     0.021 A 
HETATM   26  C10   D T1201       7.169  11.152   3.416  1.00 24.65     0.018 A 
HETATM   27  C9    D T1201       7.823  12.189   2.757  1.00 32.26     0.056 A 
HETATM   28  C8    D T1201       7.080  13.177   2.099  1.00 24.70     0.018 A 
HETATM   29  C7    D T1201       5.688  13.115   2.127  1.00 27.68     0.021 A 
BRANCH  27  30
HETATM   30  N5    D T1201       9.228  12.172   2.748  1.00 35.69    -0.344 N 
HETATM   31  C15   D T1201       9.977  12.168   4.027  1.00 37.46     0.137 C 
HETATM   32  C14   D T1201      10.982  11.040   4.184  1.00 37.22     0.274 C 
HETATM   33  N6    D T1201      11.902  11.079   3.044  1.00 55.55     0.143 N 
HETATM   34  C16   D T1201      12.924  10.037   3.229  1.00 64.64     0.286 C 
HETATM   35  C13   D T1201      11.137  10.824   1.808  1.00 53.32     0.274 C 
HETATM   36  C12   D T1201      10.092  11.916   1.567  1.00 47.69     0.137 C 
ENDBRANCH  27  30
ENDBRANCH  23  24
ENDBRANCH   3  23
TORSDOF 8
ENDMDL
MODEL 3
REMARK VINA RESULT:    -9.505      1.899      2.998
REMARK INTER + INTRA:         -14.539
REMARK INTER:                 -13.629
REMARK INTRA:                  -0.910
REMARK UNBOUND:                -0.589
REMARK  8 active torsions:
REMARK  status: ('A' for Active; 'I' for Inactive)
REMARK    1  A    between atoms: S1_2  and  N7_4 
REMARK    2  A    between atoms: S1_2  and  C21_9 
REMARK    3  A    between atoms: N7_4  and  C23_5 
REMARK    4  A    between atoms: C17_14  and  N1_15 
REMARK    5  A    between atoms: N1_15  and  C1_16 
REMARK    6  A    between atoms: C4_18  and  N4_23 
REMARK    7  A    between atoms: N4_23  and  C6_24 
REMARK    8  A    between atoms: C9_27  and  N5_30 
ROOT
HETATM    1  C1    D T1201       2.324  12.951  -0.229  1.00 25.50     0.178 A 
HETATM    2  N3    D T1201       3.042  12.427   0.778  1.00 24.51    -0.041 NA
HETATM    3  C4    D T1201       2.490  12.266   1.982  1.00 26.00     0.751 A 
HETATM    4  N2    D T1201       1.220  12.616   2.225  1.00 27.09    -0.058 NA
HETATM    5  C3    D T1201       0.482  13.133   1.237  1.00 26.64     0.117 A 
HETATM    6  C2    D T1201       1.003  13.330  -0.031  1.00 22.40     0.034 A 
HETATM    7  C5    D T1201       0.138  13.914  -1.122  1.00 20.91     0.036 C 
ENDROOT
BRANCH   1   8
HETATM    8  N1    D T1201       2.942  13.086  -1.426  1.00 26.87    -0.227 NA
BRANCH   8   9
HETATM    9  C17   D T1201       4.233  13.347  -1.767  1.00 26.69     0.084 A 
HETATM   10  C18   D T1201       5.267  12.427  -1.572  1.00 27.53     0.019 A 
HETATM   11  C19   D T1201       6.577  12.729  -1.960  1.00 30.18     0.002 A 
HETATM   12  C20   D T1201       6.850  13.958  -2.563  1.00 27.75     0.013 A 
HETATM   13  C21   D T1201       5.806  14.866  -2.755  1.00 29.98     0.106 A 
HETATM   14  C22   D T1201       4.511  14.566  -2.366  1.00 25.75     0.032 A 
BRANCH  13  15
HETATM   15  S1    D T1201       6.050  16.435  -3.554  1.00 33.88     0.281 S 
HETATM   16  O2    D T1201       6.084  17.416  -2.517  1.00 32.26    -0.199 OA
HETATM   17  O1    D T1201       5.002  16.575  -4.524  1.00 41.11    -0.199 OA
BRANCH  15  18
HETATM   18  N7    D T1201       7.688  16.344  -4.184  1.00 34.20    -0.189 NA
BRANCH  18  19
HETATM   19  C23   D T1201       8.068  16.105  -5.561  1.00 42.34     0.097 C 
HETATM   20  C26   D T1201       7.878  17.400  -6.340  1.00 28.35     0.025 C 
HETATM   21  C25   D T1201       7.239  14.984  -6.173  1.00 32.55     0.025 C 
HETATM   22  C24   D T1201       9.544  15.727  -5.574  1.00 33.84     0.025 C 
ENDBRANCH  18  19
ENDBRANCH  15  18
ENDBRANCH  13  15
ENDBRANCH   8   9
ENDBRANCH   1   8
BRANCH   3  23
HETATM   23  N4    D T1201       3.224  11.734   3.001  1.00 27.54    -0.059 NA
BRANCH  23  24
HETATM   24  C6    D T1201       4.560  11.560   3.206  1.00 28.50     0.100 A 
HETATM   25  C11   D T1201       5.009  10.474   3.954  1.00 28.34     0.021 A 
HETATM   26  C10   D T1201       6.361  10.275   4.161  1.00 24.65     0.018 A 
HETATM   27  C9    D T1201       7.291  11.167   3.634  1.00 32.26     0.056 A 
HETATM   28  C8    D T1201       6.858  12.260   2.874  1.00 24.70     0.018 A 
HETATM   29  C7    D T1201       5.494  12.450   2.668  1.00 27.68     0.021 A 
BRANCH  27  30
HETATM   30  N5    D T1201       8.653  10.897   3.859  1.00 35.69    -0.344 N 
HETATM   31  C15   D T1201       9.671  11.934   3.570  1.00 37.46     0.137 C 
HETATM   32  C14   D T1201      10.597  12.270   4.725  1.00 37.22     0.274 C 
HETATM   33  N6    D T1201      11.233  11.031   5.183  1.00 55.55     0.143 N 
HETATM   34  C16   D T1201      12.189  11.361   6.251  1.00 64.64     0.286 C 
HETATM   35  C13   D T1201      10.190  10.125   5.699  1.00 53.32     0.274 C 
HETATM   36  C12   D T1201       9.202   9.731   4.597  1.00 47.69     0.137 C 
ENDBRANCH  27  30
ENDBRANCH  23  24
ENDBRANCH   3  23
TORSDOF 8
ENDMDL
MODEL 4
REMARK VINA RESULT:    -9.344      1.890      2.924
REMARK INTER + INTRA:         -14.302
REMARK INTER:                 -13.342
REMARK INTRA:                  -0.961
REMARK UNBOUND:                -0.589
REMARK  8 active torsions:
REMARK  status: ('A' for Active; 'I' for Inactive)
REMARK    1  A    between atoms: S1_2  and  N7_4 
REMARK    2  A    between atoms: S1_2  and  C21_9 
REMARK    3  A    between atoms: N7_4  and  C23_5 
REMARK    4  A    between atoms: C17_14  and  N1_15 
REMARK    5  A    between atoms: N1_15  and  C1_16 
REMARK    6  A    between atoms: C4_18  and  N4_23 
REMARK    7  A    between atoms: N4_23  and  C6_24 
REMARK    8  A    between atoms: C9_27  and  N5_30 
ROOT
HETATM    1  C1    D T1201       2.301  13.027  -0.074  1.00 25.50     0.178 A 
HETATM    2  N3    D T1201       3.202  12.604   0.828  1.00 24.51    -0.041 NA
HETATM    3  C4    D T1201       2.813  12.290   2.066  1.00 26.00     0.751 A 
HETATM    4  N2    D T1201       1.532  12.383   2.445  1.00 27.09    -0.058 NA
HETATM    5  C3    D T1201       0.616  12.794   1.563  1.00 26.64     0.117 A 
HETATM    6  C2    D T1201       0.960  13.140   0.267  1.00 22.40     0.034 A 
HETATM    7  C5    D T1201      -0.103  13.598  -0.702  1.00 20.91     0.036 C 
ENDROOT
BRANCH   1   8
HETATM    8  N1    D T1201       2.759  13.328  -1.312  1.00 26.87    -0.227 NA
BRANCH   8   9
HETATM    9  C17   D T1201       3.330  14.448  -1.830  1.00 26.69     0.084 A 
HETATM   10  C18   D T1201       2.663  15.675  -1.899  1.00 27.53     0.019 A 
HETATM   11  C19   D T1201       3.299  16.808  -2.418  1.00 30.18     0.002 A 
HETATM   12  C20   D T1201       4.621  16.715  -2.858  1.00 27.75     0.013 A 
HETATM   13  C21   D T1201       5.277  15.483  -2.780  1.00 29.98     0.106 A 
HETATM   14  C22   D T1201       4.643  14.363  -2.270  1.00 25.75     0.032 A 
BRANCH  13  15
HETATM   15  S1    D T1201       6.971  15.280  -3.275  1.00 33.88     0.281 S 
HETATM   16  O2    D T1201       7.205  13.873  -3.349  1.00 32.26    -0.199 OA
HETATM   17  O1    D T1201       7.771  16.006  -2.329  1.00 41.11    -0.199 OA
BRANCH  15  18
HETATM   18  N7    D T1201       7.006  15.862  -4.933  1.00 34.20    -0.189 NA
BRANCH  18  19
HETATM   19  C23   D T1201       8.099  16.561  -5.577  1.00 42.34     0.097 C 
HETATM   20  C26   D T1201       9.377  15.766  -5.344  1.00 28.35     0.025 C 
HETATM   21  C25   D T1201       8.240  17.976  -5.034  1.00 32.55     0.025 C 
HETATM   22  C24   D T1201       7.803  16.604  -7.071  1.00 33.84     0.025 C 
ENDBRANCH  18  19
ENDBRANCH  15  18
ENDBRANCH  13  15
ENDBRANCH   8   9
ENDBRANCH   1   8
BRANCH   3  23
HETATM   23  N4    D T1201       3.732  11.861   2.979  1.00 27.54    -0.059 NA
BRANCH  23  24
HETATM   24  C6    D T1201       5.095  11.846   3.005  1.00 28.50     0.100 A 
HETATM   25  C11   D T1201       5.810  12.812   2.302  1.00 28.34     0.021 A 
HETATM   26  C10   D T1201       7.192  12.819   2.327  1.00 24.65     0.018 A 
HETATM   27  C9    D T1201       7.886  11.851   3.049  1.00 32.26     0.056 A 
HETATM   28  C8    D T1201       7.183  10.877   3.767  1.00 24.70     0.018 A 
HETATM   29  C7    D T1201       5.790  10.880   3.738  1.00 27.68     0.021 A 
BRANCH  27  30
HETATM   30  N5    D T1201       9.290  11.926   3.055  1.00 35.69    -0.344 N 
HETATM   31  C15   D T1201      10.026  11.916   4.341  1.00 37.46     0.137 C 
HETATM   32  C14   D T1201      11.102  10.850   4.462  1.00 37.22     0.274 C 
HETATM   33  N6    D T1201      12.027  10.998   3.334  1.00 55.55     0.143 N 
HETATM   34  C16   D T1201      13.114  10.019   3.487  1.00 64.64     0.286 C 
HETATM   35  C13   D T1201      11.292  10.747   2.081  1.00 53.32     0.274 C 
HETATM   36  C12   D T1201      10.179  11.779   1.874  1.00 47.69     0.137 C 
ENDBRANCH  27  30
ENDBRANCH  23  24
ENDBRANCH   3  23
TORSDOF 8
ENDMDL
MODEL 5
REMARK VINA RESULT:    -9.165      3.508      8.668
REMARK INTER + INTRA:         -14.040
REMARK INTER:                 -13.011
REMARK INTRA:                  -1.029
REMARK UNBOUND:                -0.589
REMARK  8 active torsions:
REMARK  status: ('A' for Active; 'I' for Inactive)
REMARK    1  A    between atoms: S1_2  and  N7_4 
REMARK    2  A    between atoms: S1_2  and  C21_9 
REMARK    3  A    between atoms: N7_4  and  C23_5 
REMARK    4  A    between atoms: C17_14  and  N1_15 
REMARK    5  A    between atoms: N1_15  and  C1_16 
REMARK    6  A    between atoms: C4_18  and  N4_23 
REMARK    7  A    between atoms: N4_23  and  C6_24 
REMARK    8  A    between atoms: C9_27  and  N5_30 
ROOT
HETATM    1  C1    D T1201       3.572  13.134   0.813  1.00 25.50     0.178 A 
HETATM    2  N3    D T1201       4.081  13.484  -0.380  1.00 24.51    -0.041 NA
HETATM    3  C4    D T1201       3.323  13.418  -1.477  1.00 26.00     0.751 A 
HETATM    4  N2    D T1201       2.050  13.006  -1.427  1.00 27.09    -0.058 NA
HETATM    5  C3    D T1201       1.518  12.660  -0.251  1.00 26.64     0.117 A 
HETATM    6  C2    D T1201       2.257  12.702   0.919  1.00 22.40     0.034 A 
HETATM    7  C5    D T1201       1.621  12.305   2.230  1.00 20.91     0.036 C 
ENDROOT
BRANCH   1   8
HETATM    8  N1    D T1201       4.391  13.226   1.887  1.00 26.87    -0.227 NA
BRANCH   8   9
HETATM    9  C17   D T1201       5.127  12.301   2.560  1.00 26.69     0.084 A 
HETATM   10  C18   D T1201       4.553  11.357   3.417  1.00 27.53     0.019 A 
HETATM   11  C19   D T1201       5.347  10.408   4.070  1.00 30.18     0.002 A 
HETATM   12  C20   D T1201       6.726  10.395   3.851  1.00 27.75     0.013 A 
HETATM   13  C21   D T1201       7.285  11.342   2.989  1.00 29.98     0.106 A 
HETATM   14  C22   D T1201       6.496  12.283   2.347  1.00 25.75     0.032 A 
BRANCH  13  15
HETATM   15  S1    D T1201       9.022  11.374   2.615  1.00 33.88     0.281 S 
HETATM   16  O2    D T1201       9.287  12.651   2.035  1.00 32.26    -0.199 OA
HETATM   17  O1    D T1201       9.290  10.233   1.786  1.00 41.11    -0.199 OA
BRANCH  15  18
HETATM   18  N7    D T1201       9.799  11.391   4.192  1.00 34.20    -0.189 NA
BRANCH  18  19
HETATM   19  C23   D T1201      10.634  10.348   4.750  1.00 42.34     0.097 C 
HETATM   20  C26   D T1201      11.863  10.195   3.866  1.00 28.35     0.025 C 
HETATM   21  C25   D T1201       9.875   9.031   4.848  1.00 32.55     0.025 C 
HETATM   22  C24   D T1201      11.070  10.800   6.139  1.00 33.84     0.025 C 
ENDBRANCH  18  19
ENDBRANCH  15  18
ENDBRANCH  13  15
ENDBRANCH   8   9
ENDBRANCH   1   8
BRANCH   3  23
HETATM   23  N4    D T1201       3.845  13.774  -2.686  1.00 27.54    -0.059 NA
BRANCH  23  24
HETATM   24  C6    D T1201       4.995  14.400  -3.066  1.00 28.50     0.100 A 
HETATM   25  C11   D T1201       6.126  13.645  -3.368  1.00 28.34     0.021 A 
HETATM   26  C10   D T1201       7.297  14.262  -3.766  1.00 24.65     0.018 A 
HETATM   27  C9    D T1201       7.362  15.650  -3.860  1.00 32.26     0.056 A 
HETATM   28  C8    D T1201       6.233  16.424  -3.568  1.00 24.70     0.018 A 
HETATM   29  C7    D T1201       5.057  15.792  -3.170  1.00 27.68     0.021 A 
BRANCH  27  30
HETATM   30  N5    D T1201       8.573  16.217  -4.294  1.00 35.69    -0.344 N 
HETATM   31  C15   D T1201       9.625  15.354  -4.882  1.00 37.46     0.137 C 
HETATM   32  C14   D T1201      10.116  15.779  -6.255  1.00 37.22     0.274 C 
HETATM   33  N6    D T1201      10.570  17.170  -6.174  1.00 55.55     0.143 N 
HETATM   34  C16   D T1201      11.118  17.563  -7.481  1.00 64.64     0.286 C 
HETATM   35  C13   D T1201       9.419  18.026  -5.829  1.00 53.32     0.274 C 
HETATM   36  C12   D T1201       8.853  17.666  -4.453  1.00 47.69     0.137 C 
ENDBRANCH  27  30
ENDBRANCH  23  24
ENDBRANCH   3  23
TORSDOF 8
ENDMDL
MODEL 6
REMARK VINA RESULT:    -9.114      3.956      9.898
REMARK INTER + INTRA:         -13.965
REMARK INTER:                 -13.078
REMARK INTRA:                  -0.887
REMARK UNBOUND:                -0.589
REMARK  8 active torsions:
REMARK  status: ('A' for Active; 'I' for Inactive)
REMARK    1  A    between atoms: S1_2  and  N7_4 
REMARK    2  A    between atoms: S1_2  and  C21_9 
REMARK    3  A    between atoms: N7_4  and  C23_5 
REMARK    4  A    between atoms: C17_14  and  N1_15 
REMARK    5  A    between atoms: N1_15  and  C1_16 
REMARK    6  A    between atoms: C4_18  and  N4_23 
REMARK    7  A    between atoms: N4_23  and  C6_24 
REMARK    8  A    between atoms: C9_27  and  N5_30 
ROOT
HETATM    1  C1    D T1201       4.234  13.245   0.507  1.00 25.50     0.178 A 
HETATM    2  N3    D T1201       5.193  13.432  -0.414  1.00 24.51    -0.041 NA
HETATM    3  C4    D T1201       4.880  13.462  -1.711  1.00 26.00     0.751 A 
HETATM    4  N2    D T1201       3.618  13.309  -2.133  1.00 27.09    -0.058 NA
HETATM    5  C3    D T1201       2.644  13.128  -1.235  1.00 26.64     0.117 A 
HETATM    6  C2    D T1201       2.910  13.081   0.124  1.00 22.40     0.034 A 
HETATM    7  C5    D T1201       1.783  12.879   1.108  1.00 20.91     0.036 C 
ENDROOT
BRANCH   1   8
HETATM    8  N1    D T1201       4.617  13.228   1.805  1.00 26.87    -0.227 NA
BRANCH   8   9
HETATM    9  C17   D T1201       5.114  12.242   2.601  1.00 26.69     0.084 A 
HETATM   10  C18   D T1201       4.297  11.356   3.308  1.00 27.53     0.019 A 
HETATM   11  C19   D T1201       4.853  10.342   4.095  1.00 30.18     0.002 A 
HETATM   12  C20   D T1201       6.241  10.205   4.163  1.00 27.75     0.013 A 
HETATM   13  C21   D T1201       7.045  11.096   3.448  1.00 29.98     0.106 A 
HETATM   14  C22   D T1201       6.492  12.102   2.673  1.00 25.75     0.032 A 
BRANCH  13  15
HETATM   15  S1    D T1201       8.818  10.972   3.439  1.00 33.88     0.281 S 
HETATM   16  O2    D T1201       9.317  12.307   3.524  1.00 32.26    -0.199 OA
HETATM   17  O1    D T1201       9.177  10.235   2.260  1.00 41.11    -0.199 OA
BRANCH  15  18
HETATM   18  N7    D T1201       9.202  10.215   4.978  1.00 34.20    -0.189 NA
BRANCH  18  19
HETATM   19  C23   D T1201      10.520  10.075   5.562  1.00 42.34     0.097 C 
HETATM   20  C26   D T1201      10.430   9.081   6.711  1.00 28.35     0.025 C 
HETATM   21  C25   D T1201      11.048  11.416   6.053  1.00 32.55     0.025 C 
HETATM   22  C24   D T1201      11.445   9.515   4.488  1.00 33.84     0.025 C 
ENDBRANCH  18  19
ENDBRANCH  15  18
ENDBRANCH  13  15
ENDBRANCH   8   9
ENDBRANCH   1   8
BRANCH   3  23
HETATM   23  N4    D T1201       5.858  13.652  -2.643  1.00 27.54    -0.059 NA
BRANCH  23  24
HETATM   24  C6    D T1201       6.046  14.567  -3.635  1.00 28.50     0.100 A 
HETATM   25  C11   D T1201       5.399  15.799  -3.571  1.00 28.34     0.021 A 
HETATM   26  C10   D T1201       5.587  16.744  -4.562  1.00 24.65     0.018 A 
HETATM   27  C9    D T1201       6.419  16.469  -5.645  1.00 32.26     0.056 A 
HETATM   28  C8    D T1201       7.082  15.239  -5.723  1.00 24.70     0.018 A 
HETATM   29  C7    D T1201       6.888  14.295  -4.717  1.00 27.68     0.021 A 
BRANCH  27  30
HETATM   30  N5    D T1201       6.588  17.480  -6.608  1.00 35.69    -0.344 N 
HETATM   31  C15   D T1201       5.919  18.790  -6.432  1.00 37.46     0.137 C 
HETATM   32  C14   D T1201       6.837  19.998  -6.490  1.00 37.22     0.274 C 
HETATM   33  N6    D T1201       7.576  19.957  -7.756  1.00 55.55     0.143 N 
HETATM   34  C16   D T1201       8.410  21.164  -7.852  1.00 64.64     0.286 C 
HETATM   35  C13   D T1201       8.425  18.751  -7.771  1.00 53.32     0.274 C 
HETATM   36  C12   D T1201       7.580  17.476  -7.714  1.00 47.69     0.137 C 
ENDBRANCH  27  30
ENDBRANCH  23  24
ENDBRANCH   3  23
TORSDOF 8
ENDMDL
MODEL 7
REMARK VINA RESULT:    -9.097      3.381      4.875
REMARK INTER + INTRA:         -13.940
REMARK INTER:                 -12.789
REMARK INTRA:                  -1.151
REMARK UNBOUND:                -0.589
REMARK  8 active torsions:
REMARK  status: ('A' for Active; 'I' for Inactive)
REMARK    1  A    between atoms: S1_2  and  N7_4 
REMARK    2  A    between atoms: S1_2  and  C21_9 
REMARK    3  A    between atoms: N7_4  and  C23_5 
REMARK    4  A    between atoms: C17_14  and  N1_15 
REMARK    5  A    between atoms: N1_15  and  C1_16 
REMARK    6  A    between atoms: C4_18  and  N4_23 
REMARK    7  A    between atoms: N4_23  and  C6_24 
REMARK    8  A    between atoms: C9_27  and  N5_30 
ROOT
HETATM    1  C1    D T1201       4.222  15.832  -1.812  1.00 25.50     0.178 A 
HETATM    2  N3    D T1201       4.773  14.704  -1.336  1.00 24.51    -0.041 NA
HETATM    3  C4    D T1201       4.001  13.756  -0.800  1.00 26.00     0.751 A 
HETATM    4  N2    D T1201       2.671  13.896  -0.719  1.00 27.09    -0.058 NA
HETATM    5  C3    D T1201       2.099  15.007  -1.192  1.00 26.64     0.117 A 
HETATM    6  C2    D T1201       2.849  16.027  -1.753  1.00 22.40     0.034 A 
HETATM    7  C5    D T1201       2.166  17.266  -2.280  1.00 20.91     0.036 C 
ENDROOT
BRANCH   1   8
HETATM    8  N1    D T1201       5.059  16.753  -2.346  1.00 26.87    -0.227 NA
BRANCH   8   9
HETATM    9  C17   D T1201       5.566  16.913  -3.598  1.00 26.69     0.084 A 
HETATM   10  C18   D T1201       4.882  17.593  -4.610  1.00 27.53     0.019 A 
HETATM   11  C19   D T1201       5.453  17.755  -5.877  1.00 30.18     0.002 A 
HETATM   12  C20   D T1201       6.728  17.243  -6.128  1.00 27.75     0.013 A 
HETATM   13  C21   D T1201       7.402  16.569  -5.106  1.00 29.98     0.106 A 
HETATM   14  C22   D T1201       6.831  16.407  -3.854  1.00 25.75     0.032 A 
BRANCH  13  15
HETATM   15  S1    D T1201       9.043  15.924  -5.320  1.00 33.88     0.281 S 
HETATM   16  O2    D T1201       9.084  14.681  -4.618  1.00 32.26    -0.199 OA
HETATM   17  O1    D T1201       9.952  16.938  -4.865  1.00 41.11    -0.199 OA
BRANCH  15  18
HETATM   18  N7    D T1201       9.124  15.515  -7.027  1.00 34.20    -0.189 NA
BRANCH  18  19
HETATM   19  C23   D T1201       9.995  16.116  -8.016  1.00 42.34     0.097 C 
HETATM   20  C26   D T1201       9.557  15.637  -9.393  1.00 28.35     0.025 C 
HETATM   21  C25   D T1201      11.451  15.752  -7.758  1.00 32.55     0.025 C 
HETATM   22  C24   D T1201       9.814  17.627  -7.932  1.00 33.84     0.025 C 
ENDBRANCH  18  19
ENDBRANCH  15  18
ENDBRANCH  13  15
ENDBRANCH   8   9
ENDBRANCH   1   8
BRANCH   3  23
HETATM   23  N4    D T1201       4.565  12.612  -0.317  1.00 27.54    -0.059 NA
BRANCH  23  24
HETATM   24  C6    D T1201       5.541  12.359   0.600  1.00 28.50     0.100 A 
HETATM   25  C11   D T1201       5.231  12.364   1.958  1.00 28.34     0.021 A 
HETATM   26  C10   D T1201       6.206  12.098   2.902  1.00 24.65     0.018 A 
HETATM   27  C9    D T1201       7.514  11.833   2.505  1.00 32.26     0.056 A 
HETATM   28  C8    D T1201       7.841  11.818   1.144  1.00 24.70     0.018 A 
HETATM   29  C7    D T1201       6.851  12.084   0.200  1.00 27.68     0.021 A 
BRANCH  27  30
HETATM   30  N5    D T1201       8.454  11.546   3.510  1.00 35.69    -0.344 N 
HETATM   31  C15   D T1201       8.186  10.465   4.487  1.00 37.46     0.137 C 
HETATM   32  C14   D T1201       9.271   9.408   4.595  1.00 37.22     0.274 C 
HETATM   33  N6    D T1201      10.540  10.078   4.895  1.00 55.55     0.143 N 
HETATM   34  C16   D T1201      11.580   9.053   5.077  1.00 64.64     0.286 C 
HETATM   35  C13   D T1201      10.890  10.961   3.767  1.00 53.32     0.274 C 
HETATM   36  C12   D T1201       9.844  12.064   3.580  1.00 47.69     0.137 C 
ENDBRANCH  27  30
ENDBRANCH  23  24
ENDBRANCH   3  23
TORSDOF 8
ENDMDL
MODEL 8
REMARK VINA RESULT:    -9.078      3.987      8.961
REMARK INTER + INTRA:         -13.913
REMARK INTER:                 -12.847
REMARK INTRA:                  -1.065
REMARK UNBOUND:                -0.589
REMARK  8 active torsions:
REMARK  status: ('A' for Active; 'I' for Inactive)
REMARK    1  A    between atoms: S1_2  and  N7_4 
REMARK    2  A    between atoms: S1_2  and  C21_9 
REMARK    3  A    between atoms: N7_4  and  C23_5 
REMARK    4  A    between atoms: C17_14  and  N1_15 
REMARK    5  A    between atoms: N1_15  and  C1_16 
REMARK    6  A    between atoms: C4_18  and  N4_23 
REMARK    7  A    between atoms: N4_23  and  C6_24 
REMARK    8  A    between atoms: C9_27  and  N5_30 
ROOT
HETATM    1  C1    D T1201       3.575  13.861  -1.007  1.00 25.50     0.178 A 
HETATM    2  N3    D T1201       4.336  14.852  -1.501  1.00 24.51    -0.041 NA
HETATM    3  C4    D T1201       3.766  15.960  -1.979  1.00 26.00     0.751 A 
HETATM    4  N2    D T1201       2.437  16.120  -1.983  1.00 27.09    -0.058 NA
HETATM    5  C3    D T1201       1.658  15.152  -1.490  1.00 26.64     0.117 A 
HETATM    6  C2    D T1201       2.192  13.978  -0.987  1.00 22.40     0.034 A 
HETATM    7  C5    D T1201       1.281  12.908  -0.435  1.00 20.91     0.036 C 
ENDROOT
BRANCH   1   8
HETATM    8  N1    D T1201       4.214  12.766  -0.535  1.00 26.87    -0.227 NA
BRANCH   8   9
HETATM    9  C17   D T1201       4.816  12.498   0.655  1.00 26.69     0.084 A 
HETATM   10  C18   D T1201       4.099  12.308   1.840  1.00 27.53     0.019 A 
HETATM   11  C19   D T1201       4.759  12.010   3.037  1.00 30.18     0.002 A 
HETATM   12  C20   D T1201       6.150  11.886   3.044  1.00 27.75     0.013 A 
HETATM   13  C21   D T1201       6.853  12.074   1.852  1.00 29.98     0.106 A 
HETATM   14  C22   D T1201       6.197  12.374   0.670  1.00 25.75     0.032 A 
BRANCH  13  15
HETATM   15  S1    D T1201       8.618  11.893   1.756  1.00 33.88     0.281 S 
HETATM   16  O2    D T1201       9.103  13.030   1.041  1.00 32.26    -0.199 OA
HETATM   17  O1    D T1201       8.873  10.612   1.159  1.00 41.11    -0.199 OA
BRANCH  15  18
HETATM   18  N7    D T1201       9.161  12.101   3.415  1.00 34.20    -0.189 NA
BRANCH  18  19
HETATM   19  C23   D T1201      10.220  11.363   4.073  1.00 42.34     0.097 C 
HETATM   20  C26   D T1201       9.628  10.078   4.635  1.00 28.35     0.025 C 
HETATM   21  C25   D T1201      10.859  12.190   5.180  1.00 32.55     0.025 C 
HETATM   22  C24   D T1201      11.262  11.012   3.018  1.00 33.84     0.025 C 
ENDBRANCH  18  19
ENDBRANCH  15  18
ENDBRANCH  13  15
ENDBRANCH   8   9
ENDBRANCH   1   8
BRANCH   3  23
HETATM   23  N4    D T1201       4.544  16.962  -2.481  1.00 27.54    -0.059 NA
BRANCH  23  24
HETATM   24  C6    D T1201       5.512  17.011  -3.439  1.00 28.50     0.100 A 
HETATM   25  C11   D T1201       5.155  17.166  -4.776  1.00 28.34     0.021 A 
HETATM   26  C10   D T1201       6.125  17.229  -5.759  1.00 24.65     0.018 A 
HETATM   27  C9    D T1201       7.473  17.128  -5.424  1.00 32.26     0.056 A 
HETATM   28  C8    D T1201       7.850  16.979  -4.084  1.00 24.70     0.018 A 
HETATM   29  C7    D T1201       6.865  16.919  -3.100  1.00 27.68     0.021 A 
BRANCH  27  30
HETATM   30  N5    D T1201       8.412  17.224  -6.466  1.00 35.69    -0.344 N 
HETATM   31  C15   D T1201       9.190  18.472  -6.648  1.00 37.46     0.137 C 
HETATM   32  C14   D T1201      10.698  18.294  -6.679  1.00 37.22     0.274 C 
HETATM   33  N6    D T1201      11.027  17.319  -7.723  1.00 55.55     0.143 N 
HETATM   34  C16   D T1201      12.491  17.200  -7.810  1.00 64.64     0.286 C 
HETATM   35  C13   D T1201      10.433  16.018  -7.361  1.00 53.32     0.274 C 
HETATM   36  C12   D T1201       8.905  16.102  -7.304  1.00 47.69     0.137 C 
ENDBRANCH  27  30
ENDBRANCH  23  24
ENDBRANCH   3  23
TORSDOF 8
ENDMDL
MODEL 9
REMARK VINA RESULT:    -8.983      3.727      9.451
REMARK INTER + INTRA:         -13.773
REMARK INTER:                 -12.571
REMARK INTRA:                  -1.202
REMARK UNBOUND:                -0.589
REMARK  8 active torsions:
REMARK  status: ('A' for Active; 'I' for Inactive)
REMARK    1  A    between atoms: S1_2  and  N7_4 
REMARK    2  A    between atoms: S1_2  and  C21_9 
REMARK    3  A    between atoms: N7_4  and  C23_5 
REMARK    4  A    between atoms: C17_14  and  N1_15 
REMARK    5  A    between atoms: N1_15  and  C1_16 
REMARK    6  A    between atoms: C4_18  and  N4_23 
REMARK    7  A    between atoms: N4_23  and  C6_24 
REMARK    8  A    between atoms: C9_27  and  N5_30 
ROOT
HETATM    1  C1    D T1201       4.899  12.066   2.552  1.00 25.50     0.178 A 
HETATM    2  N3    D T1201       4.526  12.846   1.525  1.00 24.51    -0.041 NA
HETATM    3  C4    D T1201       3.313  12.710   0.986  1.00 26.00     0.751 A 
HETATM    4  N2    D T1201       2.438  11.804   1.443  1.00 27.09    -0.058 NA
HETATM    5  C3    D T1201       2.783  11.020   2.469  1.00 26.64     0.117 A 
HETATM    6  C2    D T1201       4.030  11.111   3.065  1.00 22.40     0.034 A 
HETATM    7  C5    D T1201       4.382  10.211   4.224  1.00 20.91     0.036 C 
ENDROOT
BRANCH   1   8
HETATM    8  N1    D T1201       6.141  12.256   3.055  1.00 26.87    -0.227 NA
BRANCH   8   9
HETATM    9  C17   D T1201       7.342  11.685   2.769  1.00 26.69     0.084 A 
HETATM   10  C18   D T1201       7.779  11.458   1.461  1.00 27.53     0.019 A 
HETATM   11  C19   D T1201       9.034  10.890   1.214  1.00 30.18     0.002 A 
HETATM   12  C20   D T1201       9.865  10.562   2.287  1.00 27.75     0.013 A 
HETATM   13  C21   D T1201       9.417  10.798   3.589  1.00 29.98     0.106 A 
HETATM   14  C22   D T1201       8.172  11.356   3.830  1.00 25.75     0.032 A 
BRANCH  13  15
HETATM   15  S1    D T1201      10.422  10.453   5.013  1.00 33.88     0.281 S 
HETATM   16  O2    D T1201       9.556   9.869   5.987  1.00 32.26    -0.199 OA
HETATM   17  O1    D T1201      11.053  11.687   5.385  1.00 41.11    -0.199 OA
BRANCH  15  18
HETATM   18  N7    D T1201      11.488   9.161   4.482  1.00 34.20    -0.189 NA
BRANCH  18  19
HETATM   19  C23   D T1201      12.871   8.972   4.870  1.00 42.34     0.097 C 
HETATM   20  C26   D T1201      13.282   7.555   4.498  1.00 28.35     0.025 C 
HETATM   21  C25   D T1201      13.059   9.212   6.362  1.00 32.55     0.025 C 
HETATM   22  C24   D T1201      13.713   9.962   4.074  1.00 33.84     0.025 C 
ENDBRANCH  18  19
ENDBRANCH  15  18
ENDBRANCH  13  15
ENDBRANCH   8   9
ENDBRANCH   1   8
BRANCH   3  23
HETATM   23  N4    D T1201       2.939  13.505  -0.058  1.00 27.54    -0.059 NA
BRANCH  23  24
HETATM   24  C6    D T1201       3.587  13.974  -1.161  1.00 28.50     0.100 A 
HETATM   25  C11   D T1201       3.439  15.307  -1.535  1.00 28.34     0.021 A 
HETATM   26  C10   D T1201       4.099  15.803  -2.644  1.00 24.65     0.018 A 
HETATM   27  C9    D T1201       4.911  14.970  -3.409  1.00 32.26     0.056 A 
HETATM   28  C8    D T1201       5.076  13.629  -3.044  1.00 24.70     0.018 A 
HETATM   29  C7    D T1201       4.410  13.139  -1.923  1.00 27.68     0.021 A 
BRANCH  27  30
HETATM   30  N5    D T1201       5.573  15.539  -4.511  1.00 35.69    -0.344 N 
HETATM   31  C15   D T1201       5.330  16.956  -4.870  1.00 37.46     0.137 C 
HETATM   32  C14   D T1201       6.575  17.819  -4.974  1.00 37.22     0.274 C 
HETATM   33  N6    D T1201       7.494  17.191  -5.929  1.00 55.55     0.143 N 
HETATM   34  C16   D T1201       8.668  18.062  -6.093  1.00 64.64     0.286 C 
HETATM   35  C13   D T1201       7.906  15.878  -5.398  1.00 53.32     0.274 C 
HETATM   36  C12   D T1201       6.707  14.936  -5.256  1.00 47.69     0.137 C 
ENDBRANCH  27  30
ENDBRANCH  23  24
ENDBRANCH   3  23
TORSDOF 8
ENDMDL
