MODEL 1
REMARK VINA RESULT:      -6.6      0.000      0.000
REMARK  8 active torsions:
REMARK  status: ('A' for Active; 'I' for Inactive)
REMARK    1  A    between atoms: S1_2  and  N7_4 
REMARK    2  A    between atoms: S1_2  and  C21_9 
REMARK    3  A    between atoms: N7_4  and  C23_5 
REMARK    4  A    between atoms: C17_14  and  N1_15 
REMARK    5  A    between atoms: N1_15  and  C1_16 
REMARK    6  A    between atoms: C4_18  and  N4_23 
REMARK    7  A    between atoms: N4_23  and  C6_24 
REMARK    8  A    between atoms: C9_27  and  N5_30 
ROOT
HETATM    1  C1    D T1201      50.651  10.467  12.813  1.00 25.50     0.178 A 
HETATM    2  N3    D T1201      51.851  10.575  12.221  1.00 24.51    -0.041 NA
HETATM    3  C4    D T1201      52.254  11.751  11.733  1.00 26.00     0.751 A 
HETATM    4  N2    D T1201      51.487  12.846  11.816  1.00 27.09    -0.058 NA
HETATM    5  C3    D T1201      50.291  12.765  12.406  1.00 26.64     0.117 A 
HETATM    6  C2    D T1201      49.817  11.572  12.925  1.00 22.40     0.034 A 
HETATM    7  C5    D T1201      48.462  11.521  13.589  1.00 20.91     0.036 C 
ENDROOT
BRANCH   1   8
HETATM    8  N1    D T1201      50.301   9.249  13.288  1.00 26.87    -0.227 NA
BRANCH   8   9
HETATM    9  C17   D T1201      49.691   8.180  12.708  1.00 26.69     0.084 A 
HETATM   10  C18   D T1201      48.394   7.778  13.041  1.00 27.53     0.019 A 
HETATM   11  C19   D T1201      47.796   6.686  12.401  1.00 30.18     0.002 A 
HETATM   12  C20   D T1201      48.499   6.001  11.408  1.00 27.75     0.013 A 
HETATM   13  C21   D T1201      49.794   6.417  11.084  1.00 29.98     0.106 A 
HETATM   14  C22   D T1201      50.383   7.495  11.722  1.00 25.75     0.032 A 
BRANCH  13  15
HETATM   15  S1    D T1201      50.746   5.634   9.804  1.00 33.88     0.281 S 
HETATM   16  O2    D T1201      50.228   4.310   9.666  1.00 32.26    -0.199 OA
HETATM   17  O1    D T1201      52.125   5.739  10.188  1.00 41.11    -0.199 OA
BRANCH  15  18
HETATM   18  N7    D T1201      50.278   6.488   8.341  1.00 34.20    -0.189 NA
BRANCH  18  19
HETATM   19  C23   D T1201      51.162   7.186   7.432  1.00 42.34     0.097 C 
HETATM   20  C26   D T1201      52.242   6.215   6.974  1.00 28.35     0.025 C 
HETATM   21  C25   D T1201      51.784   8.404   8.100  1.00 32.55     0.025 C 
HETATM   22  C24   D T1201      50.337   7.620   6.226  1.00 33.84     0.025 C 
ENDBRANCH  18  19
ENDBRANCH  15  18
ENDBRANCH  13  15
ENDBRANCH   8   9
ENDBRANCH   1   8
BRANCH   3  23
HETATM   23  N4    D T1201      53.475  11.855  11.133  1.00 27.54    -0.059 NA
BRANCH  23  24
HETATM   24  C6    D T1201      54.099  11.154  10.144  1.00 28.50     0.100 A 
HETATM   25  C11   D T1201      54.304  11.746   8.901  1.00 28.34     0.021 A 
HETATM   26  C10   D T1201      54.946  11.055   7.890  1.00 24.65     0.018 A 
HETATM   27  C9    D T1201      55.386   9.750   8.102  1.00 32.26     0.056 A 
HETATM   28  C8    D T1201      55.195   9.143   9.348  1.00 24.70     0.018 A 
HETATM   29  C7    D T1201      54.549   9.849  10.361  1.00 27.68     0.021 A 
BRANCH  27  30
HETATM   30  N5    D T1201      56.053   9.109   7.044  1.00 35.69    -0.344 N 
HETATM   31  C15   D T1201      57.253   9.734   6.438  1.00 37.46     0.137 C 
HETATM   32  C14   D T1201      58.489   8.853   6.399  1.00 37.22     0.274 C 
HETATM   33  N6    D T1201      58.147   7.606   5.709  1.00 55.55     0.143 N 
HETATM   34  C16   D T1201      59.361   6.781   5.599  1.00 64.64     0.286 C 
HETATM   35  C13   D T1201      57.120   6.895   6.494  1.00 53.32     0.274 C 
HETATM   36  C12   D T1201      55.829   7.714   6.589  1.00 47.69     0.137 C 
ENDBRANCH  27  30
ENDBRANCH  23  24
ENDBRANCH   3  23
TORSDOF 8
ENDMDL
MODEL 2
REMARK VINA RESULT:      -6.5      4.225      7.325
REMARK  8 active torsions:
REMARK  status: ('A' for Active; 'I' for Inactive)
REMARK    1  A    between atoms: S1_2  and  N7_4 
REMARK    2  A    between atoms: S1_2  and  C21_9 
REMARK    3  A    between atoms: N7_4  and  C23_5 
REMARK    4  A    between atoms: C17_14  and  N1_15 
REMARK    5  A    between atoms: N1_15  and  C1_16 
REMARK    6  A    between atoms: C4_18  and  N4_23 
REMARK    7  A    between atoms: N4_23  and  C6_24 
REMARK    8  A    between atoms: C9_27  and  N5_30 
ROOT
HETATM    1  C1    D T1201      59.281  13.128  10.690  1.00 25.50     0.178 A 
HETATM    2  N3    D T1201      59.537  12.172   9.782  1.00 24.51    -0.041 NA
HETATM    3  C4    D T1201      60.637  12.242   9.028  1.00 26.00     0.751 A 
HETATM    4  N2    D T1201      61.510  13.251   9.150  1.00 27.09    -0.058 NA
HETATM    5  C3    D T1201      61.280  14.211  10.051  1.00 26.64     0.117 A 
HETATM    6  C2    D T1201      60.153  14.196  10.856  1.00 22.40     0.034 A 
HETATM    7  C5    D T1201      59.931  15.295  11.866  1.00 20.91     0.036 C 
ENDROOT
BRANCH   1   8
HETATM    8  N1    D T1201      58.151  12.999  11.423  1.00 26.87    -0.227 NA
BRANCH   8   9
HETATM    9  C17   D T1201      56.835  13.154  11.113  1.00 26.69     0.084 A 
HETATM   10  C18   D T1201      56.174  14.381  11.213  1.00 27.53     0.019 A 
HETATM   11  C19   D T1201      54.825  14.499  10.861  1.00 30.18     0.002 A 
HETATM   12  C20   D T1201      54.137  13.379  10.388  1.00 27.75     0.013 A 
HETATM   13  C21   D T1201      54.811  12.160  10.290  1.00 29.98     0.106 A 
HETATM   14  C22   D T1201      56.146  12.046  10.644  1.00 25.75     0.032 A 
BRANCH  13  15
HETATM   15  S1    D T1201      54.030  10.694   9.658  1.00 33.88     0.281 S 
HETATM   16  O2    D T1201      54.086  10.787   8.234  1.00 32.26    -0.199 OA
HETATM   17  O1    D T1201      52.719  10.638  10.239  1.00 41.11    -0.199 OA
BRANCH  15  18
HETATM   18  N7    D T1201      55.133   9.399  10.098  1.00 34.20    -0.189 NA
BRANCH  18  19
HETATM   19  C23   D T1201      55.184   8.076   9.512  1.00 42.34     0.097 C 
HETATM   20  C26   D T1201      53.763   7.649   9.170  1.00 28.35     0.025 C 
HETATM   21  C25   D T1201      55.829   7.079  10.465  1.00 32.55     0.025 C 
HETATM   22  C24   D T1201      56.000   8.170   8.228  1.00 33.84     0.025 C 
ENDBRANCH  18  19
ENDBRANCH  15  18
ENDBRANCH  13  15
ENDBRANCH   8   9
ENDBRANCH   1   8
BRANCH   3  23
HETATM   23  N4    D T1201      60.893  11.269   8.107  1.00 27.54    -0.059 NA
BRANCH  23  24
HETATM   24  C6    D T1201      60.103  10.526   7.280  1.00 28.50     0.100 A 
HETATM   25  C11   D T1201      60.223   9.139   7.272  1.00 28.34     0.021 A 
HETATM   26  C10   D T1201      59.422   8.369   6.449  1.00 24.65     0.018 A 
HETATM   27  C9    D T1201      58.491   8.975   5.608  1.00 32.26     0.056 A 
HETATM   28  C8    D T1201      58.352  10.368   5.609  1.00 24.70     0.018 A 
HETATM   29  C7    D T1201      59.163  11.135   6.444  1.00 27.68     0.021 A 
BRANCH  27  30
HETATM   30  N5    D T1201      57.690   8.138   4.813  1.00 35.69    -0.344 N 
HETATM   31  C15   D T1201      56.262   8.471   4.592  1.00 37.46     0.137 C 
HETATM   32  C14   D T1201      55.835   8.552   3.137  1.00 37.22     0.274 C 
HETATM   33  N6    D T1201      56.183   7.287   2.483  1.00 55.55     0.143 N 
HETATM   34  C16   D T1201      55.701   7.330   1.092  1.00 64.64     0.286 C 
HETATM   35  C13   D T1201      57.648   7.126   2.507  1.00 53.32     0.274 C 
HETATM   36  C12   D T1201      58.173   7.036   3.943  1.00 47.69     0.137 C 
ENDBRANCH  27  30
ENDBRANCH  23  24
ENDBRANCH   3  23
TORSDOF 8
ENDMDL
MODEL 3
REMARK VINA RESULT:      -6.5      4.928      8.146
REMARK  8 active torsions:
REMARK  status: ('A' for Active; 'I' for Inactive)
REMARK    1  A    between atoms: S1_2  and  N7_4 
REMARK    2  A    between atoms: S1_2  and  C21_9 
REMARK    3  A    between atoms: N7_4  and  C23_5 
REMARK    4  A    between atoms: C17_14  and  N1_15 
REMARK    5  A    between atoms: N1_15  and  C1_16 
REMARK    6  A    between atoms: C4_18  and  N4_23 
REMARK    7  A    between atoms: N4_23  and  C6_24 
REMARK    8  A    between atoms: C9_27  and  N5_30 
ROOT
HETATM    1  C1    D T1201      61.333  11.356  11.402  1.00 25.50     0.178 A 
HETATM    2  N3    D T1201      61.219  11.031  10.103  1.00 24.51    -0.041 NA
HETATM    3  C4    D T1201      61.200  11.987   9.173  1.00 26.00     0.751 A 
HETATM    4  N2    D T1201      61.294  13.284   9.495  1.00 27.09    -0.058 NA
HETATM    5  C3    D T1201      61.414  13.632  10.780  1.00 26.64     0.117 A 
HETATM    6  C2    D T1201      61.432  12.685  11.790  1.00 22.40     0.034 A 
HETATM    7  C5    D T1201      61.574  13.117  13.230  1.00 20.91     0.036 C 
ENDROOT
BRANCH   1   8
HETATM    8  N1    D T1201      61.347  10.340  12.296  1.00 26.87    -0.227 NA
BRANCH   8   9
HETATM    9  C17   D T1201      60.694   9.147  12.337  1.00 26.69     0.084 A 
HETATM   10  C18   D T1201      61.358   7.926  12.486  1.00 27.53     0.019 A 
HETATM   11  C19   D T1201      60.643   6.724  12.548  1.00 30.18     0.002 A 
HETATM   12  C20   D T1201      59.248   6.749  12.475  1.00 27.75     0.013 A 
HETATM   13  C21   D T1201      58.598   7.977  12.329  1.00 29.98     0.106 A 
HETATM   14  C22   D T1201      59.309   9.164  12.265  1.00 25.75     0.032 A 
BRANCH  13  15
HETATM   15  S1    D T1201      56.827   8.109  12.273  1.00 33.88     0.281 S 
HETATM   16  O2    D T1201      56.419   8.633  13.537  1.00 32.26    -0.199 OA
HETATM   17  O1    D T1201      56.323   6.808  11.935  1.00 41.11    -0.199 OA
BRANCH  15  18
HETATM   18  N7    D T1201      56.531   9.387  11.104  1.00 34.20    -0.189 NA
BRANCH  18  19
HETATM   19  C23   D T1201      56.122   9.215   9.726  1.00 42.34     0.097 C 
HETATM   20  C26   D T1201      56.184  10.570   9.035  1.00 28.35     0.025 C 
HETATM   21  C25   D T1201      54.717   8.633   9.640  1.00 32.55     0.025 C 
HETATM   22  C24   D T1201      57.117   8.269   9.064  1.00 33.84     0.025 C 
ENDBRANCH  18  19
ENDBRANCH  15  18
ENDBRANCH  13  15
ENDBRANCH   8   9
ENDBRANCH   1   8
BRANCH   3  23
HETATM   23  N4    D T1201      61.085  11.652   7.855  1.00 27.54    -0.059 NA
BRANCH  23  24
HETATM   24  C6    D T1201      60.280  10.789   7.171  1.00 28.50     0.100 A 
HETATM   25  C11   D T1201      59.178  11.276   6.476  1.00 28.34     0.021 A 
HETATM   26  C10   D T1201      58.358  10.417   5.767  1.00 24.65     0.018 A 
HETATM   27  C9    D T1201      58.620   9.049   5.752  1.00 32.26     0.056 A 
HETATM   28  C8    D T1201      59.729   8.543   6.440  1.00 24.70     0.018 A 
HETATM   29  C7    D T1201      60.551   9.417   7.149  1.00 27.68     0.021 A 
BRANCH  27  30
HETATM   30  N5    D T1201      57.765   8.230   4.995  1.00 35.69    -0.344 N 
HETATM   31  C15   D T1201      56.364   8.649   4.752  1.00 37.46     0.137 C 
HETATM   32  C14   D T1201      55.946   8.688   3.292  1.00 37.22     0.274 C 
HETATM   33  N6    D T1201      56.206   7.372   2.702  1.00 55.55     0.143 N 
HETATM   34  C16   D T1201      55.731   7.380   1.308  1.00 64.64     0.286 C 
HETATM   35  C13   D T1201      57.657   7.112   2.742  1.00 53.32     0.274 C 
HETATM   36  C12   D T1201      58.172   7.056   4.183  1.00 47.69     0.137 C 
ENDBRANCH  27  30
ENDBRANCH  23  24
ENDBRANCH   3  23
TORSDOF 8
ENDMDL
MODEL 4
REMARK VINA RESULT:      -6.4      1.389      2.129
REMARK  8 active torsions:
REMARK  status: ('A' for Active; 'I' for Inactive)
REMARK    1  A    between atoms: S1_2  and  N7_4 
REMARK    2  A    between atoms: S1_2  and  C21_9 
REMARK    3  A    between atoms: N7_4  and  C23_5 
REMARK    4  A    between atoms: C17_14  and  N1_15 
REMARK    5  A    between atoms: N1_15  and  C1_16 
REMARK    6  A    between atoms: C4_18  and  N4_23 
REMARK    7  A    between atoms: N4_23  and  C6_24 
REMARK    8  A    between atoms: C9_27  and  N5_30 
ROOT
HETATM    1  C1    D T1201      51.068  10.505  12.770  1.00 25.50     0.178 A 
HETATM    2  N3    D T1201      52.329  10.520  12.307  1.00 24.51    -0.041 NA
HETATM    3  C4    D T1201      52.831  11.633  11.769  1.00 26.00     0.751 A 
HETATM    4  N2    D T1201      52.108  12.757  11.675  1.00 27.09    -0.058 NA
HETATM    5  C3    D T1201      50.854  12.769  12.135  1.00 26.64     0.117 A 
HETATM    6  C2    D T1201      50.275  11.642  12.697  1.00 22.40     0.034 A 
HETATM    7  C5    D T1201      48.857  11.696  13.209  1.00 20.91     0.036 C 
ENDROOT
BRANCH   1   8
HETATM    8  N1    D T1201      50.618   9.345  13.304  1.00 26.87    -0.227 NA
BRANCH   8   9
HETATM    9  C17   D T1201      49.924   8.301  12.775  1.00 26.69     0.084 A 
HETATM   10  C18   D T1201      48.614   7.995  13.153  1.00 27.53     0.019 A 
HETATM   11  C19   D T1201      47.930   6.926  12.564  1.00 30.18     0.002 A 
HETATM   12  C20   D T1201      48.560   6.166  11.576  1.00 27.75     0.013 A 
HETATM   13  C21   D T1201      49.869   6.486  11.206  1.00 29.98     0.106 A 
HETATM   14  C22   D T1201      50.544   7.543  11.794  1.00 25.75     0.032 A 
BRANCH  13  15
HETATM   15  S1    D T1201      50.733   5.604   9.928  1.00 33.88     0.281 S 
HETATM   16  O2    D T1201      50.177   6.040   8.688  1.00 32.26    -0.199 OA
HETATM   17  O1    D T1201      50.602   4.206  10.225  1.00 41.11    -0.199 OA
BRANCH  15  18
HETATM   18  N7    D T1201      52.362   6.261   9.983  1.00 34.20    -0.189 NA
BRANCH  18  19
HETATM   19  C23   D T1201      53.381   6.119   8.964  1.00 42.34     0.097 C 
HETATM   20  C26   D T1201      53.294   7.317   8.028  1.00 28.35     0.025 C 
HETATM   21  C25   D T1201      53.206   4.820   8.191  1.00 32.55     0.025 C 
HETATM   22  C24   D T1201      54.736   6.129   9.663  1.00 33.84     0.025 C 
ENDBRANCH  18  19
ENDBRANCH  15  18
ENDBRANCH  13  15
ENDBRANCH   8   9
ENDBRANCH   1   8
BRANCH   3  23
HETATM   23  N4    D T1201      54.113  11.643  11.300  1.00 27.54    -0.059 NA
BRANCH  23  24
HETATM   24  C6    D T1201      54.701  11.177  10.162  1.00 28.50     0.100 A 
HETATM   25  C11   D T1201      55.526  10.057  10.220  1.00 28.34     0.021 A 
HETATM   26  C10   D T1201      56.121   9.563   9.074  1.00 24.65     0.018 A 
HETATM   27  C9    D T1201      55.911  10.189   7.847  1.00 32.26     0.056 A 
HETATM   28  C8    D T1201      55.078  11.311   7.770  1.00 24.70     0.018 A 
HETATM   29  C7    D T1201      54.481  11.800   8.930  1.00 27.68     0.021 A 
BRANCH  27  30
HETATM   30  N5    D T1201      56.524   9.625   6.715  1.00 35.69    -0.344 N 
HETATM   31  C15   D T1201      56.571   8.152   6.555  1.00 37.46     0.137 C 
HETATM   32  C14   D T1201      56.006   7.627   5.247  1.00 37.22     0.274 C 
HETATM   33  N6    D T1201      56.702   8.293   4.142  1.00 55.55     0.143 N 
HETATM   34  C16   D T1201      56.214   7.732   2.872  1.00 64.64     0.286 C 
HETATM   35  C13   D T1201      56.413   9.738   4.202  1.00 53.32     0.274 C 
HETATM   36  C12   D T1201      56.949  10.358   5.496  1.00 47.69     0.137 C 
ENDBRANCH  27  30
ENDBRANCH  23  24
ENDBRANCH   3  23
TORSDOF 8
ENDMDL
MODEL 5
REMARK VINA RESULT:      -6.3      8.924     12.358
REMARK  8 active torsions:
REMARK  status: ('A' for Active; 'I' for Inactive)
REMARK    1  A    between atoms: S1_2  and  N7_4 
REMARK    2  A    between atoms: S1_2  and  C21_9 
REMARK    3  A    between atoms: N7_4  and  C23_5 
REMARK    4  A    between atoms: C17_14  and  N1_15 
REMARK    5  A    between atoms: N1_15  and  C1_16 
REMARK    6  A    between atoms: C4_18  and  N4_23 
REMARK    7  A    between atoms: N4_23  and  C6_24 
REMARK    8  A    between atoms: C9_27  and  N5_30 
ROOT
HETATM    1  C1    D T1201      61.356  14.044  10.305  1.00 25.50     0.178 A 
HETATM    2  N3    D T1201      61.517  13.316   9.188  1.00 24.51    -0.041 NA
HETATM    3  C4    D T1201      60.951  12.111   9.087  1.00 26.00     0.751 A 
HETATM    4  N2    D T1201      60.215  11.595  10.079  1.00 27.09    -0.058 NA
HETATM    5  C3    D T1201      60.036  12.302  11.199  1.00 26.64     0.117 A 
HETATM    6  C2    D T1201      60.603  13.555  11.364  1.00 22.40     0.034 A 
HETATM    7  C5    D T1201      60.374  14.327  12.641  1.00 20.91     0.036 C 
ENDROOT
BRANCH   1   8
HETATM    8  N1    D T1201      61.954  15.258  10.345  1.00 26.87    -0.227 NA
BRANCH   8   9
HETATM    9  C17   D T1201      63.260  15.638  10.304  1.00 26.69     0.084 A 
HETATM   10  C18   D T1201      63.657  16.958  10.074  1.00 27.53     0.019 A 
HETATM   11  C19   D T1201      65.012  17.307  10.065  1.00 30.18     0.002 A 
HETATM   12  C20   D T1201      65.977  16.327  10.305  1.00 27.75     0.013 A 
HETATM   13  C21   D T1201      65.566  15.012  10.536  1.00 29.98     0.106 A 
HETATM   14  C22   D T1201      64.224  14.669  10.541  1.00 25.75     0.032 A 
BRANCH  13  15
HETATM   15  S1    D T1201      66.719  13.708  10.894  1.00 33.88     0.281 S 
HETATM   16  O2    D T1201      67.499  14.151  12.005  1.00 32.26    -0.199 OA
HETATM   17  O1    D T1201      67.438  13.444   9.680  1.00 41.11    -0.199 OA
BRANCH  15  18
HETATM   18  N7    D T1201      65.713  12.403  11.503  1.00 34.20    -0.189 NA
BRANCH  18  19
HETATM   19  C23   D T1201      65.635  11.058  10.973  1.00 42.34     0.097 C 
HETATM   20  C26   D T1201      64.912  10.184  11.989  1.00 28.35     0.025 C 
HETATM   21  C25   D T1201      67.022  10.503  10.680  1.00 32.55     0.025 C 
HETATM   22  C24   D T1201      64.817  11.113   9.689  1.00 33.84     0.025 C 
ENDBRANCH  18  19
ENDBRANCH  15  18
ENDBRANCH  13  15
ENDBRANCH   8   9
ENDBRANCH   1   8
BRANCH   3  23
HETATM   23  N4    D T1201      61.117  11.376   7.949  1.00 27.54    -0.059 NA
BRANCH  23  24
HETATM   24  C6    D T1201      60.298  10.553   7.234  1.00 28.50     0.100 A 
HETATM   25  C11   D T1201      59.242  11.092   6.506  1.00 28.34     0.021 A 
HETATM   26  C10   D T1201      58.409  10.273   5.765  1.00 24.65     0.018 A 
HETATM   27  C9    D T1201      58.611   8.896   5.750  1.00 32.26     0.056 A 
HETATM   28  C8    D T1201      59.674   8.338   6.470  1.00 24.70     0.018 A 
HETATM   29  C7    D T1201      60.509   9.171   7.211  1.00 27.68     0.021 A 
BRANCH  27  30
HETATM   30  N5    D T1201      57.746   8.120   4.959  1.00 35.69    -0.344 N 
HETATM   31  C15   D T1201      56.361   8.583   4.704  1.00 37.46     0.137 C 
HETATM   32  C14   D T1201      55.968   8.669   3.240  1.00 37.22     0.274 C 
HETATM   33  N6    D T1201      56.202   7.361   2.621  1.00 55.55     0.143 N 
HETATM   34  C16   D T1201      55.750   7.416   1.221  1.00 64.64     0.286 C 
HETATM   35  C13   D T1201      57.644   7.060   2.677  1.00 53.32     0.274 C 
HETATM   36  C12   D T1201      58.134   6.955   4.124  1.00 47.69     0.137 C 
ENDBRANCH  27  30
ENDBRANCH  23  24
ENDBRANCH   3  23
TORSDOF 8
ENDMDL
MODEL 6
REMARK VINA RESULT:      -6.3      4.612      8.099
REMARK  8 active torsions:
REMARK  status: ('A' for Active; 'I' for Inactive)
REMARK    1  A    between atoms: S1_2  and  N7_4 
REMARK    2  A    between atoms: S1_2  and  C21_9 
REMARK    3  A    between atoms: N7_4  and  C23_5 
REMARK    4  A    between atoms: C17_14  and  N1_15 
REMARK    5  A    between atoms: N1_15  and  C1_16 
REMARK    6  A    between atoms: C4_18  and  N4_23 
REMARK    7  A    between atoms: N4_23  and  C6_24 
REMARK    8  A    between atoms: C9_27  and  N5_30 
ROOT
HETATM    1  C1    D T1201      51.769   8.302   8.500  1.00 25.50     0.178 A 
HETATM    2  N3    D T1201      51.337   8.127   7.240  1.00 24.51    -0.041 NA
HETATM    3  C4    D T1201      50.609   7.054   6.924  1.00 26.00     0.751 A 
HETATM    4  N2    D T1201      50.287   6.129   7.838  1.00 27.09    -0.058 NA
HETATM    5  C3    D T1201      50.699   6.284   9.100  1.00 26.64     0.117 A 
HETATM    6  C2    D T1201      51.463   7.373   9.485  1.00 22.40     0.034 A 
HETATM    7  C5    D T1201      51.907   7.516  10.921  1.00 20.91     0.036 C 
ENDROOT
BRANCH   1   8
HETATM    8  N1    D T1201      52.502   9.410   8.755  1.00 26.87    -0.227 NA
BRANCH   8   9
HETATM    9  C17   D T1201      53.732   9.812   8.335  1.00 26.69     0.084 A 
HETATM   10  C18   D T1201      54.178  11.132   8.454  1.00 27.53     0.019 A 
HETATM   11  C19   D T1201      55.461  11.495   8.029  1.00 30.18     0.002 A 
HETATM   12  C20   D T1201      56.311  10.524   7.496  1.00 27.75     0.013 A 
HETATM   13  C21   D T1201      55.852   9.208   7.387  1.00 29.98     0.106 A 
HETATM   14  C22   D T1201      54.580   8.853   7.804  1.00 25.75     0.032 A 
BRANCH  13  15
HETATM   15  S1    D T1201      56.878   7.898   6.762  1.00 33.88     0.281 S 
HETATM   16  O2    D T1201      56.647   6.767   7.603  1.00 32.26    -0.199 OA
HETATM   17  O1    D T1201      58.222   8.400   6.730  1.00 41.11    -0.199 OA
BRANCH  15  18
HETATM   18  N7    D T1201      56.159   7.496   5.210  1.00 34.20    -0.189 NA
BRANCH  18  19
HETATM   19  C23   D T1201      56.659   7.877   3.905  1.00 42.34     0.097 C 
HETATM   20  C26   D T1201      57.894   7.041   3.603  1.00 28.35     0.025 C 
HETATM   21  C25   D T1201      56.992   9.362   3.859  1.00 32.55     0.025 C 
HETATM   22  C24   D T1201      55.575   7.556   2.883  1.00 33.84     0.025 C 
ENDBRANCH  18  19
ENDBRANCH  15  18
ENDBRANCH  13  15
ENDBRANCH   8   9
ENDBRANCH   1   8
BRANCH   3  23
HETATM   23  N4    D T1201      50.173   6.881   5.642  1.00 27.54    -0.059 NA
BRANCH  23  24
HETATM   24  C6    D T1201      50.439   5.957   4.675  1.00 28.50     0.100 A 
HETATM   25  C11   D T1201      51.739   5.492   4.503  1.00 28.34     0.021 A 
HETATM   26  C10   D T1201      52.025   4.546   3.536  1.00 24.65     0.018 A 
HETATM   27  C9    D T1201      51.014   4.057   2.713  1.00 32.26     0.056 A 
HETATM   28  C8    D T1201      49.699   4.508   2.877  1.00 24.70     0.018 A 
HETATM   29  C7    D T1201      49.421   5.459   3.857  1.00 27.68     0.021 A 
BRANCH  27  30
HETATM   30  N5    D T1201      51.363   3.079   1.764  1.00 35.69    -0.344 N 
HETATM   31  C15   D T1201      52.737   2.525   1.745  1.00 37.46     0.137 C 
HETATM   32  C14   D T1201      52.823   1.010   1.827  1.00 37.22     0.274 C 
HETATM   33  N6    D T1201      52.016   0.442   0.743  1.00 55.55     0.143 N 
HETATM   34  C16   D T1201      52.158  -1.023   0.771  1.00 64.64     0.286 C 
HETATM   35  C13   D T1201      50.606   0.819   0.953  1.00 53.32     0.274 C 
HETATM   36  C12   D T1201      50.422   2.338   0.888  1.00 47.69     0.137 C 
ENDBRANCH  27  30
ENDBRANCH  23  24
ENDBRANCH   3  23
TORSDOF 8
ENDMDL
MODEL 7
REMARK VINA RESULT:      -6.1      5.674     10.122
REMARK  8 active torsions:
REMARK  status: ('A' for Active; 'I' for Inactive)
REMARK    1  A    between atoms: S1_2  and  N7_4 
REMARK    2  A    between atoms: S1_2  and  C21_9 
REMARK    3  A    between atoms: N7_4  and  C23_5 
REMARK    4  A    between atoms: C17_14  and  N1_15 
REMARK    5  A    between atoms: N1_15  and  C1_16 
REMARK    6  A    between atoms: C4_18  and  N4_23 
REMARK    7  A    between atoms: N4_23  and  C6_24 
REMARK    8  A    between atoms: C9_27  and  N5_30 
ROOT
HETATM    1  C1    D T1201      55.277   6.121   7.190  1.00 25.50     0.178 A 
HETATM    2  N3    D T1201      54.199   5.825   6.446  1.00 24.51    -0.041 NA
HETATM    3  C4    D T1201      53.033   5.553   7.036  1.00 26.00     0.751 A 
HETATM    4  N2    D T1201      52.899   5.566   8.368  1.00 27.09    -0.058 NA
HETATM    5  C3    D T1201      53.956   5.863   9.130  1.00 26.64     0.117 A 
HETATM    6  C2    D T1201      55.193   6.148   8.576  1.00 22.40     0.034 A 
HETATM    7  C5    D T1201      56.362   6.484   9.469  1.00 20.91     0.036 C 
ENDROOT
BRANCH   1   8
HETATM    8  N1    D T1201      56.429   6.388   6.532  1.00 26.87    -0.227 NA
BRANCH   8   9
HETATM    9  C17   D T1201      56.834   7.453   5.787  1.00 26.69     0.084 A 
HETATM   10  C18   D T1201      56.701   7.497   4.397  1.00 27.53     0.019 A 
HETATM   11  C19   D T1201      57.109   8.623   3.674  1.00 30.18     0.002 A 
HETATM   12  C20   D T1201      57.640   9.722   4.353  1.00 27.75     0.013 A 
HETATM   13  C21   D T1201      57.764   9.665   5.743  1.00 29.98     0.106 A 
HETATM   14  C22   D T1201      57.362   8.547   6.455  1.00 25.75     0.032 A 
BRANCH  13  15
HETATM   15  S1    D T1201      58.386  11.030   6.695  1.00 33.88     0.281 S 
HETATM   16  O2    D T1201      57.246  11.763   7.146  1.00 32.26    -0.199 OA
HETATM   17  O1    D T1201      59.303  11.742   5.851  1.00 41.11    -0.199 OA
BRANCH  15  18
HETATM   18  N7    D T1201      59.070  10.276   8.127  1.00 34.20    -0.189 NA
BRANCH  18  19
HETATM   19  C23   D T1201      60.471  10.001   8.369  1.00 42.34     0.097 C 
HETATM   20  C26   D T1201      61.213  11.329   8.447  1.00 28.35     0.025 C 
HETATM   21  C25   D T1201      61.055   9.124   7.270  1.00 32.55     0.025 C 
HETATM   22  C24   D T1201      60.577   9.290   9.713  1.00 33.84     0.025 C 
ENDBRANCH  18  19
ENDBRANCH  15  18
ENDBRANCH  13  15
ENDBRANCH   8   9
ENDBRANCH   1   8
BRANCH   3  23
HETATM   23  N4    D T1201      51.940   5.253   6.275  1.00 27.54    -0.059 NA
BRANCH  23  24
HETATM   24  C6    D T1201      51.709   4.359   5.272  1.00 28.50     0.100 A 
HETATM   25  C11   D T1201      51.556   3.008   5.572  1.00 28.34     0.021 A 
HETATM   26  C10   D T1201      51.310   2.089   4.569  1.00 24.65     0.018 A 
HETATM   27  C9    D T1201      51.224   2.504   3.242  1.00 32.26     0.056 A 
HETATM   28  C8    D T1201      51.368   3.859   2.924  1.00 24.70     0.018 A 
HETATM   29  C7    D T1201      51.613   4.778   3.942  1.00 27.68     0.021 A 
BRANCH  27  30
HETATM   30  N5    D T1201      50.948   1.525   2.271  1.00 35.69    -0.344 N 
HETATM   31  C15   D T1201      49.757   1.663   1.400  1.00 37.46     0.137 C 
HETATM   32  C14   D T1201      50.037   1.601  -0.092  1.00 37.22     0.274 C 
HETATM   33  N6    D T1201      50.750   0.352  -0.376  1.00 55.55     0.143 N 
HETATM   34  C16   D T1201      50.956   0.250  -1.830  1.00 64.64     0.286 C 
HETATM   35  C13   D T1201      52.050   0.377   0.320  1.00 53.32     0.274 C 
HETATM   36  C12   D T1201      51.865   0.441   1.839  1.00 47.69     0.137 C 
ENDBRANCH  27  30
ENDBRANCH  23  24
ENDBRANCH   3  23
TORSDOF 8
ENDMDL
MODEL 8
REMARK VINA RESULT:      -6.1      3.289      7.483
REMARK  8 active torsions:
REMARK  status: ('A' for Active; 'I' for Inactive)
REMARK    1  A    between atoms: S1_2  and  N7_4 
REMARK    2  A    between atoms: S1_2  and  C21_9 
REMARK    3  A    between atoms: N7_4  and  C23_5 
REMARK    4  A    between atoms: C17_14  and  N1_15 
REMARK    5  A    between atoms: N1_15  and  C1_16 
REMARK    6  A    between atoms: C4_18  and  N4_23 
REMARK    7  A    between atoms: N4_23  and  C6_24 
REMARK    8  A    between atoms: C9_27  and  N5_30 
ROOT
HETATM    1  C1    D T1201      56.332  10.943  10.051  1.00 25.50     0.178 A 
HETATM    2  N3    D T1201      55.124  10.356  10.019  1.00 24.51    -0.041 NA
HETATM    3  C4    D T1201      54.022  11.083  10.211  1.00 26.00     0.751 A 
HETATM    4  N2    D T1201      54.079  12.402  10.437  1.00 27.09    -0.058 NA
HETATM    5  C3    D T1201      55.269  13.010  10.467  1.00 26.64     0.117 A 
HETATM    6  C2    D T1201      56.448  12.307  10.282  1.00 22.40     0.034 A 
HETATM    7  C5    D T1201      57.773  13.030  10.319  1.00 20.91     0.036 C 
ENDROOT
BRANCH   1   8
HETATM    8  N1    D T1201      57.411  10.152   9.848  1.00 26.87    -0.227 NA
BRANCH   8   9
HETATM    9  C17   D T1201      58.043   9.735   8.717  1.00 26.69     0.084 A 
HETATM   10  C18   D T1201      59.266  10.263   8.295  1.00 27.53     0.019 A 
HETATM   11  C19   D T1201      59.891   9.787   7.137  1.00 30.18     0.002 A 
HETATM   12  C20   D T1201      59.291   8.761   6.404  1.00 27.75     0.013 A 
HETATM   13  C21   D T1201      58.070   8.240   6.839  1.00 29.98     0.106 A 
HETATM   14  C22   D T1201      57.452   8.716   7.984  1.00 25.75     0.032 A 
BRANCH  13  15
HETATM   15  S1    D T1201      57.256   6.904   5.996  1.00 33.88     0.281 S 
HETATM   16  O2    D T1201      56.438   6.251   6.967  1.00 32.26    -0.199 OA
HETATM   17  O1    D T1201      58.285   6.104   5.393  1.00 41.11    -0.199 OA
BRANCH  15  18
HETATM   18  N7    D T1201      56.147   7.707   4.894  1.00 34.20    -0.189 NA
BRANCH  18  19
HETATM   19  C23   D T1201      56.462   8.215   3.575  1.00 42.34     0.097 C 
HETATM   20  C26   D T1201      55.234   8.046   2.692  1.00 28.35     0.025 C 
HETATM   21  C25   D T1201      57.657   7.485   2.978  1.00 32.55     0.025 C 
HETATM   22  C24   D T1201      56.777   9.699   3.715  1.00 33.84     0.025 C 
ENDBRANCH  18  19
ENDBRANCH  15  18
ENDBRANCH  13  15
ENDBRANCH   8   9
ENDBRANCH   1   8
BRANCH   3  23
HETATM   23  N4    D T1201      52.797  10.482  10.177  1.00 27.54    -0.059 NA
BRANCH  23  24
HETATM   24  C6    D T1201      52.357   9.269   9.737  1.00 28.50     0.100 A 
HETATM   25  C11   D T1201      52.142   8.240  10.649  1.00 28.34     0.021 A 
HETATM   26  C10   D T1201      51.684   7.006  10.223  1.00 24.65     0.018 A 
HETATM   27  C9    D T1201      51.444   6.777   8.870  1.00 32.26     0.056 A 
HETATM   28  C8    D T1201      51.647   7.803   7.940  1.00 24.70     0.018 A 
HETATM   29  C7    D T1201      52.106   9.043   8.381  1.00 27.68     0.021 A 
BRANCH  27  30
HETATM   30  N5    D T1201      50.957   5.510   8.501  1.00 35.69    -0.344 N 
HETATM   31  C15   D T1201      51.356   4.913   7.205  1.00 37.46     0.137 C 
HETATM   32  C14   D T1201      51.962   3.523   7.294  1.00 37.22     0.274 C 
HETATM   33  N6    D T1201      51.019   2.652   8.001  1.00 55.55     0.143 N 
HETATM   34  C16   D T1201      51.567   1.286   8.022  1.00 64.64     0.286 C 
HETATM   35  C13   D T1201      50.851   3.152   9.378  1.00 53.32     0.274 C 
HETATM   36  C12   D T1201      50.243   4.558   9.388  1.00 47.69     0.137 C 
ENDBRANCH  27  30
ENDBRANCH  23  24
ENDBRANCH   3  23
TORSDOF 8
ENDMDL
MODEL 9
REMARK VINA RESULT:      -6.0      2.897      5.150
REMARK  8 active torsions:
REMARK  status: ('A' for Active; 'I' for Inactive)
REMARK    1  A    between atoms: S1_2  and  N7_4 
REMARK    2  A    between atoms: S1_2  and  C21_9 
REMARK    3  A    between atoms: N7_4  and  C23_5 
REMARK    4  A    between atoms: C17_14  and  N1_15 
REMARK    5  A    between atoms: N1_15  and  C1_16 
REMARK    6  A    between atoms: C4_18  and  N4_23 
REMARK    7  A    between atoms: N4_23  and  C6_24 
REMARK    8  A    between atoms: C9_27  and  N5_30 
ROOT
HETATM    1  C1    D T1201      50.145   6.861  12.287  1.00 25.50     0.178 A 
HETATM    2  N3    D T1201      51.394   6.475  11.979  1.00 24.51    -0.041 NA
HETATM    3  C4    D T1201      51.598   5.567  11.023  1.00 26.00     0.751 A 
HETATM    4  N2    D T1201      50.581   5.017  10.347  1.00 27.09    -0.058 NA
HETATM    5  C3    D T1201      49.329   5.388  10.631  1.00 26.64     0.117 A 
HETATM    6  C2    D T1201      49.055   6.321  11.617  1.00 22.40     0.034 A 
HETATM    7  C5    D T1201      47.627   6.719  11.906  1.00 20.91     0.036 C 
ENDROOT
BRANCH   1   8
HETATM    8  N1    D T1201      50.005   7.786  13.264  1.00 26.87    -0.227 NA
BRANCH   8   9
HETATM    9  C17   D T1201      49.878   9.141  13.233  1.00 26.69     0.084 A 
HETATM   10  C18   D T1201      48.683   9.796  13.540  1.00 27.53     0.019 A 
HETATM   11  C19   D T1201      48.605  11.193  13.518  1.00 30.18     0.002 A 
HETATM   12  C20   D T1201      49.741  11.940  13.200  1.00 27.75     0.013 A 
HETATM   13  C21   D T1201      50.930  11.272  12.897  1.00 29.98     0.106 A 
HETATM   14  C22   D T1201      51.002   9.889  12.917  1.00 25.75     0.032 A 
BRANCH  13  15
HETATM   15  S1    D T1201      52.436  12.139  12.524  1.00 33.88     0.281 S 
HETATM   16  O2    D T1201      52.768  12.894  13.691  1.00 32.26    -0.199 OA
HETATM   17  O1    D T1201      52.195  12.895  11.328  1.00 41.11    -0.199 OA
BRANCH  15  18
HETATM   18  N7    D T1201      53.645  10.869  12.414  1.00 34.20    -0.189 NA
BRANCH  18  19
HETATM   19  C23   D T1201      54.485  10.578  11.271  1.00 42.34     0.097 C 
HETATM   20  C26   D T1201      55.465   9.482  11.664  1.00 28.35     0.025 C 
HETATM   21  C25   D T1201      55.230  11.823  10.809  1.00 32.55     0.025 C 
HETATM   22  C24   D T1201      53.585  10.067  10.154  1.00 33.84     0.025 C 
ENDBRANCH  18  19
ENDBRANCH  15  18
ENDBRANCH  13  15
ENDBRANCH   8   9
ENDBRANCH   1   8
BRANCH   3  23
HETATM   23  N4    D T1201      52.870   5.179  10.714  1.00 27.54    -0.059 NA
BRANCH  23  24
HETATM   24  C6    D T1201      53.846   5.703   9.919  1.00 28.50     0.100 A 
HETATM   25  C11   D T1201      53.555   6.041   8.600  1.00 28.34     0.021 A 
HETATM   26  C10   D T1201      54.530   6.585   7.783  1.00 24.65     0.018 A 
HETATM   27  C9    D T1201      55.819   6.790   8.269  1.00 32.26     0.056 A 
HETATM   28  C8    D T1201      56.126   6.463   9.595  1.00 24.70     0.018 A 
HETATM   29  C7    D T1201      55.136   5.918  10.411  1.00 27.68     0.021 A 
BRANCH  27  30
HETATM   30  N5    D T1201      56.758   7.368   7.398  1.00 35.69    -0.344 N 
HETATM   31  C15   D T1201      57.019   6.751   6.076  1.00 37.46     0.137 C 
HETATM   32  C14   D T1201      56.866   7.683   4.886  1.00 37.22     0.274 C 
HETATM   33  N6    D T1201      57.731   8.847   5.098  1.00 55.55     0.143 N 
HETATM   34  C16   D T1201      57.646   9.716   3.913  1.00 64.64     0.286 C 
HETATM   35  C13   D T1201      57.266   9.574   6.294  1.00 53.32     0.274 C 
HETATM   36  C12   D T1201      57.383   8.706   7.550  1.00 47.69     0.137 C 
ENDBRANCH  27  30
ENDBRANCH  23  24
ENDBRANCH   3  23
TORSDOF 8
ENDMDL
