MODEL 1
REMARK VINA RESULT:    -8.423      0.000      0.000
REMARK INTER + INTRA:         -14.184
REMARK INTER:                 -12.363
REMARK INTRA:                  -1.821
REMARK UNBOUND:                -1.821
REMARK  8 active torsions:
REMARK  status: ('A' for Active; 'I' for Inactive)
REMARK    1  A    between atoms: S1_2  and  N7_4 
REMARK    2  A    between atoms: S1_2  and  C21_9 
REMARK    3  A    between atoms: N7_4  and  C23_5 
REMARK    4  A    between atoms: C17_14  and  N1_15 
REMARK    5  A    between atoms: N1_15  and  C1_16 
REMARK    6  A    between atoms: C4_18  and  N4_23 
REMARK    7  A    between atoms: N4_23  and  C6_24 
REMARK    8  A    between atoms: C9_27  and  N5_30 
ROOT
HETATM    1  C1    D T1201       4.120   4.799   9.881  1.00 25.50     0.178 A 
HETATM    2  N3    D T1201       4.676   5.162   8.713  1.00 24.51    -0.041 NA
HETATM    3  C4    D T1201       5.944   4.838   8.446  1.00 26.00     0.751 A 
HETATM    4  N2    D T1201       6.692   4.150   9.318  1.00 27.09    -0.058 NA
HETATM    5  C3    D T1201       6.160   3.773  10.484  1.00 26.64     0.117 A 
HETATM    6  C2    D T1201       4.852   4.086  10.819  1.00 22.40     0.034 A 
HETATM    7  C5    D T1201       4.284   3.638  12.145  1.00 20.91     0.036 C 
ENDROOT
BRANCH   1   8
HETATM    8  N1    D T1201       2.832   5.158  10.090  1.00 26.87    -0.227 NA
BRANCH   8   9
HETATM    9  C17   D T1201       1.698   4.971   9.363  1.00 26.69     0.084 A 
HETATM   10  C18   D T1201       0.863   3.863   9.534  1.00 27.53     0.019 A 
HETATM   11  C19   D T1201      -0.307   3.723   8.778  1.00 30.18     0.002 A 
HETATM   12  C20   D T1201      -0.651   4.711   7.854  1.00 27.75     0.013 A 
HETATM   13  C21   D T1201       0.192   5.814   7.695  1.00 29.98     0.106 A 
HETATM   14  C22   D T1201       1.351   5.947   8.442  1.00 25.75     0.032 A 
BRANCH  13  15
HETATM   15  S1    D T1201      -0.187   7.141   6.575  1.00 33.88     0.281 S 
HETATM   16  O2    D T1201      -1.130   7.979   7.244  1.00 32.26    -0.199 OA
HETATM   17  O1    D T1201      -0.632   6.538   5.350  1.00 41.11    -0.199 OA
BRANCH  15  18
HETATM   18  N7    D T1201       1.304   8.068   6.491  1.00 34.20    -0.189 NA
BRANCH  18  19
HETATM   19  C23   D T1201       1.564   9.201   5.627  1.00 42.34     0.097 C 
HETATM   20  C26   D T1201       2.847   9.874   6.094  1.00 28.35     0.025 C 
HETATM   21  C25   D T1201       0.403  10.185   5.650  1.00 32.55     0.025 C 
HETATM   22  C24   D T1201       1.766   8.667   4.214  1.00 33.84     0.025 C 
ENDBRANCH  18  19
ENDBRANCH  15  18
ENDBRANCH  13  15
ENDBRANCH   8   9
ENDBRANCH   1   8
BRANCH   3  23
HETATM   23  N4    D T1201       6.504   5.209   7.258  1.00 27.54    -0.059 NA
BRANCH  23  24
HETATM   24  C6    D T1201       6.394   6.318   6.472  1.00 28.50     0.100 A 
HETATM   25  C11   D T1201       5.499   6.324   5.407  1.00 28.34     0.021 A 
HETATM   26  C10   D T1201       5.365   7.444   4.607  1.00 24.65     0.018 A 
HETATM   27  C9    D T1201       6.135   8.578   4.854  1.00 32.26     0.056 A 
HETATM   28  C8    D T1201       7.035   8.592   5.926  1.00 24.70     0.018 A 
HETATM   29  C7    D T1201       7.160   7.460   6.727  1.00 27.68     0.021 A 
BRANCH  27  30
HETATM   30  N5    D T1201       5.936   9.693   4.021  1.00 35.69    -0.344 N 
HETATM   31  C15   D T1201       6.941  10.782   3.988  1.00 37.46     0.137 C 
HETATM   32  C14   D T1201       7.472  11.129   2.607  1.00 37.22     0.274 C 
HETATM   33  N6    D T1201       6.333  11.445   1.741  1.00 55.55     0.143 N 
HETATM   34  C16   D T1201       6.844  11.858   0.424  1.00 64.64     0.286 C 
HETATM   35  C13   D T1201       5.492  10.242   1.604  1.00 53.32     0.274 C 
HETATM   36  C12   D T1201       4.910   9.814   2.955  1.00 47.69     0.137 C 
ENDBRANCH  27  30
ENDBRANCH  23  24
ENDBRANCH   3  23
TORSDOF 8
ENDMDL
MODEL 2
REMARK VINA RESULT:    -8.163      2.974      8.076
REMARK INTER + INTRA:         -13.802
REMARK INTER:                 -12.325
REMARK INTRA:                  -1.477
REMARK UNBOUND:                -1.821
REMARK  8 active torsions:
REMARK  status: ('A' for Active; 'I' for Inactive)
REMARK    1  A    between atoms: S1_2  and  N7_4 
REMARK    2  A    between atoms: S1_2  and  C21_9 
REMARK    3  A    between atoms: N7_4  and  C23_5 
REMARK    4  A    between atoms: C17_14  and  N1_15 
REMARK    5  A    between atoms: N1_15  and  C1_16 
REMARK    6  A    between atoms: C4_18  and  N4_23 
REMARK    7  A    between atoms: N4_23  and  C6_24 
REMARK    8  A    between atoms: C9_27  and  N5_30 
ROOT
HETATM    1  C1    D T1201       0.709   7.371   6.499  1.00 25.50     0.178 A 
HETATM    2  N3    D T1201       1.204   6.819   7.619  1.00 24.51    -0.041 NA
HETATM    3  C4    D T1201       0.586   5.776   8.180  1.00 26.00     0.751 A 
HETATM    4  N2    D T1201      -0.530   5.254   7.654  1.00 27.09    -0.058 NA
HETATM    5  C3    D T1201      -1.037   5.783   6.537  1.00 26.64     0.117 A 
HETATM    6  C2    D T1201      -0.444   6.869   5.913  1.00 22.40     0.034 A 
HETATM    7  C5    D T1201      -1.045   7.436   4.650  1.00 20.91     0.036 C 
ENDROOT
BRANCH   1   8
HETATM    8  N1    D T1201       1.383   8.425   5.980  1.00 26.87    -0.227 NA
BRANCH   8   9
HETATM    9  C17   D T1201       2.349   8.516   5.026  1.00 26.69     0.084 A 
HETATM   10  C18   D T1201       2.112   9.056   3.759  1.00 27.53     0.019 A 
HETATM   11  C19   D T1201       3.143   9.151   2.817  1.00 30.18     0.002 A 
HETATM   12  C20   D T1201       4.425   8.715   3.153  1.00 27.75     0.013 A 
HETATM   13  C21   D T1201       4.648   8.179   4.425  1.00 29.98     0.106 A 
HETATM   14  C22   D T1201       3.624   8.083   5.353  1.00 25.75     0.032 A 
BRANCH  13  15
HETATM   15  S1    D T1201       6.255   7.640   4.957  1.00 33.88     0.281 S 
HETATM   16  O2    D T1201       7.147   7.887   3.869  1.00 32.26    -0.199 OA
HETATM   17  O1    D T1201       6.120   6.271   5.367  1.00 41.11    -0.199 OA
BRANCH  15  18
HETATM   18  N7    D T1201       6.698   8.789   6.211  1.00 34.20    -0.189 NA
BRANCH  18  19
HETATM   19  C23   D T1201       7.605   8.550   7.314  1.00 42.34     0.097 C 
HETATM   20  C26   D T1201       7.931   9.888   7.964  1.00 28.35     0.025 C 
HETATM   21  C25   D T1201       8.877   7.861   6.838  1.00 32.55     0.025 C 
HETATM   22  C24   D T1201       6.882   7.667   8.324  1.00 33.84     0.025 C 
ENDBRANCH  18  19
ENDBRANCH  15  18
ENDBRANCH  13  15
ENDBRANCH   8   9
ENDBRANCH   1   8
BRANCH   3  23
HETATM   23  N4    D T1201       1.092   5.218   9.318  1.00 27.54    -0.059 NA
BRANCH  23  24
HETATM   24  C6    D T1201       2.333   4.784   9.681  1.00 28.50     0.100 A 
HETATM   25  C11   D T1201       3.445   5.171   8.939  1.00 28.34     0.021 A 
HETATM   26  C10   D T1201       4.712   4.751   9.300  1.00 24.65     0.018 A 
HETATM   27  C9    D T1201       4.887   3.922  10.406  1.00 32.26     0.056 A 
HETATM   28  C8    D T1201       3.781   3.529  11.167  1.00 24.70     0.018 A 
HETATM   29  C7    D T1201       2.509   3.961  10.797  1.00 27.68     0.021 A 
BRANCH  27  30
HETATM   30  N5    D T1201       6.202   3.548  10.736  1.00 35.69    -0.344 N 
HETATM   31  C15   D T1201       7.345   4.362  10.260  1.00 37.46     0.137 C 
HETATM   32  C14   D T1201       8.296   4.836  11.345  1.00 37.22     0.274 C 
HETATM   33  N6    D T1201       8.766   3.665  12.091  1.00 55.55     0.143 N 
HETATM   34  C16   D T1201       9.748   4.109  13.094  1.00 64.64     0.286 C 
HETATM   35  C13   D T1201       7.613   3.032  12.757  1.00 53.32     0.274 C 
HETATM   36  C12   D T1201       6.593   2.522  11.735  1.00 47.69     0.137 C 
ENDBRANCH  27  30
ENDBRANCH  23  24
ENDBRANCH   3  23
TORSDOF 8
ENDMDL
MODEL 3
REMARK VINA RESULT:    -8.079      2.879      8.192
REMARK INTER + INTRA:         -13.679
REMARK INTER:                 -12.281
REMARK INTRA:                  -1.398
REMARK UNBOUND:                -1.821
REMARK  8 active torsions:
REMARK  status: ('A' for Active; 'I' for Inactive)
REMARK    1  A    between atoms: S1_2  and  N7_4 
REMARK    2  A    between atoms: S1_2  and  C21_9 
REMARK    3  A    between atoms: N7_4  and  C23_5 
REMARK    4  A    between atoms: C17_14  and  N1_15 
REMARK    5  A    between atoms: N1_15  and  C1_16 
REMARK    6  A    between atoms: C4_18  and  N4_23 
REMARK    7  A    between atoms: N4_23  and  C6_24 
REMARK    8  A    between atoms: C9_27  and  N5_30 
ROOT
HETATM    1  C1    D T1201       0.135   7.495   6.488  1.00 25.50     0.178 A 
HETATM    2  N3    D T1201       0.489   6.929   7.653  1.00 24.51    -0.041 NA
HETATM    3  C4    D T1201      -0.059   5.770   8.027  1.00 26.00     0.751 A 
HETATM    4  N2    D T1201      -0.966   5.143   7.266  1.00 27.09    -0.058 NA
HETATM    5  C3    D T1201      -1.329   5.684   6.100  1.00 26.64     0.117 A 
HETATM    6  C2    D T1201      -0.799   6.887   5.662  1.00 22.40     0.034 A 
HETATM    7  C5    D T1201      -1.231   7.465   4.335  1.00 20.91     0.036 C 
ENDROOT
BRANCH   1   8
HETATM    8  N1    D T1201       0.728   8.669   6.166  1.00 26.87    -0.227 NA
BRANCH   8   9
HETATM    9  C17   D T1201       1.817   8.969   5.408  1.00 26.69     0.084 A 
HETATM   10  C18   D T1201       1.817   9.989   4.453  1.00 27.53     0.019 A 
HETATM   11  C19   D T1201       2.969  10.277   3.712  1.00 30.18     0.002 A 
HETATM   12  C20   D T1201       4.136   9.548   3.942  1.00 27.75     0.013 A 
HETATM   13  C21   D T1201       4.123   8.532   4.902  1.00 29.98     0.106 A 
HETATM   14  C22   D T1201       2.980   8.247   5.631  1.00 25.75     0.032 A 
BRANCH  13  15
HETATM   15  S1    D T1201       5.571   7.581   5.294  1.00 33.88     0.281 S 
HETATM   16  O2    D T1201       6.493   7.784   4.222  1.00 32.26    -0.199 OA
HETATM   17  O1    D T1201       5.137   6.230   5.509  1.00 41.11    -0.199 OA
BRANCH  15  18
HETATM   18  N7    D T1201       6.262   8.407   6.683  1.00 34.20    -0.189 NA
BRANCH  18  19
HETATM   19  C23   D T1201       7.265   7.881   7.587  1.00 42.34     0.097 C 
HETATM   20  C26   D T1201       8.485   7.485   6.769  1.00 28.35     0.025 C 
HETATM   21  C25   D T1201       6.729   6.686   8.363  1.00 32.55     0.025 C 
HETATM   22  C24   D T1201       7.649   8.997   8.551  1.00 33.84     0.025 C 
ENDBRANCH  18  19
ENDBRANCH  15  18
ENDBRANCH  13  15
ENDBRANCH   8   9
ENDBRANCH   1   8
BRANCH   3  23
HETATM   23  N4    D T1201       0.303   5.198   9.212  1.00 27.54    -0.059 NA
BRANCH  23  24
HETATM   24  C6    D T1201       1.503   4.857   9.764  1.00 28.50     0.100 A 
HETATM   25  C11   D T1201       1.647   3.628  10.400  1.00 28.34     0.021 A 
HETATM   26  C10   D T1201       2.859   3.260  10.954  1.00 24.65     0.018 A 
HETATM   27  C9    D T1201       3.950   4.125  10.890  1.00 32.26     0.056 A 
HETATM   28  C8    D T1201       3.825   5.361  10.248  1.00 24.70     0.018 A 
HETATM   29  C7    D T1201       2.600   5.720   9.690  1.00 27.68     0.021 A 
BRANCH  27  30
HETATM   30  N5    D T1201       5.162   3.684  11.451  1.00 35.69    -0.344 N 
HETATM   31  C15   D T1201       6.394   3.662  10.627  1.00 37.46     0.137 C 
HETATM   32  C14   D T1201       7.576   4.413  11.215  1.00 37.22     0.274 C 
HETATM   33  N6    D T1201       7.838   3.886  12.557  1.00 55.55     0.143 N 
HETATM   34  C16   D T1201       9.030   4.555  13.101  1.00 64.64     0.286 C 
HETATM   35  C13   D T1201       6.668   4.160  13.411  1.00 53.32     0.274 C 
HETATM   36  C12   D T1201       5.420   3.441  12.892  1.00 47.69     0.137 C 
ENDBRANCH  27  30
ENDBRANCH  23  24
ENDBRANCH   3  23
TORSDOF 8
ENDMDL
MODEL 4
REMARK VINA RESULT:    -8.016      2.743      8.106
REMARK INTER + INTRA:         -13.587
REMARK INTER:                 -12.695
REMARK INTRA:                  -0.892
REMARK UNBOUND:                -1.821
REMARK  8 active torsions:
REMARK  status: ('A' for Active; 'I' for Inactive)
REMARK    1  A    between atoms: S1_2  and  N7_4 
REMARK    2  A    between atoms: S1_2  and  C21_9 
REMARK    3  A    between atoms: N7_4  and  C23_5 
REMARK    4  A    between atoms: C17_14  and  N1_15 
REMARK    5  A    between atoms: N1_15  and  C1_16 
REMARK    6  A    between atoms: C4_18  and  N4_23 
REMARK    7  A    between atoms: N4_23  and  C6_24 
REMARK    8  A    between atoms: C9_27  and  N5_30 
ROOT
HETATM    1  C1    D T1201       0.057   7.344   6.491  1.00 25.50     0.178 A 
HETATM    2  N3    D T1201       0.450   6.740   7.624  1.00 24.51    -0.041 NA
HETATM    3  C4    D T1201      -0.111   5.587   7.997  1.00 26.00     0.751 A 
HETATM    4  N2    D T1201      -1.068   5.002   7.266  1.00 27.09    -0.058 NA
HETATM    5  C3    D T1201      -1.471   5.579   6.131  1.00 26.64     0.117 A 
HETATM    6  C2    D T1201      -0.931   6.780   5.696  1.00 22.40     0.034 A 
HETATM    7  C5    D T1201      -1.409   7.400   4.406  1.00 20.91     0.036 C 
ENDROOT
BRANCH   1   8
HETATM    8  N1    D T1201       0.665   8.510   6.168  1.00 26.87    -0.227 NA
BRANCH   8   9
HETATM    9  C17   D T1201       1.880   8.791   5.626  1.00 26.69     0.084 A 
HETATM   10  C18   D T1201       3.071   8.249   6.116  1.00 27.53     0.019 A 
HETATM   11  C19   D T1201       4.298   8.548   5.512  1.00 30.18     0.002 A 
HETATM   12  C20   D T1201       4.328   9.385   4.395  1.00 27.75     0.013 A 
HETATM   13  C21   D T1201       3.129   9.917   3.913  1.00 29.98     0.106 A 
HETATM   14  C22   D T1201       1.918   9.622   4.517  1.00 25.75     0.032 A 
BRANCH  13  15
HETATM   15  S1    D T1201       3.066  10.955   2.473  1.00 33.88     0.281 S 
HETATM   16  O2    D T1201       2.170  12.024   2.782  1.00 32.26    -0.199 OA
HETATM   17  O1    D T1201       2.692  10.115   1.370  1.00 41.11    -0.199 OA
BRANCH  15  18
HETATM   18  N7    D T1201       4.666  11.677   2.394  1.00 34.20    -0.189 NA
BRANCH  18  19
HETATM   19  C23   D T1201       5.539  11.711   1.239  1.00 42.34     0.097 C 
HETATM   20  C26   D T1201       4.769  12.320   0.076  1.00 28.35     0.025 C 
HETATM   21  C25   D T1201       6.033  10.316   0.884  1.00 32.55     0.025 C 
HETATM   22  C24   D T1201       6.721  12.610   1.581  1.00 33.84     0.025 C 
ENDBRANCH  18  19
ENDBRANCH  15  18
ENDBRANCH  13  15
ENDBRANCH   8   9
ENDBRANCH   1   8
BRANCH   3  23
HETATM   23  N4    D T1201       0.292   4.977   9.150  1.00 27.54    -0.059 NA
BRANCH  23  24
HETATM   24  C6    D T1201       1.513   4.699   9.690  1.00 28.50     0.100 A 
HETATM   25  C11   D T1201       1.673   3.574  10.495  1.00 28.34     0.021 A 
HETATM   26  C10   D T1201       2.906   3.270  11.040  1.00 24.65     0.018 A 
HETATM   27  C9    D T1201       4.003   4.094  10.798  1.00 32.26     0.056 A 
HETATM   28  C8    D T1201       3.861   5.224   9.986  1.00 24.70     0.018 A 
HETATM   29  C7    D T1201       2.615   5.521   9.439  1.00 27.68     0.021 A 
BRANCH  27  30
HETATM   30  N5    D T1201       5.235   3.718  11.361  1.00 35.69    -0.344 N 
HETATM   31  C15   D T1201       6.466   3.749  10.537  1.00 37.46     0.137 C 
HETATM   32  C14   D T1201       7.611   4.562  11.115  1.00 37.22     0.274 C 
HETATM   33  N6    D T1201       7.899   4.060  12.462  1.00 55.55     0.143 N 
HETATM   34  C16   D T1201       9.058   4.791  12.999  1.00 64.64     0.286 C 
HETATM   35  C13   D T1201       6.718   4.285  13.316  1.00 53.32     0.274 C 
HETATM   36  C12   D T1201       5.506   3.501  12.805  1.00 47.69     0.137 C 
ENDBRANCH  27  30
ENDBRANCH  23  24
ENDBRANCH   3  23
TORSDOF 8
ENDMDL
MODEL 5
REMARK VINA RESULT:    -7.852      2.810      5.155
REMARK INTER + INTRA:         -13.346
REMARK INTER:                 -11.367
REMARK INTRA:                  -1.979
REMARK UNBOUND:                -1.821
REMARK  8 active torsions:
REMARK  status: ('A' for Active; 'I' for Inactive)
REMARK    1  A    between atoms: S1_2  and  N7_4 
REMARK    2  A    between atoms: S1_2  and  C21_9 
REMARK    3  A    between atoms: N7_4  and  C23_5 
REMARK    4  A    between atoms: C17_14  and  N1_15 
REMARK    5  A    between atoms: N1_15  and  C1_16 
REMARK    6  A    between atoms: C4_18  and  N4_23 
REMARK    7  A    between atoms: N4_23  and  C6_24 
REMARK    8  A    between atoms: C9_27  and  N5_30 
ROOT
HETATM    1  C1    D T1201       1.123   6.109   8.174  1.00 25.50     0.178 A 
HETATM    2  N3    D T1201       1.404   7.267   7.554  1.00 24.51    -0.041 NA
HETATM    3  C4    D T1201       0.676   7.658   6.504  1.00 26.00     0.751 A 
HETATM    4  N2    D T1201      -0.340   6.920   6.040  1.00 27.09    -0.058 NA
HETATM    5  C3    D T1201      -0.642   5.767   6.644  1.00 26.64     0.117 A 
HETATM    6  C2    D T1201       0.080   5.307   7.734  1.00 22.40     0.034 A 
HETATM    7  C5    D T1201      -0.294   4.001   8.392  1.00 20.91     0.036 C 
ENDROOT
BRANCH   1   8
HETATM    8  N1    D T1201       1.897   5.771   9.232  1.00 26.87    -0.227 NA
BRANCH   8   9
HETATM    9  C17   D T1201       3.057   5.068   9.332  1.00 26.69     0.084 A 
HETATM   10  C18   D T1201       3.137   3.826   9.968  1.00 27.53     0.019 A 
HETATM   11  C19   D T1201       4.348   3.127  10.027  1.00 30.18     0.002 A 
HETATM   12  C20   D T1201       5.486   3.671   9.428  1.00 27.75     0.013 A 
HETATM   13  C21   D T1201       5.391   4.912   8.793  1.00 29.98     0.106 A 
HETATM   14  C22   D T1201       4.192   5.603   8.741  1.00 25.75     0.032 A 
BRANCH  13  15
HETATM   15  S1    D T1201       6.774   5.661   7.966  1.00 33.88     0.281 S 
HETATM   16  O2    D T1201       7.662   4.598   7.617  1.00 32.26    -0.199 OA
HETATM   17  O1    D T1201       7.300   6.659   8.854  1.00 41.11    -0.199 OA
BRANCH  15  18
HETATM   18  N7    D T1201       6.102   6.242   6.450  1.00 34.20    -0.189 NA
BRANCH  18  19
HETATM   19  C23   D T1201       6.218   7.584   5.916  1.00 42.34     0.097 C 
HETATM   20  C26   D T1201       5.387   8.518   6.783  1.00 28.35     0.025 C 
HETATM   21  C25   D T1201       5.751   7.639   4.468  1.00 32.55     0.025 C 
HETATM   22  C24   D T1201       7.684   7.990   6.005  1.00 33.84     0.025 C 
ENDBRANCH  18  19
ENDBRANCH  15  18
ENDBRANCH  13  15
ENDBRANCH   8   9
ENDBRANCH   1   8
BRANCH   3  23
HETATM   23  N4    D T1201       0.965   8.835   5.878  1.00 27.54    -0.059 NA
BRANCH  23  24
HETATM   24  C6    D T1201       1.817   9.181   4.870  1.00 28.50     0.100 A 
HETATM   25  C11   D T1201       1.847   8.425   3.702  1.00 28.34     0.021 A 
HETATM   26  C10   D T1201       2.696   8.767   2.665  1.00 24.65     0.018 A 
HETATM   27  C9    D T1201       3.539   9.870   2.784  1.00 32.26     0.056 A 
HETATM   28  C8    D T1201       3.516  10.645   3.949  1.00 24.70     0.018 A 
HETATM   29  C7    D T1201       2.655  10.293   4.986  1.00 27.68     0.021 A 
BRANCH  27  30
HETATM   30  N5    D T1201       4.361  10.181   1.687  1.00 35.69    -0.344 N 
HETATM   31  C15   D T1201       4.005  11.306   0.790  1.00 37.46     0.137 C 
HETATM   32  C14   D T1201       5.094  12.347   0.597  1.00 37.22     0.274 C 
HETATM   33  N6    D T1201       6.304  11.667   0.124  1.00 55.55     0.143 N 
HETATM   34  C16   D T1201       7.339  12.679  -0.140  1.00 64.64     0.286 C 
HETATM   35  C13   D T1201       6.762  10.733   1.167  1.00 53.32     0.274 C 
HETATM   36  C12   D T1201       5.721   9.642   1.433  1.00 47.69     0.137 C 
ENDBRANCH  27  30
ENDBRANCH  23  24
ENDBRANCH   3  23
TORSDOF 8
ENDMDL
MODEL 6
REMARK VINA RESULT:    -7.807      3.029      7.759
REMARK INTER + INTRA:         -13.279
REMARK INTER:                 -11.668
REMARK INTRA:                  -1.611
REMARK UNBOUND:                -1.821
REMARK  8 active torsions:
REMARK  status: ('A' for Active; 'I' for Inactive)
REMARK    1  A    between atoms: S1_2  and  N7_4 
REMARK    2  A    between atoms: S1_2  and  C21_9 
REMARK    3  A    between atoms: N7_4  and  C23_5 
REMARK    4  A    between atoms: C17_14  and  N1_15 
REMARK    5  A    between atoms: N1_15  and  C1_16 
REMARK    6  A    between atoms: C4_18  and  N4_23 
REMARK    7  A    between atoms: N4_23  and  C6_24 
REMARK    8  A    between atoms: C9_27  and  N5_30 
ROOT
HETATM    1  C1    D T1201       0.930   6.637   7.591  1.00 25.50     0.178 A 
HETATM    2  N3    D T1201       1.667   6.058   8.553  1.00 24.51    -0.041 NA
HETATM    3  C4    D T1201       1.253   4.922   9.121  1.00 26.00     0.751 A 
HETATM    4  N2    D T1201       0.108   4.331   8.756  1.00 27.09    -0.058 NA
HETATM    5  C3    D T1201      -0.639   4.884   7.798  1.00 26.64     0.117 A 
HETATM    6  C2    D T1201      -0.264   6.066   7.177  1.00 22.40     0.034 A 
HETATM    7  C5    D T1201      -1.133   6.659   6.094  1.00 20.91     0.036 C 
ENDROOT
BRANCH   1   8
HETATM    8  N1    D T1201       1.405   7.786   7.056  1.00 26.87    -0.227 NA
BRANCH   8   9
HETATM    9  C17   D T1201       2.214   8.036   5.991  1.00 26.69     0.084 A 
HETATM   10  C18   D T1201       1.760   8.657   4.824  1.00 27.53     0.019 A 
HETATM   11  C19   D T1201       2.634   8.914   3.762  1.00 30.18     0.002 A 
HETATM   12  C20   D T1201       3.979   8.561   3.877  1.00 27.75     0.013 A 
HETATM   13  C21   D T1201       4.421   7.943   5.051  1.00 29.98     0.106 A 
HETATM   14  C22   D T1201       3.551   7.686   6.098  1.00 25.75     0.032 A 
BRANCH  13  15
HETATM   15  S1    D T1201       6.122   7.499   5.304  1.00 33.88     0.281 S 
HETATM   16  O2    D T1201       6.804   7.789   4.083  1.00 32.26    -0.199 OA
HETATM   17  O1    D T1201       6.136   6.127   5.727  1.00 41.11    -0.199 OA
BRANCH  15  18
HETATM   18  N7    D T1201       6.703   8.679   6.470  1.00 34.20    -0.189 NA
BRANCH  18  19
HETATM   19  C23   D T1201       7.690   8.452   7.506  1.00 42.34     0.097 C 
HETATM   20  C26   D T1201       7.085   7.521   8.547  1.00 28.35     0.025 C 
HETATM   21  C25   D T1201       8.124   9.763   8.146  1.00 32.55     0.025 C 
HETATM   22  C24   D T1201       8.888   7.767   6.859  1.00 33.84     0.025 C 
ENDBRANCH  18  19
ENDBRANCH  15  18
ENDBRANCH  13  15
ENDBRANCH   8   9
ENDBRANCH   1   8
BRANCH   3  23
HETATM   23  N4    D T1201       2.006   4.337  10.098  1.00 27.54    -0.059 NA
BRANCH  23  24
HETATM   24  C6    D T1201       3.348   4.202  10.297  1.00 28.50     0.100 A 
HETATM   25  C11   D T1201       3.835   3.949  11.575  1.00 28.34     0.021 A 
HETATM   26  C10   D T1201       5.192   3.796  11.793  1.00 24.65     0.018 A 
HETATM   27  C9    D T1201       6.090   3.905  10.733  1.00 32.26     0.056 A 
HETATM   28  C8    D T1201       5.616   4.152   9.440  1.00 24.70     0.018 A 
HETATM   29  C7    D T1201       4.247   4.301   9.231  1.00 27.68     0.021 A 
BRANCH  27  30
HETATM   30  N5    D T1201       7.454   3.716  11.014  1.00 35.69    -0.344 N 
HETATM   31  C15   D T1201       8.480   4.445  10.231  1.00 37.46     0.137 C 
HETATM   32  C14   D T1201       9.470   5.250  11.054  1.00 37.22     0.274 C 
HETATM   33  N6    D T1201      10.099   4.352  12.028  1.00 55.55     0.143 N 
HETATM   34  C16   D T1201      11.116   5.107  12.776  1.00 64.64     0.286 C 
HETATM   35  C13   D T1201       9.063   3.847  12.947  1.00 53.32     0.274 C 
HETATM   36  C12   D T1201       8.013   3.020  12.200  1.00 47.69     0.137 C 
ENDBRANCH  27  30
ENDBRANCH  23  24
ENDBRANCH   3  23
TORSDOF 8
ENDMDL
MODEL 7
REMARK VINA RESULT:    -7.434      3.128      7.812
REMARK INTER + INTRA:         -12.732
REMARK INTER:                 -12.064
REMARK INTRA:                  -0.668
REMARK UNBOUND:                -1.821
REMARK  8 active torsions:
REMARK  status: ('A' for Active; 'I' for Inactive)
REMARK    1  A    between atoms: S1_2  and  N7_4 
REMARK    2  A    between atoms: S1_2  and  C21_9 
REMARK    3  A    between atoms: N7_4  and  C23_5 
REMARK    4  A    between atoms: C17_14  and  N1_15 
REMARK    5  A    between atoms: N1_15  and  C1_16 
REMARK    6  A    between atoms: C4_18  and  N4_23 
REMARK    7  A    between atoms: N4_23  and  C6_24 
REMARK    8  A    between atoms: C9_27  and  N5_30 
ROOT
HETATM    1  C1    D T1201       1.380   6.959   7.127  1.00 25.50     0.178 A 
HETATM    2  N3    D T1201       1.941   6.235   8.109  1.00 24.51    -0.041 NA
HETATM    3  C4    D T1201       1.218   5.327   8.768  1.00 26.00     0.751 A 
HETATM    4  N2    D T1201      -0.072   5.110   8.477  1.00 27.09    -0.058 NA
HETATM    5  C3    D T1201      -0.651   5.813   7.501  1.00 26.64     0.117 A 
HETATM    6  C2    D T1201       0.048   6.774   6.786  1.00 22.40     0.034 A 
HETATM    7  C5    D T1201      -0.640   7.546   5.686  1.00 20.91     0.036 C 
ENDROOT
BRANCH   1   8
HETATM    8  N1    D T1201       2.168   7.863   6.497  1.00 26.87    -0.227 NA
BRANCH   8   9
HETATM    9  C17   D T1201       3.396   7.764   5.920  1.00 26.69     0.084 A 
HETATM   10  C18   D T1201       4.284   6.724   6.207  1.00 27.53     0.019 A 
HETATM   11  C19   D T1201       5.530   6.650   5.572  1.00 30.18     0.002 A 
HETATM   12  C20   D T1201       5.879   7.618   4.629  1.00 27.75     0.013 A 
HETATM   13  C21   D T1201       4.980   8.651   4.350  1.00 29.98     0.106 A 
HETATM   14  C22   D T1201       3.750   8.723   4.984  1.00 25.75     0.032 A 
BRANCH  13  15
HETATM   15  S1    D T1201       5.320   9.901   3.134  1.00 33.88     0.281 S 
HETATM   16  O2    D T1201       6.342   9.375   2.286  1.00 32.26    -0.199 OA
HETATM   17  O1    D T1201       5.648  11.101   3.851  1.00 41.11    -0.199 OA
BRANCH  15  18
HETATM   18  N7    D T1201       3.862   9.952   2.154  1.00 34.20    -0.189 NA
BRANCH  18  19
HETATM   19  C23   D T1201       3.372  11.088   1.401  1.00 42.34     0.097 C 
HETATM   20  C26   D T1201       2.440  10.574   0.313  1.00 28.35     0.025 C 
HETATM   21  C25   D T1201       4.521  11.880   0.793  1.00 32.55     0.025 C 
HETATM   22  C24   D T1201       2.582  11.971   2.360  1.00 33.84     0.025 C 
ENDBRANCH  18  19
ENDBRANCH  15  18
ENDBRANCH  13  15
ENDBRANCH   8   9
ENDBRANCH   1   8
BRANCH   3  23
HETATM   23  N4    D T1201       1.792   4.593   9.766  1.00 27.54    -0.059 NA
BRANCH  23  24
HETATM   24  C6    D T1201       3.084   4.317  10.105  1.00 28.50     0.100 A 
HETATM   25  C11   D T1201       4.097   4.491   9.167  1.00 28.34     0.021 A 
HETATM   26  C10   D T1201       5.414   4.228   9.497  1.00 24.65     0.018 A 
HETATM   27  C9    D T1201       5.740   3.773  10.774  1.00 32.26     0.056 A 
HETATM   28  C8    D T1201       4.734   3.600  11.731  1.00 24.70     0.018 A 
HETATM   29  C7    D T1201       3.411   3.871  11.389  1.00 27.68     0.021 A 
BRANCH  27  30
HETATM   30  N5    D T1201       7.098   3.546  11.056  1.00 35.69    -0.344 N 
HETATM   31  C15   D T1201       8.132   4.446  10.492  1.00 37.46     0.137 C 
HETATM   32  C14   D T1201       9.077   5.061  11.510  1.00 37.22     0.274 C 
HETATM   33  N6    D T1201       9.694   3.978  12.281  1.00 55.55     0.143 N 
HETATM   34  C16   D T1201      10.668   4.562  13.216  1.00 64.64     0.286 C 
HETATM   35  C13   D T1201       8.640   3.266  13.026  1.00 53.32     0.274 C 
HETATM   36  C12   D T1201       7.633   2.611  12.076  1.00 47.69     0.137 C 
ENDBRANCH  27  30
ENDBRANCH  23  24
ENDBRANCH   3  23
TORSDOF 8
ENDMDL
MODEL 8
REMARK VINA RESULT:    -7.406      2.699      7.598
REMARK INTER + INTRA:         -12.691
REMARK INTER:                 -11.932
REMARK INTRA:                  -0.759
REMARK UNBOUND:                -1.821
REMARK  8 active torsions:
REMARK  status: ('A' for Active; 'I' for Inactive)
REMARK    1  A    between atoms: S1_2  and  N7_4 
REMARK    2  A    between atoms: S1_2  and  C21_9 
REMARK    3  A    between atoms: N7_4  and  C23_5 
REMARK    4  A    between atoms: C17_14  and  N1_15 
REMARK    5  A    between atoms: N1_15  and  C1_16 
REMARK    6  A    between atoms: C4_18  and  N4_23 
REMARK    7  A    between atoms: N4_23  and  C6_24 
REMARK    8  A    between atoms: C9_27  and  N5_30 
ROOT
HETATM    1  C1    D T1201       1.568   6.465   7.950  1.00 25.50     0.178 A 
HETATM    2  N3    D T1201       2.298   5.728   8.802  1.00 24.51    -0.041 NA
HETATM    3  C4    D T1201       1.744   4.690   9.434  1.00 26.00     0.751 A 
HETATM    4  N2    D T1201       0.461   4.355   9.243  1.00 27.09    -0.058 NA
HETATM    5  C3    D T1201      -0.284   5.070   8.396  1.00 26.64     0.117 A 
HETATM    6  C2    D T1201       0.235   6.161   7.716  1.00 22.40     0.034 A 
HETATM    7  C5    D T1201      -0.637   6.943   6.764  1.00 20.91     0.036 C 
ENDROOT
BRANCH   1   8
HETATM    8  N1    D T1201       2.190   7.503   7.342  1.00 26.87    -0.227 NA
BRANCH   8   9
HETATM    9  C17   D T1201       3.189   7.560   6.420  1.00 26.69     0.084 A 
HETATM   10  C18   D T1201       4.306   6.722   6.462  1.00 27.53     0.019 A 
HETATM   11  C19   D T1201       5.299   6.801   5.479  1.00 30.18     0.002 A 
HETATM   12  C20   D T1201       5.162   7.716   4.434  1.00 27.75     0.013 A 
HETATM   13  C21   D T1201       4.038   8.546   4.403  1.00 29.98     0.106 A 
HETATM   14  C22   D T1201       3.059   8.468   5.380  1.00 25.75     0.032 A 
BRANCH  13  15
HETATM   15  S1    D T1201       3.757   9.710   3.090  1.00 33.88     0.281 S 
HETATM   16  O2    D T1201       3.494  10.968   3.712  1.00 32.26    -0.199 OA
HETATM   17  O1    D T1201       2.702   9.173   2.276  1.00 41.11    -0.199 OA
BRANCH  15  18
HETATM   18  N7    D T1201       5.328   9.874   2.320  1.00 34.20    -0.189 NA
BRANCH  18  19
HETATM   19  C23   D T1201       5.724  10.908   1.386  1.00 42.34     0.097 C 
HETATM   20  C26   D T1201       6.150  12.134   2.180  1.00 28.35     0.025 C 
HETATM   21  C25   D T1201       4.586  11.252   0.436  1.00 32.55     0.025 C 
HETATM   22  C24   D T1201       6.919  10.383   0.598  1.00 33.84     0.025 C 
ENDBRANCH  18  19
ENDBRANCH  15  18
ENDBRANCH  13  15
ENDBRANCH   8   9
ENDBRANCH   1   8
BRANCH   3  23
HETATM   23  N4    D T1201       2.490   3.943  10.299  1.00 27.54    -0.059 NA
BRANCH  23  24
HETATM   24  C6    D T1201       3.820   3.897  10.595  1.00 28.50     0.100 A 
HETATM   25  C11   D T1201       4.759   3.945   9.569  1.00 28.34     0.021 A 
HETATM   26  C10   D T1201       6.112   3.912   9.852  1.00 24.65     0.018 A 
HETATM   27  C9    D T1201       6.551   3.818  11.171  1.00 32.26     0.056 A 
HETATM   28  C8    D T1201       5.621   3.776  12.215  1.00 24.70     0.018 A 
HETATM   29  C7    D T1201       4.260   3.813  11.920  1.00 27.68     0.021 A 
BRANCH  27  30
HETATM   30  N5    D T1201       7.939   3.813  11.395  1.00 35.69    -0.344 N 
HETATM   31  C15   D T1201       8.543   2.783  12.273  1.00 37.46     0.137 C 
HETATM   32  C14   D T1201       9.672   1.983  11.648  1.00 37.22     0.274 C 
HETATM   33  N6    D T1201      10.691   2.920  11.167  1.00 55.55     0.143 N 
HETATM   34  C16   D T1201      11.823   2.149  10.629  1.00 64.64     0.286 C 
HETATM   35  C13   D T1201      10.102   3.760  10.108  1.00 53.32     0.274 C 
HETATM   36  C12   D T1201       8.947   4.607  10.649  1.00 47.69     0.137 C 
ENDBRANCH  27  30
ENDBRANCH  23  24
ENDBRANCH   3  23
TORSDOF 8
ENDMDL
MODEL 9
REMARK VINA RESULT:    -7.312      4.212      6.619
REMARK INTER + INTRA:         -12.553
REMARK INTER:                 -11.280
REMARK INTRA:                  -1.272
REMARK UNBOUND:                -1.821
REMARK  8 active torsions:
REMARK  status: ('A' for Active; 'I' for Inactive)
REMARK    1  A    between atoms: S1_2  and  N7_4 
REMARK    2  A    between atoms: S1_2  and  C21_9 
REMARK    3  A    between atoms: N7_4  and  C23_5 
REMARK    4  A    between atoms: C17_14  and  N1_15 
REMARK    5  A    between atoms: N1_15  and  C1_16 
REMARK    6  A    between atoms: C4_18  and  N4_23 
REMARK    7  A    between atoms: N4_23  and  C6_24 
REMARK    8  A    between atoms: C9_27  and  N5_30 
ROOT
HETATM    1  C1    D T1201       3.603   4.570   9.715  1.00 25.50     0.178 A 
HETATM    2  N3    D T1201       4.059   5.692   9.136  1.00 24.51    -0.041 NA
HETATM    3  C4    D T1201       3.200   6.615   8.695  1.00 26.00     0.751 A 
HETATM    4  N2    D T1201       1.876   6.455   8.811  1.00 27.09    -0.058 NA
HETATM    5  C3    D T1201       1.398   5.349   9.388  1.00 26.64     0.117 A 
HETATM    6  C2    D T1201       2.240   4.354   9.860  1.00 22.40     0.034 A 
HETATM    7  C5    D T1201       1.661   3.121  10.510  1.00 20.91     0.036 C 
ENDROOT
BRANCH   1   8
HETATM    8  N1    D T1201       4.524   3.675  10.142  1.00 26.87    -0.227 NA
BRANCH   8   9
HETATM    9  C17   D T1201       5.368   3.667  11.209  1.00 26.69     0.084 A 
HETATM   10  C18   D T1201       4.923   3.511  12.525  1.00 27.53     0.019 A 
HETATM   11  C19   D T1201       5.830   3.485  13.590  1.00 30.18     0.002 A 
HETATM   12  C20   D T1201       7.197   3.601  13.333  1.00 27.75     0.013 A 
HETATM   13  C21   D T1201       7.628   3.753  12.013  1.00 29.98     0.106 A 
HETATM   14  C22   D T1201       6.727   3.782  10.961  1.00 25.75     0.032 A 
BRANCH  13  15
HETATM   15  S1    D T1201       9.349   3.863  11.586  1.00 33.88     0.281 S 
HETATM   16  O2    D T1201       9.877   2.539  11.684  1.00 32.26    -0.199 OA
HETATM   17  O1    D T1201       9.933   4.844  12.457  1.00 41.11    -0.199 OA
BRANCH  15  18
HETATM   18  N7    D T1201       9.341   4.250   9.871  1.00 34.20    -0.189 NA
BRANCH  18  19
HETATM   19  C23   D T1201      10.460   4.743   9.095  1.00 42.34     0.097 C 
HETATM   20  C26   D T1201      10.225   4.384   7.635  1.00 28.35     0.025 C 
HETATM   21  C25   D T1201      11.772   4.149   9.589  1.00 32.55     0.025 C 
HETATM   22  C24   D T1201      10.489   6.260   9.239  1.00 33.84     0.025 C 
ENDBRANCH  18  19
ENDBRANCH  15  18
ENDBRANCH  13  15
ENDBRANCH   8   9
ENDBRANCH   1   8
BRANCH   3  23
HETATM   23  N4    D T1201       3.669   7.755   8.108  1.00 27.54    -0.059 NA
BRANCH  23  24
HETATM   24  C6    D T1201       3.760   8.177   6.814  1.00 28.50     0.100 A 
HETATM   25  C11   D T1201       4.534   7.462   5.906  1.00 28.34     0.021 A 
HETATM   26  C10   D T1201       4.627   7.869   4.588  1.00 24.65     0.018 A 
HETATM   27  C9    D T1201       3.953   9.010   4.157  1.00 32.26     0.056 A 
HETATM   28  C8    D T1201       3.164   9.737   5.055  1.00 24.70     0.018 A 
HETATM   29  C7    D T1201       3.075   9.316   6.380  1.00 27.68     0.021 A 
BRANCH  27  30
HETATM   30  N5    D T1201       4.068   9.359   2.800  1.00 35.69    -0.344 N 
HETATM   31  C15   D T1201       2.891   9.884   2.068  1.00 37.46     0.137 C 
HETATM   32  C14   D T1201       3.105  11.218   1.374  1.00 37.22     0.274 C 
HETATM   33  N6    D T1201       4.261  11.095   0.481  1.00 55.55     0.143 N 
HETATM   34  C16   D T1201       4.426  12.360  -0.252  1.00 64.64     0.286 C 
HETATM   35  C13   D T1201       5.460  10.818   1.292  1.00 53.32     0.274 C 
HETATM   36  C12   D T1201       5.334   9.485   2.035  1.00 47.69     0.137 C 
ENDBRANCH  27  30
ENDBRANCH  23  24
ENDBRANCH   3  23
TORSDOF 8
ENDMDL
