MODEL 1
REMARK VINA RESULT:    -7.244      0.000      0.000
REMARK INTER + INTRA:         -10.386
REMARK INTER:                  -8.515
REMARK INTRA:                  -1.871
REMARK UNBOUND:                -1.871
REMARK  3 active torsions:
REMARK  status: ('A' for Active; 'I' for Inactive)
REMARK    1  A    between atoms: N8_3  and  C19_4 
REMARK    2  A    between atoms: C16_9  and  C24_10 
REMARK    3  A    between atoms: C33_22  and  C37_26 
ROOT
HETATM    1  O5    D T2601       0.328  -2.190  15.858  1.00 38.51    -0.267 OA
HETATM    2  C27   D T2601       1.060  -2.164  16.868  1.00 37.76     0.265 A 
HETATM    3  N8    D T2601       0.491  -1.873  18.127  1.00 37.58    -0.275 N 
HETATM    4  C32   D T2601       2.412  -2.431  16.721  1.00 37.69     0.061 A 
HETATM    5  C31   D T2601       3.237  -2.406  17.829  1.00 37.72     0.008 A 
HETATM    6  C26   D T2601       2.710  -2.110  19.080  1.00 37.94     0.036 A 
HETATM    7  C34   D T2601       3.601  -2.099  20.145  1.00 38.22     0.100 A 
HETATM    8  N9    D T2601       3.171  -1.829  21.381  1.00 38.06    -0.244 NA
HETATM    9  C23   D T2601       1.344  -1.829  19.280  1.00 37.68     0.070 A 
HETATM   10  C25   D T2601       0.924  -1.542  20.603  1.00 37.45     0.034 A 
HETATM   11  C30   D T2601      -0.393  -1.246  20.967  1.00 37.25     0.003 A 
HETATM   12  C33   D T2601      -0.765  -0.970  22.287  1.00 37.10     0.002 A 
HETATM   13  C36   D T2601       0.201  -0.991  23.271  1.00 37.07     0.002 A 
HETATM   14  C35   D T2601       1.511  -1.279  22.936  1.00 37.46     0.019 A 
HETATM   15  C29   D T2601       1.872  -1.553  21.624  1.00 37.59     0.083 A 
ENDROOT
BRANCH   3  16
HETATM   16  C19   D T2601      -0.898  -1.573  18.131  1.00 37.36     0.067 A 
HETATM   17  C21   D T2601      -1.457  -0.317  17.890  1.00 37.26     0.018 A 
HETATM   18  C18   D T2601      -2.838  -0.131  17.933  1.00 36.83     0.001 A 
HETATM   19  C15   D T2601      -3.664  -1.205  18.242  1.00 36.71     0.004 A 
HETATM   20  C16   D T2601      -3.119  -2.455  18.506  1.00 36.90     0.073 A 
HETATM   21  C20   D T2601      -1.745  -2.626  18.458  1.00 37.06     0.021 A 
BRANCH  20  22
HETATM   22  C24   D T2601      -3.992  -3.631  18.838  1.00 37.44     0.419 C 
HETATM   23  F3    D T2601      -5.153  -3.487  18.226  1.00 37.54    -0.166 F 
HETATM   24  F2    D T2601      -4.196  -3.713  20.144  1.00 37.84    -0.166 F 
HETATM   25  F1    D T2601      -3.413  -4.744  18.418  1.00 37.70    -0.166 F 
ENDBRANCH  20  22
ENDBRANCH   3  16
BRANCH  12  26
HETATM   26  C37   D T2601      -2.082  -0.680  22.648  1.00 37.09     0.019 A 
HETATM   27  C39   D T2601      -2.356   0.381  23.512  1.00 36.88     0.101 A 
HETATM   28  N10   D T2601      -3.616   0.667  23.859  1.00 36.63    -0.224 NA
HETATM   29  C41   D T2601      -4.657  -0.053  23.386  1.00 36.47     0.184 A 
HETATM   30  C40   D T2601      -4.451  -1.116  22.528  1.00 36.38     0.041 A 
HETATM   31  N43   D T2601      -5.915   0.264  23.758  1.00 36.94    -0.127 N 
HETATM   32  C38   D T2601      -3.151  -1.429  22.157  1.00 36.91     0.005 A 
ENDBRANCH  12  26
TORSDOF 3
ENDMDL
MODEL 2
REMARK VINA RESULT:    -6.765      7.890     11.075
REMARK INTER + INTRA:          -9.822
REMARK INTER:                  -7.890
REMARK INTRA:                  -1.932
REMARK UNBOUND:                -1.871
REMARK  3 active torsions:
REMARK  status: ('A' for Active; 'I' for Inactive)
REMARK    1  A    between atoms: N8_3  and  C19_4 
REMARK    2  A    between atoms: C16_9  and  C24_10 
REMARK    3  A    between atoms: C33_22  and  C37_26 
ROOT
HETATM    1  O5    D T2601       6.422   3.236   9.255  1.00 38.51    -0.267 OA
HETATM    2  C27   D T2601       5.280   3.622   9.576  1.00 37.76     0.265 A 
HETATM    3  N8    D T2601       4.532   2.869  10.507  1.00 37.58    -0.275 N 
HETATM    4  C32   D T2601       4.784   4.787   9.012  1.00 37.69     0.061 A 
HETATM    5  C31   D T2601       3.520   5.228   9.357  1.00 37.72     0.008 A 
HETATM    6  C26   D T2601       2.754   4.502  10.260  1.00 37.94     0.036 A 
HETATM    7  C34   D T2601       1.494   5.004  10.554  1.00 38.22     0.100 A 
HETATM    8  N9    D T2601       0.698   4.366  11.418  1.00 38.06    -0.244 NA
HETATM    9  C23   D T2601       3.213   3.310  10.858  1.00 37.68     0.070 A 
HETATM   10  C25   D T2601       2.341   2.658  11.765  1.00 37.45     0.034 A 
HETATM   11  C30   D T2601       2.647   1.472  12.440  1.00 37.25     0.003 A 
HETATM   12  C33   D T2601       1.756   0.862  13.330  1.00 37.10     0.002 A 
HETATM   13  C36   D T2601       0.528   1.450  13.554  1.00 37.07     0.002 A 
HETATM   14  C35   D T2601       0.202   2.622  12.896  1.00 37.46     0.019 A 
HETATM   15  C29   D T2601       1.092   3.222  12.017  1.00 37.59     0.083 A 
ENDROOT
BRANCH   3  16
HETATM   16  C19   D T2601       5.139   1.670  10.973  1.00 37.36     0.067 A 
HETATM   17  C21   D T2601       5.942   1.555  12.109  1.00 37.26     0.018 A 
HETATM   18  C18   D T2601       6.500   0.329  12.466  1.00 36.83     0.001 A 
HETATM   19  C15   D T2601       6.271  -0.786  11.669  1.00 36.71     0.004 A 
HETATM   20  C16   D T2601       5.491  -0.680  10.524  1.00 36.90     0.073 A 
HETATM   21  C20   D T2601       4.941   0.544  10.181  1.00 37.06     0.021 A 
BRANCH  20  22
HETATM   22  C24   D T2601       5.227  -1.873   9.649  1.00 37.44     0.419 C 
HETATM   23  F3    D T2601       4.226  -2.564  10.162  1.00 37.54    -0.166 F 
HETATM   24  F2    D T2601       6.297  -2.647   9.571  1.00 37.84    -0.166 F 
HETATM   25  F1    D T2601       4.896  -1.464   8.434  1.00 37.70    -0.166 F 
ENDBRANCH  20  22
ENDBRANCH   3  16
BRANCH  12  26
HETATM   26  C37   D T2601       2.066  -0.319  14.007  1.00 37.09     0.019 A 
HETATM   27  C39   D T2601       1.166  -0.858  14.926  1.00 36.88     0.101 A 
HETATM   28  N10   D T2601       1.455  -1.991  15.576  1.00 36.63    -0.224 NA
HETATM   29  C41   D T2601       2.616  -2.649  15.363  1.00 36.47     0.184 A 
HETATM   30  C40   D T2601       3.549  -2.165  14.465  1.00 36.38     0.041 A 
HETATM   31  N43   D T2601       2.874  -3.789  16.036  1.00 36.94    -0.127 N 
HETATM   32  C38   D T2601       3.268  -0.990  13.782  1.00 36.91     0.005 A 
ENDBRANCH  12  26
TORSDOF 3
ENDMDL
MODEL 3
REMARK VINA RESULT:    -6.726      1.709      2.147
REMARK INTER + INTRA:          -9.776
REMARK INTER:                  -7.831
REMARK INTRA:                  -1.945
REMARK UNBOUND:                -1.871
REMARK  3 active torsions:
REMARK  status: ('A' for Active; 'I' for Inactive)
REMARK    1  A    between atoms: N8_3  and  C19_4 
REMARK    2  A    between atoms: C16_9  and  C24_10 
REMARK    3  A    between atoms: C33_22  and  C37_26 
ROOT
HETATM    1  O5    D T2601       1.404  -0.285  14.540  1.00 38.51    -0.267 OA
HETATM    2  C27   D T2601       2.083  -0.724  15.490  1.00 37.76     0.265 A 
HETATM    3  N8    D T2601       1.476  -0.895  16.753  1.00 37.58    -0.275 N 
HETATM    4  C32   D T2601       3.415  -1.040  15.271  1.00 37.69     0.061 A 
HETATM    5  C31   D T2601       4.181  -1.526  16.313  1.00 37.72     0.008 A 
HETATM    6  C26   D T2601       3.616  -1.693  17.571  1.00 37.94     0.036 A 
HETATM    7  C34   D T2601       4.449  -2.182  18.569  1.00 38.22     0.100 A 
HETATM    8  N9    D T2601       3.978  -2.375  19.805  1.00 38.06    -0.244 NA
HETATM    9  C23   D T2601       2.268  -1.384  17.844  1.00 37.68     0.070 A 
HETATM   10  C25   D T2601       1.805  -1.597  19.167  1.00 37.45     0.034 A 
HETATM   11  C30   D T2601       0.500  -1.343  19.597  1.00 37.25     0.003 A 
HETATM   12  C33   D T2601       0.083  -1.570  20.914  1.00 37.10     0.002 A 
HETATM   13  C36   D T2601       0.993  -2.064  21.825  1.00 37.07     0.002 A 
HETATM   14  C35   D T2601       2.291  -2.321  21.425  1.00 37.46     0.019 A 
HETATM   15  C29   D T2601       2.695  -2.095  20.116  1.00 37.59     0.083 A 
ENDROOT
BRANCH   3  16
HETATM   16  C19   D T2601       0.116  -0.490  16.853  1.00 37.36     0.067 A 
HETATM   17  C21   D T2601      -0.326   0.782  17.222  1.00 37.26     0.018 A 
HETATM   18  C18   D T2601      -1.689   1.067  17.302  1.00 36.83     0.001 A 
HETATM   19  C15   D T2601      -2.614   0.066  17.032  1.00 36.71     0.004 A 
HETATM   20  C16   D T2601      -2.187  -1.209  16.685  1.00 36.90     0.073 A 
HETATM   21  C20   D T2601      -0.830  -1.479  16.608  1.00 37.06     0.021 A 
BRANCH  20  22
HETATM   22  C24   D T2601      -3.169  -2.305  16.386  1.00 37.44     0.419 C 
HETATM   23  F3    D T2601      -2.966  -2.736  15.154  1.00 37.54    -0.166 F 
HETATM   24  F2    D T2601      -4.413  -1.866  16.494  1.00 37.84    -0.166 F 
HETATM   25  F1    D T2601      -2.986  -3.306  17.233  1.00 37.70    -0.166 F 
ENDBRANCH  20  22
ENDBRANCH   3  16
BRANCH  12  26
HETATM   26  C37   D T2601      -1.223  -1.320  21.339  1.00 37.09     0.019 A 
HETATM   27  C39   D T2601      -1.468  -0.914  22.650  1.00 36.88     0.101 A 
HETATM   28  N10   D T2601      -2.718  -0.670  23.064  1.00 36.63    -0.224 NA
HETATM   29  C41   D T2601      -3.773  -0.803  22.231  1.00 36.47     0.184 A 
HETATM   30  C40   D T2601      -3.595  -1.202  20.920  1.00 36.38     0.041 A 
HETATM   31  N43   D T2601      -5.019  -0.548  22.683  1.00 36.94    -0.127 N 
HETATM   32  C38   D T2601      -2.307  -1.462  20.473  1.00 36.91     0.005 A 
ENDBRANCH  12  26
TORSDOF 3
ENDMDL
MODEL 4
REMARK VINA RESULT:    -6.714      3.431      6.176
REMARK INTER + INTRA:          -9.762
REMARK INTER:                  -7.851
REMARK INTRA:                  -1.910
REMARK UNBOUND:                -1.871
REMARK  3 active torsions:
REMARK  status: ('A' for Active; 'I' for Inactive)
REMARK    1  A    between atoms: N8_3  and  C19_4 
REMARK    2  A    between atoms: C16_9  and  C24_10 
REMARK    3  A    between atoms: C33_22  and  C37_26 
ROOT
HETATM    1  O5    D T2601      -0.454  -1.893  21.456  1.00 38.51    -0.267 OA
HETATM    2  C27   D T2601      -1.170  -0.916  21.753  1.00 37.76     0.265 A 
HETATM    3  N8    D T2601      -2.370  -0.697  21.041  1.00 37.58    -0.275 N 
HETATM    4  C32   D T2601      -0.768  -0.080  22.782  1.00 37.69     0.061 A 
HETATM    5  C31   D T2601      -1.550   1.008  23.123  1.00 37.72     0.008 A 
HETATM    6  C26   D T2601      -2.729   1.259  22.432  1.00 37.94     0.036 A 
HETATM    7  C34   D T2601      -3.459   2.371  22.828  1.00 38.22     0.100 A 
HETATM    8  N9    D T2601      -4.608   2.677  22.216  1.00 38.06    -0.244 NA
HETATM    9  C23   D T2601      -3.179   0.439  21.377  1.00 37.68     0.070 A 
HETATM   10  C25   D T2601      -4.398   0.796  20.748  1.00 37.45     0.034 A 
HETATM   11  C30   D T2601      -4.978   0.087  19.692  1.00 37.25     0.003 A 
HETATM   12  C33   D T2601      -6.186   0.474  19.100  1.00 37.10     0.002 A 
HETATM   13  C36   D T2601      -6.833   1.596  19.576  1.00 37.07     0.002 A 
HETATM   14  C35   D T2601      -6.278   2.315  20.618  1.00 37.46     0.019 A 
HETATM   15  C29   D T2601      -5.081   1.923  21.201  1.00 37.59     0.083 A 
ENDROOT
BRANCH   3  16
HETATM   16  C19   D T2601      -2.641  -1.602  19.979  1.00 37.36     0.067 A 
HETATM   17  C21   D T2601      -2.123  -1.515  18.685  1.00 37.26     0.018 A 
HETATM   18  C18   D T2601      -2.468  -2.454  17.714  1.00 36.83     0.001 A 
HETATM   19  C15   D T2601      -3.355  -3.474  18.034  1.00 36.71     0.004 A 
HETATM   20  C16   D T2601      -3.895  -3.560  19.311  1.00 36.90     0.073 A 
HETATM   21  C20   D T2601      -3.542  -2.622  20.267  1.00 37.06     0.021 A 
BRANCH  20  22
HETATM   22  C24   D T2601      -4.852  -4.657  19.680  1.00 37.44     0.419 C 
HETATM   23  F3    D T2601      -5.221  -4.496  20.938  1.00 37.54    -0.166 F 
HETATM   24  F2    D T2601      -4.285  -5.845  19.541  1.00 37.84    -0.166 F 
HETATM   25  F1    D T2601      -5.921  -4.591  18.901  1.00 37.70    -0.166 F 
ENDBRANCH  20  22
ENDBRANCH   3  16
BRANCH  12  26
HETATM   26  C37   D T2601      -6.766  -0.239  18.049  1.00 37.09     0.019 A 
HETATM   27  C39   D T2601      -8.110  -0.046  17.729  1.00 36.88     0.101 A 
HETATM   28  N10   D T2601      -8.672  -0.724  16.720  1.00 36.63    -0.224 NA
HETATM   29  C41   D T2601      -7.962  -1.605  15.982  1.00 36.47     0.184 A 
HETATM   30  C40   D T2601      -6.626  -1.839  16.251  1.00 36.38     0.041 A 
HETATM   31  N43   D T2601      -8.562  -2.270  14.972  1.00 36.94    -0.127 N 
HETATM   32  C38   D T2601      -6.026  -1.148  17.293  1.00 36.91     0.005 A 
ENDBRANCH  12  26
TORSDOF 3
ENDMDL
MODEL 5
REMARK VINA RESULT:    -6.567      3.445      7.554
REMARK INTER + INTRA:          -9.589
REMARK INTER:                  -7.639
REMARK INTRA:                  -1.950
REMARK UNBOUND:                -1.871
REMARK  3 active torsions:
REMARK  status: ('A' for Active; 'I' for Inactive)
REMARK    1  A    between atoms: N8_3  and  C19_4 
REMARK    2  A    between atoms: C16_9  and  C24_10 
REMARK    3  A    between atoms: C33_22  and  C37_26 
ROOT
HETATM    1  O5    D T2601      -0.215  -0.870  23.033  1.00 38.51    -0.267 OA
HETATM    2  C27   D T2601      -1.104  -1.161  22.208  1.00 37.76     0.265 A 
HETATM    3  N8    D T2601      -0.774  -1.253  20.838  1.00 37.58    -0.275 N 
HETATM    4  C32   D T2601      -2.391  -1.394  22.667  1.00 37.69     0.061 A 
HETATM    5  C31   D T2601      -3.389  -1.717  21.766  1.00 37.72     0.008 A 
HETATM    6  C26   D T2601      -3.099  -1.802  20.410  1.00 37.94     0.036 A 
HETATM    7  C34   D T2601      -4.152  -2.127  19.567  1.00 38.22     0.100 A 
HETATM    8  N9    D T2601      -3.953  -2.234  18.249  1.00 38.06    -0.244 NA
HETATM    9  C23   D T2601      -1.807  -1.572  19.895  1.00 37.68     0.070 A 
HETATM   10  C25   D T2601      -1.633  -1.689  18.493  1.00 37.45     0.034 A 
HETATM   11  C30   D T2601      -0.419  -1.494  17.829  1.00 37.25     0.003 A 
HETATM   12  C33   D T2601      -0.291  -1.622  16.441  1.00 37.10     0.002 A 
HETATM   13  C36   D T2601      -1.404  -1.955  15.697  1.00 37.07     0.002 A 
HETATM   14  C35   D T2601      -2.617  -2.150  16.330  1.00 37.46     0.019 A 
HETATM   15  C29   D T2601      -2.735  -2.023  17.708  1.00 37.59     0.083 A 
ENDROOT
BRANCH   3  16
HETATM   16  C19   D T2601       0.571  -0.945  20.498  1.00 37.36     0.067 A 
HETATM   17  C21   D T2601       1.069   0.332  20.234  1.00 37.26     0.018 A 
HETATM   18  C18   D T2601       2.408   0.519  19.893  1.00 36.83     0.001 A 
HETATM   19  C15   D T2601       3.249  -0.582  19.796  1.00 36.71     0.004 A 
HETATM   20  C16   D T2601       2.761  -1.861  20.034  1.00 36.90     0.073 A 
HETATM   21  C20   D T2601       1.429  -2.033  20.373  1.00 37.06     0.021 A 
BRANCH  20  22
HETATM   22  C24   D T2601       3.653  -3.066  19.938  1.00 37.44     0.419 C 
HETATM   23  F3    D T2601       3.388  -3.703  18.813  1.00 37.54    -0.166 F 
HETATM   24  F2    D T2601       3.453  -3.883  20.960  1.00 37.84    -0.166 F 
HETATM   25  F1    D T2601       4.919  -2.679  19.932  1.00 37.70    -0.166 F 
ENDBRANCH  20  22
ENDBRANCH   3  16
BRANCH  12  26
HETATM   26  C37   D T2601       0.925  -1.433  15.782  1.00 37.09     0.019 A 
HETATM   27  C39   D T2601       0.964  -0.750  14.566  1.00 36.88     0.101 A 
HETATM   28  N10   D T2601       2.126  -0.562  13.930  1.00 36.63    -0.224 NA
HETATM   29  C41   D T2601       3.291  -1.018  14.440  1.00 36.47     0.184 A 
HETATM   30  C40   D T2601       3.317  -1.702  15.641  1.00 36.38     0.041 A 
HETATM   31  N43   D T2601       4.444  -0.810  13.771  1.00 36.94    -0.127 N 
HETATM   32  C38   D T2601       2.122  -1.909  16.316  1.00 36.91     0.005 A 
ENDBRANCH  12  26
TORSDOF 3
ENDMDL
MODEL 6
REMARK VINA RESULT:    -6.295     13.197     16.568
REMARK INTER + INTRA:          -9.269
REMARK INTER:                  -7.338
REMARK INTRA:                  -1.931
REMARK UNBOUND:                -1.871
REMARK  3 active torsions:
REMARK  status: ('A' for Active; 'I' for Inactive)
REMARK    1  A    between atoms: N8_3  and  C19_4 
REMARK    2  A    between atoms: C16_9  and  C24_10 
REMARK    3  A    between atoms: C33_22  and  C37_26 
ROOT
HETATM    1  O5    D T2601     -12.741  -3.661   8.816  1.00 38.51    -0.267 OA
HETATM    2  C27   D T2601     -13.334  -4.754   8.715  1.00 37.76     0.265 A 
HETATM    3  N8    D T2601     -13.794  -5.402   9.882  1.00 37.58    -0.275 N 
HETATM    4  C32   D T2601     -13.531  -5.294   7.453  1.00 37.69     0.061 A 
HETATM    5  C31   D T2601     -14.185  -6.505   7.324  1.00 37.72     0.008 A 
HETATM    6  C26   D T2601     -14.638  -7.173   8.455  1.00 37.94     0.036 A 
HETATM    7  C34   D T2601     -15.282  -8.385   8.246  1.00 38.22     0.100 A 
HETATM    8  N9    D T2601     -15.751  -9.086   9.283  1.00 38.06    -0.244 NA
HETATM    9  C23   D T2601     -14.460  -6.666   9.758  1.00 37.68     0.070 A 
HETATM   10  C25   D T2601     -14.966  -7.438  10.833  1.00 37.45     0.034 A 
HETATM   11  C30   D T2601     -14.872  -7.074  12.180  1.00 37.25     0.003 A 
HETATM   12  C33   D T2601     -15.388  -7.867  13.212  1.00 37.10     0.002 A 
HETATM   13  C36   D T2601     -16.016  -9.053  12.892  1.00 37.07     0.002 A 
HETATM   14  C35   D T2601     -16.119  -9.436  11.567  1.00 37.46     0.019 A 
HETATM   15  C29   D T2601     -15.606  -8.643  10.550  1.00 37.59     0.083 A 
ENDROOT
BRANCH   3  16
HETATM   16  C19   D T2601     -13.486  -4.762  11.114  1.00 37.36     0.067 A 
HETATM   17  C21   D T2601     -14.191  -3.694  11.673  1.00 37.26     0.018 A 
HETATM   18  C18   D T2601     -13.791  -3.132  12.884  1.00 36.83     0.001 A 
HETATM   19  C15   D T2601     -12.665  -3.627  13.529  1.00 36.71     0.004 A 
HETATM   20  C16   D T2601     -11.942  -4.675  12.973  1.00 36.90     0.073 A 
HETATM   21  C20   D T2601     -12.351  -5.226  11.770  1.00 37.06     0.021 A 
BRANCH  20  22
HETATM   22  C24   D T2601     -10.723  -5.228  13.655  1.00 37.44     0.419 C 
HETATM   23  F3    D T2601     -11.077  -5.719  14.828  1.00 37.54    -0.166 F 
HETATM   24  F2    D T2601      -9.813  -4.284  13.834  1.00 37.84    -0.166 F 
HETATM   25  F1    D T2601     -10.205  -6.197  12.916  1.00 37.70    -0.166 F 
ENDBRANCH  20  22
ENDBRANCH   3  16
BRANCH  12  26
HETATM   26  C37   D T2601     -15.298  -7.497  14.555  1.00 37.09     0.019 A 
HETATM   27  C39   D T2601     -16.223  -7.982  15.479  1.00 36.88     0.101 A 
HETATM   28  N10   D T2601     -16.141  -7.635  16.769  1.00 36.63    -0.224 NA
HETATM   29  C41   D T2601     -15.165  -6.815  17.217  1.00 36.47     0.184 A 
HETATM   30  C40   D T2601     -14.219  -6.302  16.350  1.00 36.38     0.041 A 
HETATM   31  N43   D T2601     -15.113  -6.487  18.525  1.00 36.94    -0.127 N 
HETATM   32  C38   D T2601     -14.288  -6.649  15.008  1.00 36.91     0.005 A 
ENDBRANCH  12  26
TORSDOF 3
ENDMDL
MODEL 7
REMARK VINA RESULT:    -6.258      3.544      5.508
REMARK INTER + INTRA:          -9.226
REMARK INTER:                  -7.253
REMARK INTRA:                  -1.973
REMARK UNBOUND:                -1.871
REMARK  3 active torsions:
REMARK  status: ('A' for Active; 'I' for Inactive)
REMARK    1  A    between atoms: N8_3  and  C19_4 
REMARK    2  A    between atoms: C16_9  and  C24_10 
REMARK    3  A    between atoms: C33_22  and  C37_26 
ROOT
HETATM    1  O5    D T2601      -2.098  -1.239  17.311  1.00 38.51    -0.267 OA
HETATM    2  C27   D T2601      -2.156  -1.151  18.554  1.00 37.76     0.265 A 
HETATM    3  N8    D T2601      -3.318  -0.623  19.157  1.00 37.58    -0.275 N 
HETATM    4  C32   D T2601      -1.075  -1.584  19.306  1.00 37.69     0.061 A 
HETATM    5  C31   D T2601      -1.122  -1.493  20.685  1.00 37.72     0.008 A 
HETATM    6  C26   D T2601      -2.247  -0.966  21.307  1.00 37.94     0.036 A 
HETATM    7  C34   D T2601      -2.219  -0.902  22.694  1.00 38.22     0.100 A 
HETATM    8  N9    D T2601      -3.265  -0.412  23.367  1.00 38.06    -0.244 NA
HETATM    9  C23   D T2601      -3.369  -0.510  20.586  1.00 37.68     0.070 A 
HETATM   10  C25   D T2601      -4.457   0.007  21.333  1.00 37.45     0.034 A 
HETATM   11  C30   D T2601      -5.639   0.496  20.769  1.00 37.25     0.003 A 
HETATM   12  C33   D T2601      -6.692   0.997  21.544  1.00 37.10     0.002 A 
HETATM   13  C36   D T2601      -6.562   1.009  22.917  1.00 37.07     0.002 A 
HETATM   14  C35   D T2601      -5.401   0.533  23.498  1.00 37.46     0.019 A 
HETATM   15  C29   D T2601      -4.363   0.036  22.723  1.00 37.59     0.083 A 
ENDROOT
BRANCH   3  16
HETATM   16  C19   D T2601      -4.334  -0.173  18.269  1.00 37.36     0.067 A 
HETATM   17  C21   D T2601      -4.466   1.128  17.781  1.00 37.26     0.018 A 
HETATM   18  C18   D T2601      -5.513   1.464  16.923  1.00 36.83     0.001 A 
HETATM   19  C15   D T2601      -6.445   0.496  16.569  1.00 36.71     0.004 A 
HETATM   20  C16   D T2601      -6.337  -0.796  17.066  1.00 36.90     0.073 A 
HETATM   21  C20   D T2601      -5.292  -1.118  17.916  1.00 37.06     0.021 A 
BRANCH  20  22
HETATM   22  C24   D T2601      -7.331  -1.859  16.694  1.00 37.44     0.419 C 
HETATM   23  F3    D T2601      -8.502  -1.550  17.219  1.00 37.54    -0.166 F 
HETATM   24  F2    D T2601      -6.948  -3.042  17.148  1.00 37.84    -0.166 F 
HETATM   25  F1    D T2601      -7.445  -1.915  15.376  1.00 37.70    -0.166 F 
ENDBRANCH  20  22
ENDBRANCH   3  16
BRANCH  12  26
HETATM   26  C37   D T2601      -7.874   1.479  20.979  1.00 37.09     0.019 A 
HETATM   27  C39   D T2601      -8.723   2.298  21.722  1.00 36.88     0.101 A 
HETATM   28  N10   D T2601      -9.857   2.767  21.185  1.00 36.63    -0.224 NA
HETATM   29  C41   D T2601     -10.210   2.468  19.916  1.00 36.47     0.184 A 
HETATM   30  C40   D T2601      -9.410   1.661  19.129  1.00 36.38     0.041 A 
HETATM   31  N43   D T2601     -11.360   2.959  19.408  1.00 36.94    -0.127 N 
HETATM   32  C38   D T2601      -8.232   1.164  19.668  1.00 36.91     0.005 A 
ENDBRANCH  12  26
TORSDOF 3
ENDMDL
MODEL 8
REMARK VINA RESULT:    -6.229      7.019     10.717
REMARK INTER + INTRA:          -9.193
REMARK INTER:                  -7.273
REMARK INTRA:                  -1.920
REMARK UNBOUND:                -1.871
REMARK  3 active torsions:
REMARK  status: ('A' for Active; 'I' for Inactive)
REMARK    1  A    between atoms: N8_3  and  C19_4 
REMARK    2  A    between atoms: C16_9  and  C24_10 
REMARK    3  A    between atoms: C33_22  and  C37_26 
ROOT
HETATM    1  O5    D T2601      -0.855   3.589  14.516  1.00 38.51    -0.267 OA
HETATM    2  C27   D T2601      -0.542   2.435  14.871  1.00 37.76     0.265 A 
HETATM    3  N8    D T2601       0.615   1.834  14.330  1.00 37.58    -0.275 N 
HETATM    4  C32   D T2601      -1.340   1.781  15.798  1.00 37.69     0.061 A 
HETATM    5  C31   D T2601      -1.008   0.502  16.202  1.00 37.72     0.008 A 
HETATM    6  C26   D T2601       0.117  -0.122  15.678  1.00 37.94     0.036 A 
HETATM    7  C34   D T2601       0.384  -1.408  16.128  1.00 38.22     0.100 A 
HETATM    8  N9    D T2601       1.451  -2.073  15.675  1.00 38.06    -0.244 NA
HETATM    9  C23   D T2601       0.957   0.500  14.732  1.00 37.68     0.070 A 
HETATM   10  C25   D T2601       2.077  -0.237  14.270  1.00 37.45     0.034 A 
HETATM   11  C30   D T2601       3.003   0.238  13.337  1.00 37.25     0.003 A 
HETATM   12  C33   D T2601       4.097  -0.523  12.909  1.00 37.10     0.002 A 
HETATM   13  C36   D T2601       4.272  -1.790  13.426  1.00 37.07     0.002 A 
HETATM   14  C35   D T2601       3.367  -2.283  14.348  1.00 37.46     0.019 A 
HETATM   15  C29   D T2601       2.286  -1.521  14.769  1.00 37.59     0.083 A 
ENDROOT
BRANCH   3  16
HETATM   16  C19   D T2601       1.317   2.595  13.355  1.00 37.36     0.067 A 
HETATM   17  C21   D T2601       2.223   3.621  13.626  1.00 37.26     0.018 A 
HETATM   18  C18   D T2601       2.845   4.314  12.588  1.00 36.83     0.001 A 
HETATM   19  C15   D T2601       2.542   3.992  11.272  1.00 36.71     0.004 A 
HETATM   20  C16   D T2601       1.625   2.988  10.989  1.00 36.90     0.073 A 
HETATM   21  C20   D T2601       1.015   2.306  12.029  1.00 37.06     0.021 A 
BRANCH  20  22
HETATM   22  C24   D T2601       1.284   2.620   9.573  1.00 37.44     0.419 C 
HETATM   23  F3    D T2601      -0.029   2.635   9.433  1.00 37.54    -0.166 F 
HETATM   24  F2    D T2601       1.741   1.414   9.276  1.00 37.84    -0.166 F 
HETATM   25  F1    D T2601       1.820   3.504   8.746  1.00 37.70    -0.166 F 
ENDBRANCH  20  22
ENDBRANCH   3  16
BRANCH  12  26
HETATM   26  C37   D T2601       5.024  -0.045  11.981  1.00 37.09     0.019 A 
HETATM   27  C39   D T2601       6.373  -0.377  12.103  1.00 36.88     0.101 A 
HETATM   28  N10   D T2601       7.268   0.076  11.216  1.00 36.63    -0.224 NA
HETATM   29  C41   D T2601       6.897   0.858  10.179  1.00 36.47     0.184 A 
HETATM   30  C40   D T2601       5.574   1.222  10.004  1.00 36.38     0.041 A 
HETATM   31  N43   D T2601       7.826   1.296   9.304  1.00 36.94    -0.127 N 
HETATM   32  C38   D T2601       4.633   0.764  10.914  1.00 36.91     0.005 A 
ENDBRANCH  12  26
TORSDOF 3
ENDMDL
MODEL 9
REMARK VINA RESULT:    -6.100      3.780      6.549
REMARK INTER + INTRA:          -9.041
REMARK INTER:                  -7.104
REMARK INTRA:                  -1.937
REMARK UNBOUND:                -1.871
REMARK  3 active torsions:
REMARK  status: ('A' for Active; 'I' for Inactive)
REMARK    1  A    between atoms: N8_3  and  C19_4 
REMARK    2  A    between atoms: C16_9  and  C24_10 
REMARK    3  A    between atoms: C33_22  and  C37_26 
ROOT
HETATM    1  O5    D T2601      -0.855  -1.780  21.695  1.00 38.51    -0.267 OA
HETATM    2  C27   D T2601      -1.520  -0.740  21.876  1.00 37.76     0.265 A 
HETATM    3  N8    D T2601      -2.686  -0.522  21.109  1.00 37.58    -0.275 N 
HETATM    4  C32   D T2601      -1.097   0.167  22.835  1.00 37.69     0.061 A 
HETATM    5  C31   D T2601      -1.822   1.324  23.047  1.00 37.72     0.008 A 
HETATM    6  C26   D T2601      -2.966   1.574  22.299  1.00 37.94     0.036 A 
HETATM    7  C34   D T2601      -3.639   2.758  22.565  1.00 38.22     0.100 A 
HETATM    8  N9    D T2601      -4.751   3.068  21.891  1.00 38.06    -0.244 NA
HETATM    9  C23   D T2601      -3.435   0.684  21.311  1.00 37.68     0.070 A 
HETATM   10  C25   D T2601      -4.614   1.047  20.613  1.00 37.45     0.034 A 
HETATM   11  C30   D T2601      -5.206   0.275  19.609  1.00 37.25     0.003 A 
HETATM   12  C33   D T2601      -6.373   0.671  18.946  1.00 37.10     0.002 A 
HETATM   13  C36   D T2601      -6.966   1.867  19.294  1.00 37.07     0.002 A 
HETATM   14  C35   D T2601      -6.397   2.650  20.281  1.00 37.46     0.019 A 
HETATM   15  C29   D T2601      -5.240   2.249  20.936  1.00 37.59     0.083 A 
ENDROOT
BRANCH   3  16
HETATM   16  C19   D T2601      -2.981  -1.509  20.128  1.00 37.36     0.067 A 
HETATM   17  C21   D T2601      -3.720  -2.673  20.345  1.00 37.26     0.018 A 
HETATM   18  C18   D T2601      -3.937  -3.582  19.311  1.00 36.83     0.001 A 
HETATM   19  C15   D T2601      -3.393  -3.335  18.057  1.00 36.71     0.004 A 
HETATM   20  C16   D T2601      -2.637  -2.191  17.833  1.00 36.90     0.073 A 
HETATM   21  C20   D T2601      -2.430  -1.295  18.869  1.00 37.06     0.021 A 
BRANCH  20  22
HETATM   22  C24   D T2601      -2.042  -1.902  16.485  1.00 37.44     0.419 C 
HETATM   23  F3    D T2601      -0.773  -2.264  16.492  1.00 37.54    -0.166 F 
HETATM   24  F2    D T2601      -2.126  -0.612  16.200  1.00 37.84    -0.166 F 
HETATM   25  F1    D T2601      -2.688  -2.594  15.559  1.00 37.70    -0.166 F 
ENDBRANCH  20  22
ENDBRANCH   3  16
BRANCH  12  26
HETATM   26  C37   D T2601      -6.966  -0.106  17.948  1.00 37.09     0.019 A 
HETATM   27  C39   D T2601      -8.326   0.030  17.670  1.00 36.88     0.101 A 
HETATM   28  N10   D T2601      -8.901  -0.708  16.712  1.00 36.63    -0.224 NA
HETATM   29  C41   D T2601      -8.189  -1.598  15.987  1.00 36.47     0.184 A 
HETATM   30  C40   D T2601      -6.837  -1.778  16.215  1.00 36.38     0.041 A 
HETATM   31  N43   D T2601      -8.801  -2.325  15.029  1.00 36.94    -0.127 N 
HETATM   32  C38   D T2601      -6.224  -1.023  17.205  1.00 36.91     0.005 A 
ENDBRANCH  12  26
TORSDOF 3
ENDMDL
