MODEL 1
REMARK VINA RESULT:    -6.983      0.000      0.000
REMARK INTER + INTRA:          -8.201
REMARK INTER:                  -7.800
REMARK INTRA:                  -0.401
REMARK UNBOUND:                -0.401
REMARK  2 active torsions:
REMARK  status: ('A' for Active; 'I' for Inactive)
REMARK    1  A    between atoms: C4_4  and  C7_7 
REMARK    2  A    between atoms: C5_5  and  C15_15 
ROOT
HETATM    1  N1    D T 201      -8.037   4.768  -0.192  1.00  5.16    -0.037 NA
HETATM    2  C2    D T 201      -8.846   3.689  -0.360  1.00  5.00     0.769 C 
HETATM    3  C3    D T 201      -7.010   4.614   0.695  1.00  4.75     0.203 C 
HETATM    4  C4    D T 201      -6.729   3.418   1.410  1.00  4.81     0.052 C 
HETATM    5  C5    D T 201      -7.607   2.387   1.208  1.00  4.85     0.081 C 
HETATM    6  N6    D T 201      -8.693   2.555   0.401  1.00  5.33    -0.062 NA
HETATM    7  N13   D T 201      -6.207   5.711   0.861  1.00  5.45    -0.126 N 
HETATM    8  N14   D T 201      -9.824   3.723  -1.191  1.00  6.07     0.062 N 
ENDROOT
BRANCH   4   9
HETATM    9  C7    D T 201      -5.542   3.318   2.256  1.00  5.93     0.004 A 
HETATM   10  C8    D T 201      -4.340   2.721   1.818  1.00  6.93     0.001 A 
HETATM   11  C9    D T 201      -3.231   2.583   2.698  1.00  8.90     0.011 A 
HETATM   12  C10   D T 201      -3.414   3.050   4.039  1.00  8.73     0.058 A 
HETATM   13  C11   D T 201      -4.616   3.598   4.552  1.00  7.65     0.011 A 
HETATM   14 CL1    D T 201      -2.042   2.900   5.105  1.00 14.54    -0.082 Cl
HETATM   15  C12   D T 201      -5.634   3.753   3.598  1.00  6.02     0.001 A 
ENDBRANCH   4   9
BRANCH   5  16
HETATM   16  C15   D T 201      -7.566   1.027   1.912  1.00  5.65     0.047 C 
HETATM   17  C16   D T 201      -8.255  -0.038   1.025  1.00  8.46     0.007 C 
ENDBRANCH   5  16
TORSDOF 2
ENDMDL
MODEL 2
REMARK VINA RESULT:    -6.955      1.018      2.831
REMARK INTER + INTRA:          -8.169
REMARK INTER:                  -7.635
REMARK INTRA:                  -0.533
REMARK UNBOUND:                -0.401
REMARK  2 active torsions:
REMARK  status: ('A' for Active; 'I' for Inactive)
REMARK    1  A    between atoms: C4_4  and  C7_7 
REMARK    2  A    between atoms: C5_5  and  C15_15 
ROOT
HETATM    1  N1    D T 201      -8.863   2.256   0.597  1.00  5.16    -0.037 NA
HETATM    2  C2    D T 201      -8.913   3.275  -0.301  1.00  5.00     0.769 C 
HETATM    3  C3    D T 201      -7.777   2.241   1.426  1.00  4.75     0.203 C 
HETATM    4  C4    D T 201      -6.742   3.215   1.422  1.00  4.81     0.052 C 
HETATM    5  C5    D T 201      -6.850   4.192   0.468  1.00  4.85     0.081 C 
HETATM    6  N6    D T 201      -7.876   4.167  -0.429  1.00  5.33    -0.062 NA
HETATM    7  N13   D T 201      -7.734   1.206   2.321  1.00  5.45    -0.126 N 
HETATM    8  N14   D T 201      -9.906   3.393  -1.106  1.00  6.07     0.062 N 
ENDROOT
BRANCH   4   9
HETATM    9  C7    D T 201      -5.676   3.173   2.420  1.00  5.93     0.004 A 
HETATM   10  C8    D T 201      -5.751   3.865   3.649  1.00  6.93     0.001 A 
HETATM   11  C9    D T 201      -4.660   3.851   4.561  1.00  8.90     0.011 A 
HETATM   12  C10   D T 201      -3.492   3.131   4.154  1.00  8.73     0.058 A 
HETATM   13  C11   D T 201      -3.335   2.471   2.909  1.00  7.65     0.011 A 
HETATM   14 CL1    D T 201      -2.169   3.097   5.290  1.00 14.54    -0.082 Cl
HETATM   15  C12   D T 201      -4.482   2.485   2.100  1.00  6.02     0.001 A 
ENDBRANCH   4   9
BRANCH   5  16
HETATM   16  C15   D T 201      -5.832   5.307   0.211  1.00  5.65     0.047 C 
HETATM   17  C16   D T 201      -4.871   4.881  -0.925  1.00  8.46     0.007 C 
ENDBRANCH   5  16
TORSDOF 2
ENDMDL
MODEL 3
REMARK VINA RESULT:    -6.895      3.786      5.149
REMARK INTER + INTRA:          -8.103
REMARK INTER:                  -7.593
REMARK INTRA:                  -0.510
REMARK UNBOUND:                -0.401
REMARK  2 active torsions:
REMARK  status: ('A' for Active; 'I' for Inactive)
REMARK    1  A    between atoms: C4_4  and  C7_7 
REMARK    2  A    between atoms: C5_5  and  C15_15 
ROOT
HETATM    1  N1    D T 201      -7.045   3.437  -0.402  1.00  5.16    -0.037 NA
HETATM    2  C2    D T 201      -6.889   2.872   0.824  1.00  5.00     0.769 C 
HETATM    3  C3    D T 201      -6.601   4.723  -0.530  1.00  4.75     0.203 C 
HETATM    4  C4    D T 201      -5.979   5.471   0.506  1.00  4.81     0.052 C 
HETATM    5  C5    D T 201      -5.886   4.842   1.718  1.00  4.85     0.081 C 
HETATM    6  N6    D T 201      -6.411   3.596   1.889  1.00  5.33    -0.062 NA
HETATM    7  N13   D T 201      -6.771   5.283  -1.768  1.00  5.45    -0.126 N 
HETATM    8  N14   D T 201      -7.250   1.659   1.040  1.00  6.07     0.062 N 
ENDROOT
BRANCH   4   9
HETATM    9  C7    D T 201      -5.440   6.803   0.241  1.00  5.93     0.004 A 
HETATM   10  C8    D T 201      -4.125   7.016  -0.230  1.00  6.93     0.001 A 
HETATM   11  C9    D T 201      -3.620   8.333  -0.409  1.00  8.90     0.011 A 
HETATM   12  C10   D T 201      -4.496   9.410  -0.061  1.00  8.73     0.058 A 
HETATM   13  C11   D T 201      -5.800   9.258   0.474  1.00  7.65     0.011 A 
HETATM   14 CL1    D T 201      -3.877  11.022  -0.307  1.00 14.54    -0.082 Cl
HETATM   15  C12   D T 201      -6.238   7.927   0.558  1.00  6.02     0.001 A 
ENDBRANCH   4   9
BRANCH   5  16
HETATM   16  C15   D T 201      -5.327   5.458   3.005  1.00  5.65     0.047 C 
HETATM   17  C16   D T 201      -3.795   5.247   3.060  1.00  8.46     0.007 C 
ENDBRANCH   5  16
TORSDOF 2
ENDMDL
MODEL 4
REMARK VINA RESULT:    -6.664      2.839      4.135
REMARK INTER + INTRA:          -7.845
REMARK INTER:                  -7.326
REMARK INTRA:                  -0.519
REMARK UNBOUND:                -0.401
REMARK  2 active torsions:
REMARK  status: ('A' for Active; 'I' for Inactive)
REMARK    1  A    between atoms: C4_4  and  C7_7 
REMARK    2  A    between atoms: C5_5  and  C15_15 
ROOT
HETATM    1  N1    D T 201      -8.316   2.088  -0.073  1.00  5.16    -0.037 NA
HETATM    2  C2    D T 201      -7.826   1.254   0.882  1.00  5.00     0.769 C 
HETATM    3  C3    D T 201      -7.679   3.290  -0.202  1.00  4.75     0.203 C 
HETATM    4  C4    D T 201      -6.551   3.695   0.562  1.00  4.81     0.052 C 
HETATM    5  C5    D T 201      -6.137   2.812   1.523  1.00  4.85     0.081 C 
HETATM    6  N6    D T 201      -6.821   1.651   1.730  1.00  5.33    -0.062 NA
HETATM    7  N13   D T 201      -8.187   4.124  -1.162  1.00  5.45    -0.126 N 
HETATM    8  N14   D T 201      -8.337   0.091   1.064  1.00  6.07     0.062 N 
ENDROOT
BRANCH   4   9
HETATM    9  C7    D T 201      -5.873   4.958   0.275  1.00  5.93     0.004 A 
HETATM   10  C8    D T 201      -4.774   5.052  -0.606  1.00  6.93     0.001 A 
HETATM   11  C9    D T 201      -4.101   6.290  -0.802  1.00  8.90     0.011 A 
HETATM   12  C10   D T 201      -4.577   7.406  -0.044  1.00  8.73     0.058 A 
HETATM   13  C11   D T 201      -5.632   7.358   0.901  1.00  7.65     0.011 A 
HETATM   14 CL1    D T 201      -3.762   8.926  -0.309  1.00 14.54    -0.082 Cl
HETATM   15  C12   D T 201      -6.277   6.113   0.983  1.00  6.02     0.001 A 
ENDBRANCH   4   9
BRANCH   5  16
HETATM   16  C15   D T 201      -4.998   3.045   2.520  1.00  5.65     0.047 C 
HETATM   17  C16   D T 201      -3.663   2.559   1.906  1.00  8.46     0.007 C 
ENDBRANCH   5  16
TORSDOF 2
ENDMDL
MODEL 5
REMARK VINA RESULT:    -6.591      3.490      5.507
REMARK INTER + INTRA:          -7.762
REMARK INTER:                  -7.480
REMARK INTRA:                  -0.282
REMARK UNBOUND:                -0.401
REMARK  2 active torsions:
REMARK  status: ('A' for Active; 'I' for Inactive)
REMARK    1  A    between atoms: C4_4  and  C7_7 
REMARK    2  A    between atoms: C5_5  and  C15_15 
ROOT
HETATM    1  N1    D T 201      -5.069   3.918   3.360  1.00  5.16    -0.037 NA
HETATM    2  C2    D T 201      -4.592   4.771   2.416  1.00  5.00     0.769 C 
HETATM    3  C3    D T 201      -6.083   3.093   2.964  1.00  4.75     0.203 C 
HETATM    4  C4    D T 201      -6.634   3.058   1.655  1.00  4.81     0.052 C 
HETATM    5  C5    D T 201      -6.120   3.969   0.770  1.00  4.85     0.081 C 
HETATM    6  N6    D T 201      -5.175   4.864   1.176  1.00  5.33    -0.062 NA
HETATM    7  N13   D T 201      -6.560   2.244   3.927  1.00  5.45    -0.126 N 
HETATM    8  N14   D T 201      -3.621   5.568   2.680  1.00  6.07     0.062 N 
ENDROOT
BRANCH   4   9
HETATM    9  C7    D T 201      -7.645   2.065   1.299  1.00  5.93     0.004 A 
HETATM   10  C8    D T 201      -7.330   0.713   1.037  1.00  6.93     0.001 A 
HETATM   11  C9    D T 201      -8.337  -0.204   0.627  1.00  8.90     0.011 A 
HETATM   12  C10   D T 201      -9.659   0.323   0.469  1.00  8.73     0.058 A 
HETATM   13  C11   D T 201     -10.022   1.680   0.655  1.00  7.65     0.011 A 
HETATM   14 CL1    D T 201     -10.893  -0.814  -0.009  1.00 14.54    -0.082 Cl
HETATM   15  C12   D T 201      -8.979   2.498   1.119  1.00  6.02     0.001 A 
ENDBRANCH   4   9
BRANCH   5  16
HETATM   16  C15   D T 201      -6.593   4.180  -0.672  1.00  5.65     0.047 C 
HETATM   17  C16   D T 201      -5.378   4.506  -1.574  1.00  8.46     0.007 C 
ENDBRANCH   5  16
TORSDOF 2
ENDMDL
MODEL 6
REMARK VINA RESULT:    -6.420      3.103      5.150
REMARK INTER + INTRA:          -7.572
REMARK INTER:                  -7.303
REMARK INTRA:                  -0.269
REMARK UNBOUND:                -0.401
REMARK  2 active torsions:
REMARK  status: ('A' for Active; 'I' for Inactive)
REMARK    1  A    between atoms: C4_4  and  C7_7 
REMARK    2  A    between atoms: C5_5  and  C15_15 
ROOT
HETATM    1  N1    D T 201      -5.052   5.337   0.315  1.00  5.16    -0.037 NA
HETATM    2  C2    D T 201      -4.558   5.569   1.560  1.00  5.00     0.769 C 
HETATM    3  C3    D T 201      -5.920   4.289   0.202  1.00  4.75     0.203 C 
HETATM    4  C4    D T 201      -6.345   3.469   1.281  1.00  4.81     0.052 C 
HETATM    5  C5    D T 201      -5.780   3.748   2.497  1.00  4.85     0.081 C 
HETATM    6  N6    D T 201      -4.838   4.727   2.609  1.00  5.33    -0.062 NA
HETATM    7  N13   D T 201      -6.405   4.061  -1.059  1.00  5.45    -0.126 N 
HETATM    8  N14   D T 201      -3.755   6.547   1.777  1.00  6.07     0.062 N 
ENDROOT
BRANCH   4   9
HETATM    9  C7    D T 201      -7.362   2.438   1.078  1.00  5.93     0.004 A 
HETATM   10  C8    D T 201      -7.046   1.068   0.949  1.00  6.93     0.001 A 
HETATM   11  C9    D T 201      -8.061   0.108   0.684  1.00  8.90     0.011 A 
HETATM   12  C10   D T 201      -9.393   0.608   0.528  1.00  8.73     0.058 A 
HETATM   13  C11   D T 201      -9.760   1.976   0.583  1.00  7.65     0.011 A 
HETATM   14 CL1    D T 201     -10.635  -0.579   0.228  1.00 14.54    -0.082 Cl
HETATM   15  C12   D T 201      -8.706   2.844   0.911  1.00  6.02     0.001 A 
ENDBRANCH   4   9
BRANCH   5  16
HETATM   16  C15   D T 201      -6.015   2.967   3.793  1.00  5.65     0.047 C 
HETATM   17  C16   D T 201      -5.895   3.922   5.005  1.00  8.46     0.007 C 
ENDBRANCH   5  16
TORSDOF 2
ENDMDL
MODEL 7
REMARK VINA RESULT:    -6.395      3.459      4.580
REMARK INTER + INTRA:          -7.543
REMARK INTER:                  -7.200
REMARK INTRA:                  -0.343
REMARK UNBOUND:                -0.401
REMARK  2 active torsions:
REMARK  status: ('A' for Active; 'I' for Inactive)
REMARK    1  A    between atoms: C4_4  and  C7_7 
REMARK    2  A    between atoms: C5_5  and  C15_15 
ROOT
HETATM    1  N1    D T 201      -5.310   2.278   2.120  1.00  5.16    -0.037 NA
HETATM    2  C2    D T 201      -6.445   1.764   1.579  1.00  5.00     0.769 C 
HETATM    3  C3    D T 201      -4.935   3.511   1.669  1.00  4.75     0.203 C 
HETATM    4  C4    D T 201      -5.657   4.278   0.714  1.00  4.81     0.052 C 
HETATM    5  C5    D T 201      -6.773   3.678   0.194  1.00  4.85     0.081 C 
HETATM    6  N6    D T 201      -7.107   2.409   0.562  1.00  5.33    -0.062 NA
HETATM    7  N13   D T 201      -3.785   4.014   2.217  1.00  5.45    -0.126 N 
HETATM    8  N14   D T 201      -6.896   0.623   1.955  1.00  6.07     0.062 N 
ENDROOT
BRANCH   4   9
HETATM    9  C7    D T 201      -5.234   5.635   0.374  1.00  5.93     0.004 A 
HETATM   10  C8    D T 201      -4.182   5.903  -0.529  1.00  6.93     0.001 A 
HETATM   11  C9    D T 201      -3.758   7.238  -0.777  1.00  8.90     0.011 A 
HETATM   12  C10   D T 201      -4.428   8.271  -0.048  1.00  8.73     0.058 A 
HETATM   13  C11   D T 201      -5.445   8.057   0.916  1.00  7.65     0.011 A 
HETATM   14 CL1    D T 201      -3.919   9.906  -0.377  1.00 14.54    -0.082 Cl
HETATM   15  C12   D T 201      -5.842   6.718   1.051  1.00  6.02     0.001 A 
ENDBRANCH   4   9
BRANCH   5  16
HETATM   16  C15   D T 201      -7.676   4.263  -0.897  1.00  5.65     0.047 C 
HETATM   17  C16   D T 201      -9.057   3.565  -0.858  1.00  8.46     0.007 C 
ENDBRANCH   5  16
TORSDOF 2
ENDMDL
MODEL 8
REMARK VINA RESULT:    -6.378      3.771      5.959
REMARK INTER + INTRA:          -7.525
REMARK INTER:                  -7.114
REMARK INTRA:                  -0.411
REMARK UNBOUND:                -0.401
REMARK  2 active torsions:
REMARK  status: ('A' for Active; 'I' for Inactive)
REMARK    1  A    between atoms: C4_4  and  C7_7 
REMARK    2  A    between atoms: C5_5  and  C15_15 
ROOT
HETATM    1  N1    D T 201      -5.733   4.166   0.157  1.00  5.16    -0.037 NA
HETATM    2  C2    D T 201      -5.217   3.542   1.247  1.00  5.00     0.769 C 
HETATM    3  C3    D T 201      -7.015   3.830  -0.176  1.00  4.75     0.203 C 
HETATM    4  C4    D T 201      -7.825   2.912   0.546  1.00  4.81     0.052 C 
HETATM    5  C5    D T 201      -7.222   2.303   1.615  1.00  4.85     0.081 C 
HETATM    6  N6    D T 201      -5.914   2.555   1.902  1.00  5.33    -0.062 NA
HETATM    7  N13   D T 201      -7.520   4.461  -1.282  1.00  5.45    -0.126 N 
HETATM    8  N14   D T 201      -4.031   3.808   1.658  1.00  6.07     0.062 N 
ENDROOT
BRANCH   4   9
HETATM    9  C7    D T 201      -9.222   2.699   0.174  1.00  5.93     0.004 A 
HETATM   10  C8    D T 201     -10.270   3.525   0.634  1.00  6.93     0.001 A 
HETATM   11  C9    D T 201     -11.623   3.239   0.301  1.00  8.90     0.011 A 
HETATM   12  C10   D T 201     -11.856   2.068  -0.488  1.00  8.73     0.058 A 
HETATM   13  C11   D T 201     -10.852   1.168  -0.925  1.00  7.65     0.011 A 
HETATM   14 CL1    D T 201     -13.516   1.739  -0.913  1.00 14.54    -0.082 Cl
HETATM   15  C12   D T 201      -9.544   1.563  -0.604  1.00  6.02     0.001 A 
ENDBRANCH   4   9
BRANCH   5  16
HETATM   16  C15   D T 201      -7.854   1.228   2.504  1.00  5.65     0.047 C 
HETATM   17  C16   D T 201      -7.524   1.520   3.988  1.00  8.46     0.007 C 
ENDBRANCH   5  16
TORSDOF 2
ENDMDL
MODEL 9
REMARK VINA RESULT:    -6.067      4.050      6.279
REMARK INTER + INTRA:          -7.178
REMARK INTER:                  -6.659
REMARK INTRA:                  -0.519
REMARK UNBOUND:                -0.401
REMARK  2 active torsions:
REMARK  status: ('A' for Active; 'I' for Inactive)
REMARK    1  A    between atoms: C4_4  and  C7_7 
REMARK    2  A    between atoms: C5_5  and  C15_15 
ROOT
HETATM    1  N1    D T 201      -7.139   9.964   0.740  1.00  5.16    -0.037 NA
HETATM    2  C2    D T 201      -5.836  10.322   0.882  1.00  5.00     0.769 C 
HETATM    3  C3    D T 201      -7.372   8.645   0.474  1.00  4.75     0.203 C 
HETATM    4  C4    D T 201      -6.363   7.649   0.367  1.00  4.81     0.052 C 
HETATM    5  C5    D T 201      -5.075   8.095   0.493  1.00  4.85     0.081 C 
HETATM    6  N6    D T 201      -4.819   9.423   0.662  1.00  5.33    -0.062 NA
HETATM    7  N13   D T 201      -8.689   8.298   0.326  1.00  5.45    -0.126 N 
HETATM    8  N14   D T 201      -5.512  11.533   1.159  1.00  6.07     0.062 N 
ENDROOT
BRANCH   4   9
HETATM    9  C7    D T 201      -6.720   6.244   0.187  1.00  5.93     0.004 A 
HETATM   10  C8    D T 201      -6.837   5.340   1.266  1.00  6.93     0.001 A 
HETATM   11  C9    D T 201      -7.120   3.965   1.038  1.00  8.90     0.011 A 
HETATM   12  C10   D T 201      -7.246   3.554  -0.327  1.00  8.73     0.058 A 
HETATM   13  C11   D T 201      -7.077   4.401  -1.452  1.00  7.65     0.011 A 
HETATM   14 CL1    D T 201      -7.617   1.871  -0.597  1.00 14.54    -0.082 Cl
HETATM   15  C12   D T 201      -6.862   5.750  -1.131  1.00  6.02     0.001 A 
ENDBRANCH   4   9
BRANCH   5  16
HETATM   16  C15   D T 201      -3.813   7.238   0.345  1.00  5.65     0.047 C 
HETATM   17  C16   D T 201      -3.422   7.143  -1.149  1.00  8.46     0.007 C 
ENDBRANCH   5  16
TORSDOF 2
ENDMDL
