MODEL 1
REMARK VINA RESULT:    -6.871      0.000      0.000
REMARK INTER + INTRA:          -8.071
REMARK INTER:                  -7.675
REMARK INTRA:                  -0.396
REMARK UNBOUND:                -0.396
REMARK  2 active torsions:
REMARK  status: ('A' for Active; 'I' for Inactive)
REMARK    1  A    between atoms: C4_4  and  C7_7 
REMARK    2  A    between atoms: C5_5  and  C15_15 
ROOT
HETATM    1  N1    D T 201      -7.321   0.591   1.804  1.00  5.16    -0.037 NA
HETATM    2  C2    D T 201      -6.264  -0.000   2.420  1.00  5.00     0.769 C 
HETATM    3  C3    D T 201      -7.100   1.843   1.307  1.00  4.75     0.203 C 
HETATM    4  C4    D T 201      -5.859   2.533   1.371  1.00  4.81     0.052 C 
HETATM    5  C5    D T 201      -4.853   1.883   2.035  1.00  4.85     0.081 C 
HETATM    6  N6    D T 201      -5.084   0.674   2.620  1.00  5.33    -0.062 NA
HETATM    7  N13   D T 201      -8.175   2.431   0.695  1.00  5.45    -0.126 N 
HETATM    8  N14   D T 201      -6.361  -1.188   2.898  1.00  6.07     0.062 N 
ENDROOT
BRANCH   4   9
HETATM    9  C7    D T 201      -5.691   3.829   0.715  1.00  5.93     0.004 A 
HETATM   10  C8    D T 201      -5.838   5.056   1.399  1.00  6.93     0.001 A 
HETATM   11  C9    D T 201      -5.733   6.293   0.704  1.00  8.90     0.011 A 
HETATM   12  C10   D T 201      -5.505   6.221  -0.706  1.00  8.73     0.058 A 
HETATM   13  C11   D T 201      -5.413   5.021  -1.454  1.00  7.65     0.011 A 
HETATM   14 CL1    D T 201      -5.353   7.742  -1.545  1.00 14.54    -0.082 Cl
HETATM   15  C12   D T 201      -5.465   3.851  -0.680  1.00  6.02     0.001 A 
ENDBRANCH   4   9
BRANCH   5  16
HETATM   16  C15   D T 201      -3.452   2.441   2.304  1.00  5.65     0.047 C 
HETATM   17  C16   D T 201      -3.240   2.601   3.830  1.00  8.46     0.007 C 
ENDBRANCH   5  16
TORSDOF 2
ENDMDL
MODEL 2
REMARK VINA RESULT:    -6.702      2.553      4.372
REMARK INTER + INTRA:          -7.881
REMARK INTER:                  -7.358
REMARK INTRA:                  -0.523
REMARK UNBOUND:                -0.396
REMARK  2 active torsions:
REMARK  status: ('A' for Active; 'I' for Inactive)
REMARK    1  A    between atoms: C4_4  and  C7_7 
REMARK    2  A    between atoms: C5_5  and  C15_15 
ROOT
HETATM    1  N1    D T 201      -8.110  -0.095   2.052  1.00  5.16    -0.037 NA
HETATM    2  C2    D T 201      -8.639   0.645   1.042  1.00  5.00     0.769 C 
HETATM    3  C3    D T 201      -6.984   0.409   2.637  1.00  4.75     0.203 C 
HETATM    4  C4    D T 201      -6.367   1.639   2.282  1.00  4.81     0.052 C 
HETATM    5  C5    D T 201      -6.943   2.310   1.235  1.00  4.85     0.081 C 
HETATM    6  N6    D T 201      -8.009   1.774   0.578  1.00  5.33    -0.062 NA
HETATM    7  N13   D T 201      -6.457  -0.350   3.648  1.00  5.45    -0.126 N 
HETATM    8  N14   D T 201      -9.712   0.271   0.445  1.00  6.07     0.062 N 
ENDROOT
BRANCH   4   9
HETATM    9  C7    D T 201      -5.226   2.148   3.040  1.00  5.93     0.004 A 
HETATM   10  C8    D T 201      -5.362   3.081   4.092  1.00  6.93     0.001 A 
HETATM   11  C9    D T 201      -4.217   3.600   4.757  1.00  8.90     0.011 A 
HETATM   12  C10   D T 201      -2.943   3.152   4.287  1.00  8.73     0.058 A 
HETATM   13  C11   D T 201      -2.743   2.268   3.198  1.00  7.65     0.011 A 
HETATM   14 CL1    D T 201      -1.546   3.774   5.125  1.00 14.54    -0.082 Cl
HETATM   15  C12   D T 201      -3.927   1.758   2.642  1.00  6.02     0.001 A 
ENDBRANCH   4   9
BRANCH   5  16
HETATM   16  C15   D T 201      -6.427   3.613   0.616  1.00  5.65     0.047 C 
HETATM   17  C16   D T 201      -5.379   3.289  -0.478  1.00  8.46     0.007 C 
ENDBRANCH   5  16
TORSDOF 2
ENDMDL
MODEL 3
REMARK VINA RESULT:    -6.685      3.656      5.654
REMARK INTER + INTRA:          -7.862
REMARK INTER:                  -7.590
REMARK INTRA:                  -0.272
REMARK UNBOUND:                -0.396
REMARK  2 active torsions:
REMARK  status: ('A' for Active; 'I' for Inactive)
REMARK    1  A    between atoms: C4_4  and  C7_7 
REMARK    2  A    between atoms: C5_5  and  C15_15 
ROOT
HETATM    1  N1    D T 201      -5.476   2.552   4.162  1.00  5.16    -0.037 NA
HETATM    2  C2    D T 201      -4.795   3.331   3.282  1.00  5.00     0.769 C 
HETATM    3  C3    D T 201      -6.413   1.718   3.622  1.00  4.75     0.203 C 
HETATM    4  C4    D T 201      -6.689   1.600   2.232  1.00  4.81     0.052 C 
HETATM    5  C5    D T 201      -5.981   2.441   1.414  1.00  4.85     0.081 C 
HETATM    6  N6    D T 201      -5.112   3.346   1.945  1.00  5.33    -0.062 NA
HETATM    7  N13   D T 201      -7.098   0.943   4.520  1.00  5.45    -0.126 N 
HETATM    8  N14   D T 201      -3.874   4.130   3.686  1.00  6.07     0.062 N 
ENDROOT
BRANCH   4   9
HETATM    9  C7    D T 201      -7.635   0.600   1.742  1.00  5.93     0.004 A 
HETATM   10  C8    D T 201      -8.962   0.919   1.376  1.00  6.93     0.001 A 
HETATM   11  C9    D T 201      -9.869  -0.099   0.969  1.00  8.90     0.011 A 
HETATM   12  C10   D T 201      -9.376  -1.442   0.982  1.00  8.73     0.058 A 
HETATM   13  C11   D T 201      -8.078  -1.827   1.400  1.00  7.65     0.011 A 
HETATM   14 CL1    D T 201     -10.487  -2.680   0.458  1.00 14.54    -0.082 Cl
HETATM   15  C12   D T 201      -7.232  -0.755   1.723  1.00  6.02     0.001 A 
ENDBRANCH   4   9
BRANCH   5  16
HETATM   16  C15   D T 201      -6.148   2.560  -0.104  1.00  5.65     0.047 C 
HETATM   17  C16   D T 201      -5.178   3.638  -0.650  1.00  8.46     0.007 C 
ENDBRANCH   5  16
TORSDOF 2
ENDMDL
MODEL 4
REMARK VINA RESULT:    -6.604      3.446      4.843
REMARK INTER + INTRA:          -7.772
REMARK INTER:                  -7.349
REMARK INTRA:                  -0.423
REMARK UNBOUND:                -0.396
REMARK  2 active torsions:
REMARK  status: ('A' for Active; 'I' for Inactive)
REMARK    1  A    between atoms: C4_4  and  C7_7 
REMARK    2  A    between atoms: C5_5  and  C15_15 
ROOT
HETATM    1  N1    D T 201      -9.743   2.633   0.259  1.00  5.16    -0.037 NA
HETATM    2  C2    D T 201     -10.239   1.368   0.243  1.00  5.00     0.769 C 
HETATM    3  C3    D T 201      -8.530   2.792   0.866  1.00  4.75     0.203 C 
HETATM    4  C4    D T 201      -7.766   1.739   1.439  1.00  4.81     0.052 C 
HETATM    5  C5    D T 201      -8.350   0.500   1.409  1.00  4.85     0.081 C 
HETATM    6  N6    D T 201      -9.601   0.341   0.894  1.00  5.33    -0.062 NA
HETATM    7  N13   D T 201      -8.044   4.072   0.882  1.00  5.45    -0.126 N 
HETATM    8  N14   D T 201     -11.360   1.109  -0.327  1.00  6.07     0.062 N 
ENDROOT
BRANCH   4   9
HETATM    9  C7    D T 201      -6.428   1.992   1.970  1.00  5.93     0.004 A 
HETATM   10  C8    D T 201      -5.259   1.865   1.187  1.00  6.93     0.001 A 
HETATM   11  C9    D T 201      -3.973   2.054   1.764  1.00  8.90     0.011 A 
HETATM   12  C10   D T 201      -3.933   2.346   3.164  1.00  8.73     0.058 A 
HETATM   13  C11   D T 201      -5.066   2.422   4.011  1.00  7.65     0.011 A 
HETATM   14 CL1    D T 201      -2.353   2.602   3.856  1.00 14.54    -0.082 Cl
HETATM   15  C12   D T 201      -6.295   2.285   3.346  1.00  6.02     0.001 A 
ENDBRANCH   4   9
BRANCH   5  16
HETATM   16  C15   D T 201      -7.768  -0.777   2.024  1.00  5.65     0.047 C 
HETATM   17  C16   D T 201      -8.479  -2.015   1.422  1.00  8.46     0.007 C 
ENDBRANCH   5  16
TORSDOF 2
ENDMDL
MODEL 5
REMARK VINA RESULT:    -6.476      1.472      1.847
REMARK INTER + INTRA:          -7.629
REMARK INTER:                  -7.329
REMARK INTRA:                  -0.300
REMARK UNBOUND:                -0.396
REMARK  2 active torsions:
REMARK  status: ('A' for Active; 'I' for Inactive)
REMARK    1  A    between atoms: C4_4  and  C7_7 
REMARK    2  A    between atoms: C5_5  and  C15_15 
ROOT
HETATM    1  N1    D T 201      -7.742   1.921   1.135  1.00  5.16    -0.037 NA
HETATM    2  C2    D T 201      -6.753   1.501   1.966  1.00  5.00     0.769 C 
HETATM    3  C3    D T 201      -7.662   3.219   0.718  1.00  4.75     0.203 C 
HETATM    4  C4    D T 201      -6.621   4.121   1.071  1.00  4.81     0.052 C 
HETATM    5  C5    D T 201      -5.679   3.629   1.936  1.00  4.85     0.081 C 
HETATM    6  N6    D T 201      -5.797   2.367   2.437  1.00  5.33    -0.062 NA
HETATM    7  N13   D T 201      -8.669   3.633  -0.113  1.00  5.45    -0.126 N 
HETATM    8  N14   D T 201      -6.723   0.290   2.393  1.00  6.07     0.062 N 
ENDROOT
BRANCH   4   9
HETATM    9  C7    D T 201      -6.564   5.459   0.487  1.00  5.93     0.004 A 
HETATM   10  C8    D T 201      -7.397   6.516   0.918  1.00  6.93     0.001 A 
HETATM   11  C9    D T 201      -7.356   7.784   0.275  1.00  8.90     0.011 A 
HETATM   12  C10   D T 201      -6.460   7.914  -0.833  1.00  8.73     0.058 A 
HETATM   13  C11   D T 201      -5.649   6.872  -1.348  1.00  7.65     0.011 A 
HETATM   14 CL1    D T 201      -6.397   9.479  -1.599  1.00 14.54    -0.082 Cl
HETATM   15  C12   D T 201      -5.707   5.677  -0.615  1.00  6.02     0.001 A 
ENDBRANCH   4   9
BRANCH   5  16
HETATM   16  C15   D T 201      -4.505   4.419   2.522  1.00  5.65     0.047 C 
HETATM   17  C16   D T 201      -4.024   3.742   3.829  1.00  8.46     0.007 C 
ENDBRANCH   5  16
TORSDOF 2
ENDMDL
MODEL 6
REMARK VINA RESULT:    -6.277      2.672      4.377
REMARK INTER + INTRA:          -7.406
REMARK INTER:                  -7.077
REMARK INTRA:                  -0.329
REMARK UNBOUND:                -0.396
REMARK  2 active torsions:
REMARK  status: ('A' for Active; 'I' for Inactive)
REMARK    1  A    between atoms: C4_4  and  C7_7 
REMARK    2  A    between atoms: C5_5  and  C15_15 
ROOT
HETATM    1  N1    D T 201      -8.339  -1.844   1.604  1.00  5.16    -0.037 NA
HETATM    2  C2    D T 201      -9.604  -1.725   1.123  1.00  5.00     0.769 C 
HETATM    3  C3    D T 201      -7.604  -0.694   1.647  1.00  4.75     0.203 C 
HETATM    4  C4    D T 201      -8.080   0.587   1.256  1.00  4.81     0.052 C 
HETATM    5  C5    D T 201      -9.354   0.618   0.754  1.00  4.85     0.081 C 
HETATM    6  N6    D T 201     -10.066  -0.535   0.615  1.00  5.33    -0.062 NA
HETATM    7  N13   D T 201      -6.328  -0.829   2.126  1.00  5.45    -0.126 N 
HETATM    8  N14   D T 201     -10.385  -2.742   1.067  1.00  6.07     0.062 N 
ENDROOT
BRANCH   4   9
HETATM    9  C7    D T 201      -7.253   1.778   1.440  1.00  5.93     0.004 A 
HETATM   10  C8    D T 201      -7.122   2.432   2.686  1.00  6.93     0.001 A 
HETATM   11  C9    D T 201      -6.361   3.628   2.803  1.00  8.90     0.011 A 
HETATM   12  C10   D T 201      -5.772   4.135   1.603  1.00  8.73     0.058 A 
HETATM   13  C11   D T 201      -5.921   3.559   0.317  1.00  7.65     0.011 A 
HETATM   14 CL1    D T 201      -4.820   5.588   1.761  1.00 14.54    -0.082 Cl
HETATM   15  C12   D T 201      -6.634   2.350   0.305  1.00  6.02     0.001 A 
ENDBRANCH   4   9
BRANCH   5  16
HETATM   16  C15   D T 201     -10.066   1.855   0.198  1.00  5.65     0.047 C 
HETATM   17  C16   D T 201     -11.590   1.733   0.446  1.00  8.46     0.007 C 
ENDBRANCH   5  16
TORSDOF 2
ENDMDL
MODEL 7
REMARK VINA RESULT:    -6.170      2.897      5.265
REMARK INTER + INTRA:          -7.287
REMARK INTER:                  -7.054
REMARK INTRA:                  -0.233
REMARK UNBOUND:                -0.396
REMARK  2 active torsions:
REMARK  status: ('A' for Active; 'I' for Inactive)
REMARK    1  A    between atoms: C4_4  and  C7_7 
REMARK    2  A    between atoms: C5_5  and  C15_15 
ROOT
HETATM    1  N1    D T 201      -9.001   4.139   0.228  1.00  5.16    -0.037 NA
HETATM    2  C2    D T 201      -8.971   5.397  -0.283  1.00  5.00     0.769 C 
HETATM    3  C3    D T 201      -7.847   3.705   0.816  1.00  4.75     0.203 C 
HETATM    4  C4    D T 201      -6.662   4.479   0.945  1.00  4.81     0.052 C 
HETATM    5  C5    D T 201      -6.704   5.725   0.377  1.00  4.85     0.081 C 
HETATM    6  N6    D T 201      -7.814   6.137  -0.297  1.00  5.33    -0.062 NA
HETATM    7  N13   D T 201      -7.887   2.432   1.321  1.00  5.45    -0.126 N 
HETATM    8  N14   D T 201     -10.013   5.909  -0.832  1.00  6.07     0.062 N 
ENDROOT
BRANCH   4   9
HETATM    9  C7    D T 201      -5.512   3.965   1.686  1.00  5.93     0.004 A 
HETATM   10  C8    D T 201      -4.679   2.939   1.188  1.00  6.93     0.001 A 
HETATM   11  C9    D T 201      -3.612   2.421   1.973  1.00  8.90     0.011 A 
HETATM   12  C10   D T 201      -3.454   2.971   3.285  1.00  8.73     0.058 A 
HETATM   13  C11   D T 201      -4.297   3.954   3.860  1.00  7.65     0.011 A 
HETATM   14 CL1    D T 201      -2.128   2.349   4.231  1.00 14.54    -0.082 Cl
HETATM   15  C12   D T 201      -5.283   4.451   2.993  1.00  6.02     0.001 A 
ENDBRANCH   4   9
BRANCH   5  16
HETATM   16  C15   D T 201      -5.539   6.719   0.315  1.00  5.65     0.047 C 
HETATM   17  C16   D T 201      -5.609   7.520  -1.009  1.00  8.46     0.007 C 
ENDBRANCH   5  16
TORSDOF 2
ENDMDL
MODEL 8
REMARK VINA RESULT:    -6.100      3.413      5.814
REMARK INTER + INTRA:          -7.209
REMARK INTER:                  -6.717
REMARK INTRA:                  -0.492
REMARK UNBOUND:                -0.396
REMARK  2 active torsions:
REMARK  status: ('A' for Active; 'I' for Inactive)
REMARK    1  A    between atoms: C4_4  and  C7_7 
REMARK    2  A    between atoms: C5_5  and  C15_15 
ROOT
HETATM    1  N1    D T 201     -10.646   5.578   0.255  1.00  5.16    -0.037 NA
HETATM    2  C2    D T 201     -10.528   6.931   0.217  1.00  5.00     0.769 C 
HETATM    3  C3    D T 201      -9.475   4.877   0.287  1.00  4.75     0.203 C 
HETATM    4  C4    D T 201      -8.179   5.462   0.310  1.00  4.81     0.052 C 
HETATM    5  C5    D T 201      -8.146   6.830   0.239  1.00  4.85     0.081 C 
HETATM    6  N6    D T 201      -9.301   7.540   0.109  1.00  5.33    -0.062 NA
HETATM    7  N13   D T 201      -9.606   3.514   0.318  1.00  5.45    -0.126 N 
HETATM    8  N14   D T 201     -11.570   7.682   0.211  1.00  6.07     0.062 N 
ENDROOT
BRANCH   4   9
HETATM    9  C7    D T 201      -6.987   4.629   0.454  1.00  5.93     0.004 A 
HETATM   10  C8    D T 201      -6.299   4.083  -0.653  1.00  6.93     0.001 A 
HETATM   11  C9    D T 201      -5.184   3.221  -0.463  1.00  8.90     0.011 A 
HETATM   12  C10   D T 201      -4.825   2.922   0.889  1.00  8.73     0.058 A 
HETATM   13  C11   D T 201      -5.516   3.388   2.035  1.00  7.65     0.011 A 
HETATM   14 CL1    D T 201      -3.441   1.885   1.112  1.00 14.54    -0.082 Cl
HETATM   15  C12   D T 201      -6.563   4.281   1.756  1.00  6.02     0.001 A 
ENDBRANCH   4   9
BRANCH   5  16
HETATM   16  C15   D T 201      -6.881   7.690   0.173  1.00  5.65     0.047 C 
HETATM   17  C16   D T 201      -6.439   7.854  -1.303  1.00  8.46     0.007 C 
ENDBRANCH   5  16
TORSDOF 2
ENDMDL
MODEL 9
REMARK VINA RESULT:    -6.075      1.658      3.161
REMARK INTER + INTRA:          -7.181
REMARK INTER:                  -6.810
REMARK INTRA:                  -0.371
REMARK UNBOUND:                -0.396
REMARK  2 active torsions:
REMARK  status: ('A' for Active; 'I' for Inactive)
REMARK    1  A    between atoms: C4_4  and  C7_7 
REMARK    2  A    between atoms: C5_5  and  C15_15 
ROOT
HETATM    1  N1    D T 201      -6.568   0.125   1.852  1.00  5.16    -0.037 NA
HETATM    2  C2    D T 201      -7.893  -0.171   1.797  1.00  5.00     0.769 C 
HETATM    3  C3    D T 201      -6.210   1.354   1.379  1.00  4.75     0.203 C 
HETATM    4  C4    D T 201      -7.118   2.325   0.873  1.00  4.81     0.052 C 
HETATM    5  C5    D T 201      -8.431   1.938   0.823  1.00  4.85     0.081 C 
HETATM    6  N6    D T 201      -8.793   0.681   1.202  1.00  5.33    -0.062 NA
HETATM    7  N13   D T 201      -4.871   1.637   1.432  1.00  5.45    -0.126 N 
HETATM    8  N14   D T 201      -8.336  -1.291   2.242  1.00  6.07     0.062 N 
ENDROOT
BRANCH   4   9
HETATM    9  C7    D T 201      -6.649   3.655   0.489  1.00  5.93     0.004 A 
HETATM   10  C8    D T 201      -6.776   4.782   1.332  1.00  6.93     0.001 A 
HETATM   11  C9    D T 201      -6.368   6.071   0.890  1.00  8.90     0.011 A 
HETATM   12  C10   D T 201      -5.859   6.162  -0.444  1.00  8.73     0.058 A 
HETATM   13  C11   D T 201      -5.769   5.080  -1.354  1.00  7.65     0.011 A 
HETATM   14 CL1    D T 201      -5.339   7.741  -0.968  1.00 14.54    -0.082 Cl
HETATM   15  C12   D T 201      -6.133   3.837  -0.814  1.00  6.02     0.001 A 
ENDBRANCH   4   9
BRANCH   5  16
HETATM   16  C15   D T 201      -9.586   2.769   0.255  1.00  5.65     0.047 C 
HETATM   17  C16   D T 201     -10.910   1.977   0.389  1.00  8.46     0.007 C 
ENDBRANCH   5  16
TORSDOF 2
ENDMDL
