MODEL 1
REMARK VINA RESULT:    -6.870      0.000      0.000
REMARK INTER + INTRA:          -8.210
REMARK INTER:                  -7.673
REMARK INTRA:                  -0.536
REMARK UNBOUND:                -0.536
REMARK  2 active torsions:
REMARK  status: ('A' for Active; 'I' for Inactive)
REMARK    1  A    between atoms: C4_4  and  C7_7 
REMARK    2  A    between atoms: C5_5  and  C15_15 
ROOT
HETATM    1  N1    D T 201      -6.197   5.012   1.083  1.00  5.16    -0.037 NA
HETATM    2  C2    D T 201      -5.753   6.143   0.475  1.00  5.00     0.769 C 
HETATM    3  C3    D T 201      -5.314   4.397   1.923  1.00  4.75     0.203 C 
HETATM    4  C4    D T 201      -4.005   4.872   2.210  1.00  4.81     0.052 C 
HETATM    5  C5    D T 201      -3.621   5.999   1.534  1.00  4.85     0.081 C 
HETATM    6  N6    D T 201      -4.454   6.571   0.620  1.00  5.33    -0.062 NA
HETATM    7  N13   D T 201      -5.771   3.255   2.525  1.00  5.45    -0.126 N 
HETATM    8  N14   D T 201      -6.516   6.812  -0.313  1.00  6.07     0.062 N 
ENDROOT
BRANCH   4   9
HETATM    9  C7    D T 201      -3.172   4.202   3.207  1.00  5.93     0.004 A 
HETATM   10  C8    D T 201      -3.161   4.573   4.569  1.00  6.93     0.001 A 
HETATM   11  C9    D T 201      -2.284   3.938   5.491  1.00  8.90     0.011 A 
HETATM   12  C10   D T 201      -1.407   2.941   4.959  1.00  8.73     0.058 A 
HETATM   13  C11   D T 201      -1.327   2.572   3.593  1.00  7.65     0.011 A 
HETATM   14 CL1    D T 201      -0.352   2.149   6.100  1.00 14.54    -0.082 Cl
HETATM   15  C12   D T 201      -2.272   3.203   2.768  1.00  6.02     0.001 A 
ENDBRANCH   4   9
BRANCH   5  16
HETATM   16  C15   D T 201      -2.242   6.662   1.612  1.00  5.65     0.047 C 
HETATM   17  C16   D T 201      -1.313   6.059   0.530  1.00  8.46     0.007 C 
ENDBRANCH   5  16
TORSDOF 2
ENDMDL
MODEL 2
REMARK VINA RESULT:    -6.788      1.244      2.870
REMARK INTER + INTRA:          -8.118
REMARK INTER:                  -7.729
REMARK INTRA:                  -0.389
REMARK UNBOUND:                -0.536
REMARK  2 active torsions:
REMARK  status: ('A' for Active; 'I' for Inactive)
REMARK    1  A    between atoms: C4_4  and  C7_7 
REMARK    2  A    between atoms: C5_5  and  C15_15 
ROOT
HETATM    1  N1    D T 201      -4.964   7.227   0.865  1.00  5.16    -0.037 NA
HETATM    2  C2    D T 201      -5.959   6.533   0.251  1.00  5.00     0.769 C 
HETATM    3  C3    D T 201      -4.164   6.509   1.706  1.00  4.75     0.203 C 
HETATM    4  C4    D T 201      -4.290   5.114   1.950  1.00  4.81     0.052 C 
HETATM    5  C5    D T 201      -5.335   4.494   1.319  1.00  4.85     0.081 C 
HETATM    6  N6    D T 201      -6.201   5.214   0.552  1.00  5.33    -0.062 NA
HETATM    7  N13   D T 201      -3.169   7.221   2.323  1.00  5.45    -0.126 N 
HETATM    8  N14   D T 201      -6.749   7.110  -0.580  1.00  6.07     0.062 N 
ENDROOT
BRANCH   4   9
HETATM    9  C7    D T 201      -3.317   4.414   2.786  1.00  5.93     0.004 A 
HETATM   10  C8    D T 201      -2.228   3.691   2.250  1.00  6.93     0.001 A 
HETATM   11  C9    D T 201      -1.346   2.968   3.099  1.00  8.90     0.011 A 
HETATM   12  C10   D T 201      -1.639   2.989   4.499  1.00  8.73     0.058 A 
HETATM   13  C11   D T 201      -2.751   3.643   5.086  1.00  7.65     0.011 A 
HETATM   14 CL1    D T 201      -0.538   2.121   5.535  1.00 14.54    -0.082 Cl
HETATM   15  C12   D T 201      -3.531   4.383   4.184  1.00  6.02     0.001 A 
ENDBRANCH   4   9
BRANCH   5  16
HETATM   16  C15   D T 201      -5.727   3.021   1.476  1.00  5.65     0.047 C 
HETATM   17  C16   D T 201      -6.971   2.719   0.605  1.00  8.46     0.007 C 
ENDBRANCH   5  16
TORSDOF 2
ENDMDL
MODEL 3
REMARK VINA RESULT:    -6.529      2.904      4.818
REMARK INTER + INTRA:          -7.829
REMARK INTER:                  -7.447
REMARK INTRA:                  -0.381
REMARK UNBOUND:                -0.536
REMARK  2 active torsions:
REMARK  status: ('A' for Active; 'I' for Inactive)
REMARK    1  A    between atoms: C4_4  and  C7_7 
REMARK    2  A    between atoms: C5_5  and  C15_15 
ROOT
HETATM    1  N1    D T 201      -4.501   4.297   2.147  1.00  5.16    -0.037 NA
HETATM    2  C2    D T 201      -4.143   3.298   2.995  1.00  5.00     0.769 C 
HETATM    3  C3    D T 201      -3.680   5.388   2.126  1.00  4.75     0.203 C 
HETATM    4  C4    D T 201      -2.493   5.523   2.896  1.00  4.81     0.052 C 
HETATM    5  C5    D T 201      -2.218   4.487   3.748  1.00  4.85     0.081 C 
HETATM    6  N6    D T 201      -3.077   3.434   3.852  1.00  5.33    -0.062 NA
HETATM    7  N13   D T 201      -4.056   6.392   1.273  1.00  5.45    -0.126 N 
HETATM    8  N14   D T 201      -4.833   2.217   3.069  1.00  6.07     0.062 N 
ENDROOT
BRANCH   4   9
HETATM    9  C7    D T 201      -1.623   6.685   2.725  1.00  5.93     0.004 A 
HETATM   10  C8    D T 201      -1.786   7.878   3.463  1.00  6.93     0.001 A 
HETATM   11  C9    D T 201      -0.957   9.007   3.214  1.00  8.90     0.011 A 
HETATM   12  C10   D T 201       0.012   8.875   2.170  1.00  8.73     0.058 A 
HETATM   13  C11   D T 201       0.178   7.728   1.355  1.00  7.65     0.011 A 
HETATM   14 CL1    D T 201       1.040  10.256   1.889  1.00 14.54    -0.082 Cl
HETATM   15  C12   D T 201      -0.636   6.642   1.712  1.00  6.02     0.001 A 
ENDBRANCH   4   9
BRANCH   5  16
HETATM   16  C15   D T 201      -1.045   4.426   4.733  1.00  5.65     0.047 C 
HETATM   17  C16   D T 201      -1.088   3.088   5.510  1.00  8.46     0.007 C 
ENDBRANCH   5  16
TORSDOF 2
ENDMDL
MODEL 4
REMARK VINA RESULT:    -6.528      3.786      5.842
REMARK INTER + INTRA:          -7.828
REMARK INTER:                  -7.369
REMARK INTRA:                  -0.459
REMARK UNBOUND:                -0.536
REMARK  2 active torsions:
REMARK  status: ('A' for Active; 'I' for Inactive)
REMARK    1  A    between atoms: C4_4  and  C7_7 
REMARK    2  A    between atoms: C5_5  and  C15_15 
ROOT
HETATM    1  N1    D T 201      -3.885   3.374   3.764  1.00  5.16    -0.037 NA
HETATM    2  C2    D T 201      -2.778   3.781   3.089  1.00  5.00     0.769 C 
HETATM    3  C3    D T 201      -5.084   3.707   3.203  1.00  4.75     0.203 C 
HETATM    4  C4    D T 201      -5.238   4.411   1.977  1.00  4.81     0.052 C 
HETATM    5  C5    D T 201      -4.075   4.813   1.374  1.00  4.85     0.081 C 
HETATM    6  N6    D T 201      -2.873   4.573   1.969  1.00  5.33    -0.062 NA
HETATM    7  N13   D T 201      -6.192   3.297   3.895  1.00  5.45    -0.126 N 
HETATM    8  N14   D T 201      -1.601   3.495   3.518  1.00  6.07     0.062 N 
ENDROOT
BRANCH   4   9
HETATM    9  C7    D T 201      -6.564   4.627   1.403  1.00  5.93     0.004 A 
HETATM   10  C8    D T 201      -7.237   3.646   0.642  1.00  6.93     0.001 A 
HETATM   11  C9    D T 201      -8.498   3.925   0.046  1.00  8.90     0.011 A 
HETATM   12  C10   D T 201      -9.020   5.243   0.233  1.00  8.73     0.058 A 
HETATM   13  C11   D T 201      -8.362   6.286   0.932  1.00  7.65     0.011 A 
HETATM   14 CL1    D T 201     -10.577   5.569  -0.480  1.00 14.54    -0.082 Cl
HETATM   15  C12   D T 201      -7.156   5.904   1.540  1.00  6.02     0.001 A 
ENDBRANCH   4   9
BRANCH   5  16
HETATM   16  C15   D T 201      -3.974   5.645   0.092  1.00  5.65     0.047 C 
HETATM   17  C16   D T 201      -3.800   7.140   0.455  1.00  8.46     0.007 C 
ENDBRANCH   5  16
TORSDOF 2
ENDMDL
MODEL 5
REMARK VINA RESULT:    -6.361      3.451      4.904
REMARK INTER + INTRA:          -7.641
REMARK INTER:                  -7.136
REMARK INTRA:                  -0.505
REMARK UNBOUND:                -0.536
REMARK  2 active torsions:
REMARK  status: ('A' for Active; 'I' for Inactive)
REMARK    1  A    between atoms: C4_4  and  C7_7 
REMARK    2  A    between atoms: C5_5  and  C15_15 
ROOT
HETATM    1  N1    D T 201      -3.347   4.563   3.078  1.00  5.16    -0.037 NA
HETATM    2  C2    D T 201      -4.140   4.444   1.981  1.00  5.00     0.769 C 
HETATM    3  C3    D T 201      -2.472   5.612   3.073  1.00  4.75     0.203 C 
HETATM    4  C4    D T 201      -2.364   6.572   2.030  1.00  4.81     0.052 C 
HETATM    5  C5    D T 201      -3.175   6.364   0.946  1.00  4.85     0.081 C 
HETATM    6  N6    D T 201      -3.985   5.270   0.893  1.00  5.33    -0.062 NA
HETATM    7  N13   D T 201      -1.673   5.718   4.181  1.00  5.45    -0.126 N 
HETATM    8  N14   D T 201      -5.015   3.508   1.899  1.00  6.07     0.062 N 
ENDROOT
BRANCH   4   9
HETATM    9  C7    D T 201      -1.471   7.721   2.165  1.00  5.93     0.004 A 
HETATM   10  C8    D T 201      -1.910   8.981   2.630  1.00  6.93     0.001 A 
HETATM   11  C9    D T 201      -1.020  10.089   2.680  1.00  8.90     0.011 A 
HETATM   12  C10   D T 201       0.312   9.865   2.212  1.00  8.73     0.058 A 
HETATM   13  C11   D T 201       0.791   8.643   1.676  1.00  7.65     0.011 A 
HETATM   14 CL1    D T 201       1.404  11.222   2.300  1.00 14.54    -0.082 Cl
HETATM   15  C12   D T 201      -0.134   7.588   1.724  1.00  6.02     0.001 A 
ENDBRANCH   4   9
BRANCH   5  16
HETATM   16  C15   D T 201      -3.195   7.210  -0.331  1.00  5.65     0.047 C 
HETATM   17  C16   D T 201      -2.074   6.733  -1.287  1.00  8.46     0.007 C 
ENDBRANCH   5  16
TORSDOF 2
ENDMDL
MODEL 6
REMARK VINA RESULT:    -6.302      2.309      4.297
REMARK INTER + INTRA:          -7.575
REMARK INTER:                  -7.043
REMARK INTRA:                  -0.532
REMARK UNBOUND:                -0.536
REMARK  2 active torsions:
REMARK  status: ('A' for Active; 'I' for Inactive)
REMARK    1  A    between atoms: C4_4  and  C7_7 
REMARK    2  A    between atoms: C5_5  and  C15_15 
ROOT
HETATM    1  N1    D T 201      -5.848   5.226   0.827  1.00  5.16    -0.037 NA
HETATM    2  C2    D T 201      -5.940   4.139   1.637  1.00  5.00     0.769 C 
HETATM    3  C3    D T 201      -4.725   5.989   0.975  1.00  4.75     0.203 C 
HETATM    4  C4    D T 201      -3.666   5.706   1.881  1.00  4.81     0.052 C 
HETATM    5  C5    D T 201      -3.849   4.610   2.683  1.00  4.85     0.081 C 
HETATM    6  N6    D T 201      -5.006   3.894   2.615  1.00  5.33    -0.062 NA
HETATM    7  N13   D T 201      -4.646   7.086   0.159  1.00  5.45    -0.126 N 
HETATM    8  N14   D T 201      -6.943   3.341   1.557  1.00  6.07     0.062 N 
ENDROOT
BRANCH   4   9
HETATM    9  C7    D T 201      -2.455   6.523   1.890  1.00  5.93     0.004 A 
HETATM   10  C8    D T 201      -1.338   6.246   1.071  1.00  6.93     0.001 A 
HETATM   11  C9    D T 201      -0.155   7.029   1.163  1.00  8.90     0.011 A 
HETATM   12  C10   D T 201      -0.151   8.074   2.138  1.00  8.73     0.058 A 
HETATM   13  C11   D T 201      -1.215   8.359   3.031  1.00  7.65     0.011 A 
HETATM   14 CL1    D T 201       1.295   9.046   2.228  1.00 14.54    -0.082 Cl
HETATM   15  C12   D T 201      -2.364   7.580   2.826  1.00  6.02     0.001 A 
ENDBRANCH   4   9
BRANCH   5  16
HETATM   16  C15   D T 201      -2.895   4.140   3.785  1.00  5.65     0.047 C 
HETATM   17  C16   D T 201      -3.330   4.744   5.142  1.00  8.46     0.007 C 
ENDBRANCH   5  16
TORSDOF 2
ENDMDL
MODEL 7
REMARK VINA RESULT:    -6.216      3.898      6.355
REMARK INTER + INTRA:          -7.479
REMARK INTER:                  -7.101
REMARK INTRA:                  -0.378
REMARK UNBOUND:                -0.536
REMARK  2 active torsions:
REMARK  status: ('A' for Active; 'I' for Inactive)
REMARK    1  A    between atoms: C4_4  and  C7_7 
REMARK    2  A    between atoms: C5_5  and  C15_15 
ROOT
HETATM    1  N1    D T 201      -2.877   5.950   1.028  1.00  5.16    -0.037 NA
HETATM    2  C2    D T 201      -2.652   4.968   1.940  1.00  5.00     0.769 C 
HETATM    3  C3    D T 201      -4.169   6.100   0.614  1.00  4.75     0.203 C 
HETATM    4  C4    D T 201      -5.266   5.328   1.087  1.00  4.81     0.052 C 
HETATM    5  C5    D T 201      -4.952   4.337   1.981  1.00  4.85     0.081 C 
HETATM    6  N6    D T 201      -3.655   4.112   2.331  1.00  5.33    -0.062 NA
HETATM    7  N13   D T 201      -4.382   7.089  -0.309  1.00  5.45    -0.126 N 
HETATM    8  N14   D T 201      -1.476   4.764   2.413  1.00  6.07     0.062 N 
ENDROOT
BRANCH   4   9
HETATM    9  C7    D T 201      -6.630   5.634   0.664  1.00  5.93     0.004 A 
HETATM   10  C8    D T 201      -7.404   6.657   1.256  1.00  6.93     0.001 A 
HETATM   11  C9    D T 201      -8.751   6.875   0.858  1.00  8.90     0.011 A 
HETATM   12  C10   D T 201      -9.277   5.993  -0.138  1.00  8.73     0.058 A 
HETATM   13  C11   D T 201      -8.571   4.911  -0.721  1.00  7.65     0.011 A 
HETATM   14 CL1    D T 201     -10.922   6.282  -0.639  1.00 14.54    -0.082 Cl
HETATM   15  C12   D T 201      -7.230   4.810  -0.317  1.00  6.02     0.001 A 
ENDBRANCH   4   9
BRANCH   5  16
HETATM   16  C15   D T 201      -5.937   3.327   2.578  1.00  5.65     0.047 C 
HETATM   17  C16   D T 201      -5.774   3.289   4.116  1.00  8.46     0.007 C 
ENDBRANCH   5  16
TORSDOF 2
ENDMDL
MODEL 8
REMARK VINA RESULT:    -6.115      3.551      5.286
REMARK INTER + INTRA:          -7.366
REMARK INTER:                  -7.048
REMARK INTRA:                  -0.318
REMARK UNBOUND:                -0.536
REMARK  2 active torsions:
REMARK  status: ('A' for Active; 'I' for Inactive)
REMARK    1  A    between atoms: C4_4  and  C7_7 
REMARK    2  A    between atoms: C5_5  and  C15_15 
ROOT
HETATM    1  N1    D T 201      -2.892   3.605   5.220  1.00  5.16    -0.037 NA
HETATM    2  C2    D T 201      -1.595   3.843   4.891  1.00  5.00     0.769 C 
HETATM    3  C3    D T 201      -3.817   3.892   4.257  1.00  4.75     0.203 C 
HETATM    4  C4    D T 201      -3.509   4.386   2.960  1.00  4.81     0.052 C 
HETATM    5  C5    D T 201      -2.183   4.629   2.717  1.00  4.85     0.081 C 
HETATM    6  N6    D T 201      -1.257   4.439   3.699  1.00  5.33    -0.062 NA
HETATM    7  N13   D T 201      -5.120   3.654   4.603  1.00  5.45    -0.126 N 
HETATM    8  N14   D T 201      -0.647   3.581   5.716  1.00  6.07     0.062 N 
ENDROOT
BRANCH   4   9
HETATM    9  C7    D T 201      -4.561   4.561   1.961  1.00  5.93     0.004 A 
HETATM   10  C8    D T 201      -5.140   5.817   1.673  1.00  6.93     0.001 A 
HETATM   11  C9    D T 201      -6.209   5.929   0.742  1.00  8.90     0.011 A 
HETATM   12  C10   D T 201      -6.675   4.714   0.149  1.00  8.73     0.058 A 
HETATM   13  C11   D T 201      -6.176   3.421   0.446  1.00  7.65     0.011 A 
HETATM   14 CL1    D T 201      -7.969   4.864  -1.011  1.00 14.54    -0.082 Cl
HETATM   15  C12   D T 201      -5.083   3.410   1.325  1.00  6.02     0.001 A 
ENDBRANCH   4   9
BRANCH   5  16
HETATM   16  C15   D T 201      -1.605   5.229   1.431  1.00  5.65     0.047 C 
HETATM   17  C16   D T 201      -0.676   6.417   1.784  1.00  8.46     0.007 C 
ENDBRANCH   5  16
TORSDOF 2
ENDMDL
MODEL 9
REMARK VINA RESULT:    -5.968      4.336      6.005
REMARK INTER + INTRA:          -7.202
REMARK INTER:                  -6.672
REMARK INTRA:                  -0.530
REMARK UNBOUND:                -0.536
REMARK  2 active torsions:
REMARK  status: ('A' for Active; 'I' for Inactive)
REMARK    1  A    between atoms: C4_4  and  C7_7 
REMARK    2  A    between atoms: C5_5  and  C15_15 
ROOT
HETATM    1  N1    D T 201      -2.193  11.475   2.780  1.00  5.16    -0.037 NA
HETATM    2  C2    D T 201      -0.892  11.298   3.130  1.00  5.00     0.769 C 
HETATM    3  C3    D T 201      -2.817  10.392   2.229  1.00  4.75     0.203 C 
HETATM    4  C4    D T 201      -2.211   9.122   2.031  1.00  4.81     0.052 C 
HETATM    5  C5    D T 201      -0.889   9.034   2.380  1.00  4.85     0.081 C 
HETATM    6  N6    D T 201      -0.225  10.131   2.842  1.00  5.33    -0.062 NA
HETATM    7  N13   D T 201      -4.126  10.584   1.875  1.00  5.45    -0.126 N 
HETATM    8  N14   D T 201      -0.223  12.246   3.681  1.00  6.07     0.062 N 
ENDROOT
BRANCH   4   9
HETATM    9  C7    D T 201      -2.994   7.993   1.532  1.00  5.93     0.004 A 
HETATM   10  C8    D T 201      -3.593   7.041   2.386  1.00  6.93     0.001 A 
HETATM   11  C9    D T 201      -4.288   5.921   1.853  1.00  8.90     0.011 A 
HETATM   12  C10   D T 201      -4.317   5.800   0.429  1.00  8.73     0.058 A 
HETATM   13  C11   D T 201      -3.681   6.687  -0.475  1.00  7.65     0.011 A 
HETATM   14 CL1    D T 201      -5.193   4.437  -0.217  1.00 14.54    -0.082 Cl
HETATM   15  C12   D T 201      -3.074   7.797   0.134  1.00  6.02     0.001 A 
ENDBRANCH   4   9
BRANCH   5  16
HETATM   16  C15   D T 201       0.004   7.803   2.196  1.00  5.65     0.047 C 
HETATM   17  C16   D T 201       0.662   7.844   0.795  1.00  8.46     0.007 C 
ENDBRANCH   5  16
TORSDOF 2
ENDMDL
