MODEL 1
REMARK VINA RESULT:      -6.9      0.000      0.000
REMARK  2 active torsions:
REMARK  status: ('A' for Active; 'I' for Inactive)
REMARK    1  A    between atoms: C4_4  and  C7_7 
REMARK    2  A    between atoms: C5_5  and  C15_15 
ROOT
HETATM    1  N1    D T 201      -3.769  -4.752   1.686  1.00  5.16    -0.037 NA
HETATM    2  C2    D T 201      -3.623  -5.899   2.399  1.00  5.00     0.769 C 
HETATM    3  C3    D T 201      -2.614  -4.157   1.266  1.00  4.75     0.203 C 
HETATM    4  C4    D T 201      -1.308  -4.668   1.501  1.00  4.81     0.052 C 
HETATM    5  C5    D T 201      -1.245  -5.811   2.253  1.00  4.85     0.081 C 
HETATM    6  N6    D T 201      -2.382  -6.364   2.761  1.00  5.33    -0.062 NA
HETATM    7  N13   D T 201      -2.774  -2.998   0.555  1.00  5.45    -0.126 N 
HETATM    8  N14   D T 201      -4.649  -6.550   2.817  1.00  6.07     0.062 N 
ENDROOT
BRANCH   4   9
HETATM    9  C7    D T 201      -0.137  -4.015   0.918  1.00  5.93     0.004 A 
HETATM   10  C8    D T 201       0.401  -4.388  -0.333  1.00  6.93     0.001 A 
HETATM   11  C9    D T 201       1.582  -3.770  -0.830  1.00  8.90     0.011 A 
HETATM   12  C10   D T 201       2.198  -2.790   0.012  1.00  8.73     0.058 A 
HETATM   13  C11   D T 201       1.740  -2.423   1.301  1.00  7.65     0.011 A 
HETATM   14 CL1    D T 201       3.631  -2.021  -0.616  1.00 14.54    -0.082 Cl
HETATM   15  C12   D T 201       0.535  -3.035   1.683  1.00  6.02     0.001 A 
ENDBRANCH   4   9
BRANCH   5  16
HETATM   16  C15   D T 201       0.039  -6.514   2.704  1.00  5.65     0.047 C 
HETATM   17  C16   D T 201       0.481  -5.956   4.080  1.00  8.46     0.007 C 
ENDBRANCH   5  16
TORSDOF 2
ENDMDL
MODEL 2
REMARK VINA RESULT:      -6.8      3.293      5.111
REMARK  2 active torsions:
REMARK  status: ('A' for Active; 'I' for Inactive)
REMARK    1  A    between atoms: C4_4  and  C7_7 
REMARK    2  A    between atoms: C5_5  and  C15_15 
ROOT
HETATM    1  N1    D T 201      -1.958  -5.472   3.390  1.00  5.16    -0.037 NA
HETATM    2  C2    D T 201      -1.834  -4.596   2.360  1.00  5.00     0.769 C 
HETATM    3  C3    D T 201      -1.028  -6.471   3.442  1.00  4.75     0.203 C 
HETATM    4  C4    D T 201       0.046  -6.626   2.523  1.00  4.81     0.052 C 
HETATM    5  C5    D T 201       0.083  -5.721   1.496  1.00  4.85     0.081 C 
HETATM    6  N6    D T 201      -0.892  -4.776   1.375  1.00  5.33    -0.062 NA
HETATM    7  N13   D T 201      -1.168  -7.352   4.481  1.00  5.45    -0.126 N 
HETATM    8  N14   D T 201      -2.642  -3.604   2.237  1.00  6.07     0.062 N 
ENDROOT
BRANCH   4   9
HETATM    9  C7    D T 201       1.053  -7.666   2.724  1.00  5.93     0.004 A 
HETATM   10  C8    D T 201       2.217  -7.463   3.498  1.00  6.93     0.001 A 
HETATM   11  C9    D T 201       3.203  -8.481   3.611  1.00  8.90     0.011 A 
HETATM   12  C10   D T 201       2.966  -9.689   2.881  1.00  8.73     0.058 A 
HETATM   13  C11   D T 201       1.850  -9.925   2.040  1.00  7.65     0.011 A 
HETATM   14 CL1    D T 201       4.168 -10.942   3.045  1.00 14.54    -0.082 Cl
HETATM   15  C12   D T 201       0.899  -8.892   2.038  1.00  6.02     0.001 A 
ENDBRANCH   4   9
BRANCH   5  16
HETATM   16  C15   D T 201       1.090  -5.720   0.342  1.00  5.65     0.047 C 
HETATM   17  C16   D T 201       2.340  -4.900   0.744  1.00  8.46     0.007 C 
ENDBRANCH   5  16
TORSDOF 2
ENDMDL
MODEL 3
REMARK VINA RESULT:      -6.8      1.116      2.853
REMARK  2 active torsions:
REMARK  status: ('A' for Active; 'I' for Inactive)
REMARK    1  A    between atoms: C4_4  and  C7_7 
REMARK    2  A    between atoms: C5_5  and  C15_15 
ROOT
HETATM    1  N1    D T 201      -2.557  -6.890   2.329  1.00  5.16    -0.037 NA
HETATM    2  C2    D T 201      -3.710  -6.182   2.450  1.00  5.00     0.769 C 
HETATM    3  C3    D T 201      -1.485  -6.207   1.828  1.00  4.75     0.203 C 
HETATM    4  C4    D T 201      -1.499  -4.833   1.463  1.00  4.81     0.052 C 
HETATM    5  C5    D T 201      -2.706  -4.199   1.587  1.00  4.85     0.081 C 
HETATM    6  N6    D T 201      -3.808  -4.889   1.993  1.00  5.33    -0.062 NA
HETATM    7  N13   D T 201      -0.331  -6.934   1.704  1.00  5.45    -0.126 N 
HETATM    8  N14   D T 201      -4.768  -6.724   2.936  1.00  6.07     0.062 N 
ENDROOT
BRANCH   4   9
HETATM    9  C7    D T 201      -0.271  -4.164   1.038  1.00  5.93     0.004 A 
HETATM   10  C8    D T 201       0.538  -3.416   1.922  1.00  6.93     0.001 A 
HETATM   11  C9    D T 201       1.688  -2.726   1.448  1.00  8.90     0.011 A 
HETATM   12  C10   D T 201       1.954  -2.807   0.045  1.00  8.73     0.058 A 
HETATM   13  C11   D T 201       1.144  -3.488  -0.898  1.00  7.65     0.011 A 
HETATM   14 CL1    D T 201       3.379  -1.978  -0.523  1.00 14.54    -0.082 Cl
HETATM   15  C12   D T 201       0.068  -4.192  -0.335  1.00  6.02     0.001 A 
ENDBRANCH   4   9
BRANCH   5  16
HETATM   16  C15   D T 201      -2.998  -2.748   1.191  1.00  5.65     0.047 C 
HETATM   17  C16   D T 201      -4.430  -2.365   1.638  1.00  8.46     0.007 C 
ENDBRANCH   5  16
TORSDOF 2
ENDMDL
MODEL 4
REMARK VINA RESULT:      -6.8      2.841      4.768
REMARK  2 active torsions:
REMARK  status: ('A' for Active; 'I' for Inactive)
REMARK    1  A    between atoms: C4_4  and  C7_7 
REMARK    2  A    between atoms: C5_5  and  C15_15 
ROOT
HETATM    1  N1    D T 201      -1.668  -3.810   0.955  1.00  5.16    -0.037 NA
HETATM    2  C2    D T 201      -0.993  -2.811   0.329  1.00  5.00     0.769 C 
HETATM    3  C3    D T 201      -0.931  -4.908   1.297  1.00  4.75     0.203 C 
HETATM    4  C4    D T 201       0.464  -5.051   1.067  1.00  4.81     0.052 C 
HETATM    5  C5    D T 201       1.065  -4.014   0.404  1.00  4.85     0.081 C 
HETATM    6  N6    D T 201       0.326  -2.954  -0.029  1.00  5.33    -0.062 NA
HETATM    7  N13   D T 201      -1.625  -5.911   1.921  1.00  5.45    -0.126 N 
HETATM    8  N14   D T 201      -1.588  -1.725  -0.009  1.00  6.07     0.062 N 
ENDROOT
BRANCH   4   9
HETATM    9  C7    D T 201       1.185  -6.220   1.566  1.00  5.93     0.004 A 
HETATM   10  C8    D T 201       1.319  -7.412   0.820  1.00  6.93     0.001 A 
HETATM   11  C9    D T 201       1.971  -8.548   1.373  1.00  8.90     0.011 A 
HETATM   12  C10   D T 201       2.446  -8.425   2.717  1.00  8.73     0.058 A 
HETATM   13  C11   D T 201       2.285  -7.279   3.535  1.00  7.65     0.011 A 
HETATM   14 CL1    D T 201       3.266  -9.815   3.379  1.00 14.54    -0.082 Cl
HETATM   15  C12   D T 201       1.687  -6.186   2.887  1.00  6.02     0.001 A 
ENDBRANCH   4   9
BRANCH   5  16
HETATM   16  C15   D T 201       2.534  -3.960  -0.026  1.00  5.65     0.047 C 
HETATM   17  C16   D T 201       2.905  -2.512  -0.430  1.00  8.46     0.007 C 
ENDBRANCH   5  16
TORSDOF 2
ENDMDL
MODEL 5
REMARK VINA RESULT:      -6.7      2.361      4.082
REMARK  2 active torsions:
REMARK  status: ('A' for Active; 'I' for Inactive)
REMARK    1  A    between atoms: C4_4  and  C7_7 
REMARK    2  A    between atoms: C5_5  and  C15_15 
ROOT
HETATM    1  N1    D T 201      -3.253  -4.446   2.663  1.00  5.16    -0.037 NA
HETATM    2  C2    D T 201      -3.006  -3.271   2.029  1.00  5.00     0.769 C 
HETATM    3  C3    D T 201      -2.202  -5.315   2.746  1.00  4.75     0.203 C 
HETATM    4  C4    D T 201      -0.896  -5.056   2.247  1.00  4.81     0.052 C 
HETATM    5  C5    D T 201      -0.737  -3.862   1.595  1.00  4.85     0.081 C 
HETATM    6  N6    D T 201      -1.799  -3.027   1.419  1.00  5.33    -0.062 NA
HETATM    7  N13   D T 201      -2.467  -6.499   3.381  1.00  5.45    -0.126 N 
HETATM    8  N14   D T 201      -3.920  -2.375   1.921  1.00  6.07     0.062 N 
ENDROOT
BRANCH   4   9
HETATM    9  C7    D T 201       0.191  -6.004   2.480  1.00  5.93     0.004 A 
HETATM   10  C8    D T 201       0.490  -7.058   1.589  1.00  6.93     0.001 A 
HETATM   11  C9    D T 201       1.514  -7.998   1.890  1.00  8.90     0.011 A 
HETATM   12  C10   D T 201       2.189  -7.834   3.141  1.00  8.73     0.058 A 
HETATM   13  C11   D T 201       1.889  -6.837   4.102  1.00  7.65     0.011 A 
HETATM   14 CL1    D T 201       3.460  -8.976   3.491  1.00 14.54    -0.082 Cl
HETATM   15  C12   D T 201       0.910  -5.916   3.694  1.00  6.02     0.001 A 
ENDBRANCH   4   9
BRANCH   5  16
HETATM   16  C15   D T 201       0.546  -3.385   0.907  1.00  5.65     0.047 C 
HETATM   17  C16   D T 201       1.418  -2.601   1.919  1.00  8.46     0.007 C 
ENDBRANCH   5  16
TORSDOF 2
ENDMDL
MODEL 6
REMARK VINA RESULT:      -6.6      3.479      4.817
REMARK  2 active torsions:
REMARK  status: ('A' for Active; 'I' for Inactive)
REMARK    1  A    between atoms: C4_4  and  C7_7 
REMARK    2  A    between atoms: C5_5  and  C15_15 
ROOT
HETATM    1  N1    D T 201      -0.653  -4.780   0.796  1.00  5.16    -0.037 NA
HETATM    2  C2    D T 201      -1.656  -4.645   1.702  1.00  5.00     0.769 C 
HETATM    3  C3    D T 201       0.260  -5.762   1.055  1.00  4.75     0.203 C 
HETATM    4  C4    D T 201       0.207  -6.644   2.169  1.00  4.81     0.052 C 
HETATM    5  C5    D T 201      -0.817  -6.423   3.051  1.00  4.85     0.081 C 
HETATM    6  N6    D T 201      -1.680  -5.387   2.859  1.00  5.33    -0.062 NA
HETATM    7  N13   D T 201       1.270  -5.883   0.138  1.00  5.45    -0.126 N 
HETATM    8  N14   D T 201      -2.580  -3.769   1.537  1.00  6.07     0.062 N 
ENDROOT
BRANCH   4   9
HETATM    9  C7    D T 201       1.171  -7.734   2.301  1.00  5.93     0.004 A 
HETATM   10  C8    D T 201       0.945  -9.023   1.771  1.00  6.93     0.001 A 
HETATM   11  C9    D T 201       1.881 -10.073   1.983  1.00  8.90     0.011 A 
HETATM   12  C10   D T 201       3.029  -9.759   2.777  1.00  8.73     0.058 A 
HETATM   13  C11   D T 201       3.277  -8.504   3.387  1.00  7.65     0.011 A 
HETATM   14 CL1    D T 201       4.184 -11.044   3.011  1.00 14.54    -0.082 Cl
HETATM   15  C12   D T 201       2.335  -7.512   3.073  1.00  6.02     0.001 A 
ENDBRANCH   4   9
BRANCH   5  16
HETATM   16  C15   D T 201      -1.048  -7.185   4.361  1.00  5.65     0.047 C 
HETATM   17  C16   D T 201      -0.314  -6.462   5.517  1.00  8.46     0.007 C 
ENDBRANCH   5  16
TORSDOF 2
ENDMDL
MODEL 7
REMARK VINA RESULT:      -6.4      1.807      2.446
REMARK  2 active torsions:
REMARK  status: ('A' for Active; 'I' for Inactive)
REMARK    1  A    between atoms: C4_4  and  C7_7 
REMARK    2  A    between atoms: C5_5  and  C15_15 
ROOT
HETATM    1  N1    D T 201      -3.402  -2.549   1.031  1.00  5.16    -0.037 NA
HETATM    2  C2    D T 201      -4.234  -3.480   1.565  1.00  5.00     0.769 C 
HETATM    3  C3    D T 201      -2.117  -2.953   0.807  1.00  4.75     0.203 C 
HETATM    4  C4    D T 201      -1.622  -4.260   1.067  1.00  4.81     0.052 C 
HETATM    5  C5    D T 201      -2.515  -5.130   1.633  1.00  4.85     0.081 C 
HETATM    6  N6    D T 201      -3.773  -4.715   1.952  1.00  5.33    -0.062 NA
HETATM    7  N13   D T 201      -1.286  -2.003   0.275  1.00  5.45    -0.126 N 
HETATM    8  N14   D T 201      -5.470  -3.208   1.789  1.00  6.07     0.062 N 
ENDROOT
BRANCH   4   9
HETATM    9  C7    D T 201      -0.257  -4.627   0.693  1.00  5.93     0.004 A 
HETATM   10  C8    D T 201       0.823  -4.579   1.602  1.00  6.93     0.001 A 
HETATM   11  C9    D T 201       2.146  -4.881   1.176  1.00  8.90     0.011 A 
HETATM   12  C10   D T 201       2.319  -5.198  -0.209  1.00  8.73     0.058 A 
HETATM   13  C11   D T 201       1.285  -5.199  -1.178  1.00  7.65     0.011 A 
HETATM   14 CL1    D T 201       3.940  -5.591  -0.717  1.00 14.54    -0.082 Cl
HETATM   15  C12   D T 201       0.004  -4.953  -0.657  1.00  6.02     0.001 A 
ENDBRANCH   4   9
BRANCH   5  16
HETATM   16  C15   D T 201      -2.207  -6.565   2.075  1.00  5.65     0.047 C 
HETATM   17  C16   D T 201      -1.695  -6.560   3.537  1.00  8.46     0.007 C 
ENDBRANCH   5  16
TORSDOF 2
ENDMDL
MODEL 8
REMARK VINA RESULT:      -6.4      3.383      5.474
REMARK  2 active torsions:
REMARK  status: ('A' for Active; 'I' for Inactive)
REMARK    1  A    between atoms: C4_4  and  C7_7 
REMARK    2  A    between atoms: C5_5  and  C15_15 
ROOT
HETATM    1  N1    D T 201       0.634  -6.124   2.966  1.00  5.16    -0.037 NA
HETATM    2  C2    D T 201       1.481  -5.973   1.915  1.00  5.00     0.769 C 
HETATM    3  C3    D T 201      -0.586  -5.524   2.843  1.00  4.75     0.203 C 
HETATM    4  C4    D T 201      -1.019  -4.796   1.701  1.00  4.81     0.052 C 
HETATM    5  C5    D T 201      -0.096  -4.664   0.698  1.00  4.85     0.081 C 
HETATM    6  N6    D T 201       1.159  -5.174   0.845  1.00  5.33    -0.062 NA
HETATM    7  N13   D T 201      -1.428  -5.677   3.912  1.00  5.45    -0.126 N 
HETATM    8  N14   D T 201       2.643  -6.522   1.921  1.00  6.07     0.062 N 
ENDROOT
BRANCH   4   9
HETATM    9  C7    D T 201      -2.384  -4.281   1.620  1.00  5.93     0.004 A 
HETATM   10  C8    D T 201      -2.720  -2.949   1.949  1.00  6.93     0.001 A 
HETATM   11  C9    D T 201      -4.073  -2.511   1.920  1.00  8.90     0.011 A 
HETATM   12  C10   D T 201      -5.058  -3.489   1.576  1.00  8.73     0.058 A 
HETATM   13  C11   D T 201      -4.788  -4.853   1.299  1.00  7.65     0.011 A 
HETATM   14 CL1    D T 201      -6.711  -2.937   1.519  1.00 14.54    -0.082 Cl
HETATM   15  C12   D T 201      -3.423  -5.181   1.288  1.00  6.02     0.001 A 
ENDBRANCH   4   9
BRANCH   5  16
HETATM   16  C15   D T 201      -0.292  -3.867  -0.597  1.00  5.65     0.047 C 
HETATM   17  C16   D T 201       0.431  -4.586  -1.763  1.00  8.46     0.007 C 
ENDBRANCH   5  16
TORSDOF 2
ENDMDL
MODEL 9
REMARK VINA RESULT:      -6.2      3.804      6.319
REMARK  2 active torsions:
REMARK  status: ('A' for Active; 'I' for Inactive)
REMARK    1  A    between atoms: C4_4  and  C7_7 
REMARK    2  A    between atoms: C5_5  and  C15_15 
ROOT
HETATM    1  N1    D T 201      -0.259  -5.537   2.807  1.00  5.16    -0.037 NA
HETATM    2  C2    D T 201       0.151  -4.551   1.967  1.00  5.00     0.769 C 
HETATM    3  C3    D T 201      -1.598  -5.807   2.804  1.00  4.75     0.203 C 
HETATM    4  C4    D T 201      -2.554  -5.155   1.978  1.00  4.81     0.052 C 
HETATM    5  C5    D T 201      -2.065  -4.153   1.182  1.00  4.85     0.081 C 
HETATM    6  N6    D T 201      -0.749  -3.806   1.244  1.00  5.33    -0.062 NA
HETATM    7  N13   D T 201      -2.000  -6.797   3.660  1.00  5.45    -0.126 N 
HETATM    8  N14   D T 201       1.394  -4.239   1.875  1.00  6.07     0.062 N 
ENDROOT
BRANCH   4   9
HETATM    9  C7    D T 201      -3.949  -5.589   1.969  1.00  5.93     0.004 A 
HETATM   10  C8    D T 201      -4.399  -6.703   1.226  1.00  6.93     0.001 A 
HETATM   11  C9    D T 201      -5.778  -7.048   1.194  1.00  8.90     0.011 A 
HETATM   12  C10   D T 201      -6.671  -6.197   1.920  1.00  8.73     0.058 A 
HETATM   13  C11   D T 201      -6.286  -5.032   2.630  1.00  7.65     0.011 A 
HETATM   14 CL1    D T 201      -8.357  -6.642   1.896  1.00 14.54    -0.082 Cl
HETATM   15  C12   D T 201      -4.901  -4.804   2.660  1.00  6.02     0.001 A 
ENDBRANCH   4   9
BRANCH   5  16
HETATM   16  C15   D T 201      -2.898  -3.255   0.262  1.00  5.65     0.047 C 
HETATM   17  C16   D T 201      -2.060  -2.863  -0.979  1.00  8.46     0.007 C 
ENDBRANCH   5  16
TORSDOF 2
ENDMDL
