MODEL 1
REMARK VINA RESULT:    -6.883      0.000      0.000
REMARK INTER + INTRA:          -8.226
REMARK INTER:                  -7.687
REMARK INTRA:                  -0.539
REMARK UNBOUND:                -0.539
REMARK  2 active torsions:
REMARK  status: ('A' for Active; 'I' for Inactive)
REMARK    1  A    between atoms: C4_4  and  C7_7 
REMARK    2  A    between atoms: C5_5  and  C15_15 
ROOT
HETATM    1  N1    D T 201      -3.798  -4.750   1.769  1.00  5.16    -0.037 NA
HETATM    2  C2    D T 201      -3.653  -5.899   2.479  1.00  5.00     0.769 C 
HETATM    3  C3    D T 201      -2.644  -4.163   1.337  1.00  4.75     0.203 C 
HETATM    4  C4    D T 201      -1.339  -4.683   1.557  1.00  4.81     0.052 C 
HETATM    5  C5    D T 201      -1.276  -5.827   2.307  1.00  4.85     0.081 C 
HETATM    6  N6    D T 201      -2.411  -6.373   2.827  1.00  5.33    -0.062 NA
HETATM    7  N13   D T 201      -2.803  -3.002   0.628  1.00  5.45    -0.126 N 
HETATM    8  N14   D T 201      -4.678  -6.543   2.907  1.00  6.07     0.062 N 
ENDROOT
BRANCH   4   9
HETATM    9  C7    D T 201      -0.170  -4.038   0.961  1.00  5.93     0.004 A 
HETATM   10  C8    D T 201       0.355  -4.416  -0.294  1.00  6.93     0.001 A 
HETATM   11  C9    D T 201       1.535  -3.806  -0.803  1.00  8.90     0.011 A 
HETATM   12  C10   D T 201       2.163  -2.828   0.030  1.00  8.73     0.058 A 
HETATM   13  C11   D T 201       1.719  -2.454   1.323  1.00  7.65     0.011 A 
HETATM   14 CL1    D T 201       3.595  -2.067  -0.613  1.00 14.54    -0.082 Cl
HETATM   15  C12   D T 201       0.515  -3.059   1.718  1.00  6.02     0.001 A 
ENDBRANCH   4   9
BRANCH   5  16
HETATM   16  C15   D T 201       0.009  -6.539   2.744  1.00  5.65     0.047 C 
HETATM   17  C16   D T 201       0.464  -5.992   4.118  1.00  8.46     0.007 C 
ENDBRANCH   5  16
TORSDOF 2
ENDMDL
MODEL 2
REMARK VINA RESULT:    -6.805      3.228      5.035
REMARK INTER + INTRA:          -8.139
REMARK INTER:                  -7.617
REMARK INTRA:                  -0.523
REMARK UNBOUND:                -0.539
REMARK  2 active torsions:
REMARK  status: ('A' for Active; 'I' for Inactive)
REMARK    1  A    between atoms: C4_4  and  C7_7 
REMARK    2  A    between atoms: C5_5  and  C15_15 
ROOT
HETATM    1  N1    D T 201      -2.036  -5.418   3.316  1.00  5.16    -0.037 NA
HETATM    2  C2    D T 201      -1.899  -4.531   2.297  1.00  5.00     0.769 C 
HETATM    3  C3    D T 201      -1.104  -6.415   3.372  1.00  4.75     0.203 C 
HETATM    4  C4    D T 201      -0.015  -6.557   2.469  1.00  4.81     0.052 C 
HETATM    5  C5    D T 201       0.036  -5.641   1.453  1.00  4.85     0.081 C 
HETATM    6  N6    D T 201      -0.940  -4.698   1.326  1.00  5.33    -0.062 NA
HETATM    7  N13   D T 201      -1.258  -7.307   4.400  1.00  5.45    -0.126 N 
HETATM    8  N14   D T 201      -2.708  -3.541   2.171  1.00  6.07     0.062 N 
ENDROOT
BRANCH   4   9
HETATM    9  C7    D T 201       0.993  -7.595   2.676  1.00  5.93     0.004 A 
HETATM   10  C8    D T 201       2.147  -7.393   3.465  1.00  6.93     0.001 A 
HETATM   11  C9    D T 201       3.135  -8.410   3.583  1.00  8.90     0.011 A 
HETATM   12  C10   D T 201       2.909  -9.615   2.845  1.00  8.73     0.058 A 
HETATM   13  C11   D T 201       1.803  -9.848   1.989  1.00  7.65     0.011 A 
HETATM   14 CL1    D T 201       4.112 -10.865   3.015  1.00 14.54    -0.082 Cl
HETATM   15  C12   D T 201       0.849  -8.818   1.983  1.00  6.02     0.001 A 
ENDBRANCH   4   9
BRANCH   5  16
HETATM   16  C15   D T 201       1.062  -5.624   0.315  1.00  5.65     0.047 C 
HETATM   17  C16   D T 201       2.293  -4.785   0.739  1.00  8.46     0.007 C 
ENDBRANCH   5  16
TORSDOF 2
ENDMDL
MODEL 3
REMARK VINA RESULT:    -6.762      1.081      2.853
REMARK INTER + INTRA:          -8.091
REMARK INTER:                  -7.714
REMARK INTRA:                  -0.377
REMARK UNBOUND:                -0.539
REMARK  2 active torsions:
REMARK  status: ('A' for Active; 'I' for Inactive)
REMARK    1  A    between atoms: C4_4  and  C7_7 
REMARK    2  A    between atoms: C5_5  and  C15_15 
ROOT
HETATM    1  N1    D T 201      -2.448  -6.937   2.288  1.00  5.16    -0.037 NA
HETATM    2  C2    D T 201      -3.610  -6.240   2.384  1.00  5.00     0.769 C 
HETATM    3  C3    D T 201      -1.377  -6.250   1.793  1.00  4.75     0.203 C 
HETATM    4  C4    D T 201      -1.400  -4.881   1.410  1.00  4.81     0.052 C 
HETATM    5  C5    D T 201      -2.615  -4.258   1.508  1.00  4.85     0.081 C 
HETATM    6  N6    D T 201      -3.715  -4.955   1.908  1.00  5.33    -0.062 NA
HETATM    7  N13   D T 201      -0.213  -6.965   1.695  1.00  5.45    -0.126 N 
HETATM    8  N14   D T 201      -4.669  -6.787   2.862  1.00  6.07     0.062 N 
ENDROOT
BRANCH   4   9
HETATM    9  C7    D T 201      -0.173  -4.204   0.992  1.00  5.93     0.004 A 
HETATM   10  C8    D T 201       0.582  -3.386   1.861  1.00  6.93     0.001 A 
HETATM   11  C9    D T 201       1.732  -2.693   1.392  1.00  8.90     0.011 A 
HETATM   12  C10   D T 201       2.054  -2.846   0.006  1.00  8.73     0.058 A 
HETATM   13  C11   D T 201       1.299  -3.601  -0.925  1.00  7.65     0.011 A 
HETATM   14 CL1    D T 201       3.480  -2.013  -0.555  1.00 14.54    -0.082 Cl
HETATM   15  C12   D T 201       0.219  -4.301  -0.363  1.00  6.02     0.001 A 
ENDBRANCH   4   9
BRANCH   5  16
HETATM   16  C15   D T 201      -2.916  -2.815   1.089  1.00  5.65     0.047 C 
HETATM   17  C16   D T 201      -4.347  -2.431   1.539  1.00  8.46     0.007 C 
ENDBRANCH   5  16
TORSDOF 2
ENDMDL
MODEL 4
REMARK VINA RESULT:    -6.736      2.785      4.725
REMARK INTER + INTRA:          -8.063
REMARK INTER:                  -7.719
REMARK INTRA:                  -0.344
REMARK UNBOUND:                -0.539
REMARK  2 active torsions:
REMARK  status: ('A' for Active; 'I' for Inactive)
REMARK    1  A    between atoms: C4_4  and  C7_7 
REMARK    2  A    between atoms: C5_5  and  C15_15 
ROOT
HETATM    1  N1    D T 201      -1.708  -3.732   0.953  1.00  5.16    -0.037 NA
HETATM    2  C2    D T 201      -1.059  -2.734   0.299  1.00  5.00     0.769 C 
HETATM    3  C3    D T 201      -0.940  -4.796   1.333  1.00  4.75     0.203 C 
HETATM    4  C4    D T 201       0.461  -4.904   1.114  1.00  4.81     0.052 C 
HETATM    5  C5    D T 201       1.033  -3.870   0.422  1.00  4.85     0.081 C 
HETATM    6  N6    D T 201       0.265  -2.847  -0.048  1.00  5.33    -0.062 NA
HETATM    7  N13   D T 201      -1.606  -5.800   1.985  1.00  5.45    -0.126 N 
HETATM    8  N14   D T 201      -1.686  -1.677  -0.077  1.00  6.07     0.062 N 
ENDROOT
BRANCH   4   9
HETATM    9  C7    D T 201       1.214  -6.034   1.654  1.00  5.93     0.004 A 
HETATM   10  C8    D T 201       1.509  -7.188   0.894  1.00  6.93     0.001 A 
HETATM   11  C9    D T 201       2.186  -8.292   1.482  1.00  8.90     0.011 A 
HETATM   12  C10   D T 201       2.516  -8.180   2.870  1.00  8.73     0.058 A 
HETATM   13  C11   D T 201       2.190  -7.075   3.696  1.00  7.65     0.011 A 
HETATM   14 CL1    D T 201       3.368  -9.528   3.575  1.00 14.54    -0.082 Cl
HETATM   15  C12   D T 201       1.580  -6.007   3.019  1.00  6.02     0.001 A 
ENDBRANCH   4   9
BRANCH   5  16
HETATM   16  C15   D T 201       2.503  -3.785  -0.003  1.00  5.65     0.047 C 
HETATM   17  C16   D T 201       2.857  -2.320  -0.358  1.00  8.46     0.007 C 
ENDBRANCH   5  16
TORSDOF 2
ENDMDL
MODEL 5
REMARK VINA RESULT:    -6.642      3.442      4.774
REMARK INTER + INTRA:          -7.957
REMARK INTER:                  -7.422
REMARK INTRA:                  -0.535
REMARK UNBOUND:                -0.539
REMARK  2 active torsions:
REMARK  status: ('A' for Active; 'I' for Inactive)
REMARK    1  A    between atoms: C4_4  and  C7_7 
REMARK    2  A    between atoms: C5_5  and  C15_15 
ROOT
HETATM    1  N1    D T 201      -0.656  -4.687   0.864  1.00  5.16    -0.037 NA
HETATM    2  C2    D T 201      -1.666  -4.562   1.764  1.00  5.00     0.769 C 
HETATM    3  C3    D T 201       0.252  -5.676   1.115  1.00  4.75     0.203 C 
HETATM    4  C4    D T 201       0.188  -6.573   2.216  1.00  4.81     0.052 C 
HETATM    5  C5    D T 201      -0.843  -6.362   3.093  1.00  4.85     0.081 C 
HETATM    6  N6    D T 201      -1.701  -5.320   2.910  1.00  5.33    -0.062 NA
HETATM    7  N13   D T 201       1.269  -5.786   0.205  1.00  5.45    -0.126 N 
HETATM    8  N14   D T 201      -2.586  -3.681   1.604  1.00  6.07     0.062 N 
ENDROOT
BRANCH   4   9
HETATM    9  C7    D T 201       1.148  -7.668   2.340  1.00  5.93     0.004 A 
HETATM   10  C8    D T 201       0.924  -8.948   1.785  1.00  6.93     0.001 A 
HETATM   11  C9    D T 201       1.855 -10.003   1.989  1.00  8.90     0.011 A 
HETATM   12  C10   D T 201       2.996  -9.705   2.801  1.00  8.73     0.058 A 
HETATM   13  C11   D T 201       3.240  -8.462   3.435  1.00  7.65     0.011 A 
HETATM   14 CL1    D T 201       4.145 -10.998   3.025  1.00 14.54    -0.082 Cl
HETATM   15  C12   D T 201       2.304  -7.462   3.128  1.00  6.02     0.001 A 
ENDBRANCH   4   9
BRANCH   5  16
HETATM   16  C15   D T 201      -1.086  -7.142   4.390  1.00  5.65     0.047 C 
HETATM   17  C16   D T 201      -0.376  -6.428   5.566  1.00  8.46     0.007 C 
ENDBRANCH   5  16
TORSDOF 2
ENDMDL
MODEL 6
REMARK VINA RESULT:    -6.621      2.248      4.025
REMARK INTER + INTRA:          -7.934
REMARK INTER:                  -7.442
REMARK INTRA:                  -0.492
REMARK UNBOUND:                -0.539
REMARK  2 active torsions:
REMARK  status: ('A' for Active; 'I' for Inactive)
REMARK    1  A    between atoms: C4_4  and  C7_7 
REMARK    2  A    between atoms: C5_5  and  C15_15 
ROOT
HETATM    1  N1    D T 201      -3.601  -4.483   2.543  1.00  5.16    -0.037 NA
HETATM    2  C2    D T 201      -3.404  -3.297   1.911  1.00  5.00     0.769 C 
HETATM    3  C3    D T 201      -2.506  -5.292   2.653  1.00  4.75     0.203 C 
HETATM    4  C4    D T 201      -1.205  -4.962   2.184  1.00  4.81     0.052 C 
HETATM    5  C5    D T 201      -1.097  -3.762   1.532  1.00  4.85     0.081 C 
HETATM    6  N6    D T 201      -2.199  -2.987   1.329  1.00  5.33    -0.062 NA
HETATM    7  N13   D T 201      -2.719  -6.488   3.285  1.00  5.45    -0.126 N 
HETATM    8  N14   D T 201      -4.364  -2.453   1.780  1.00  6.07     0.062 N 
ENDROOT
BRANCH   4   9
HETATM    9  C7    D T 201      -0.072  -5.848   2.444  1.00  5.93     0.004 A 
HETATM   10  C8    D T 201       0.280  -6.912   1.584  1.00  6.93     0.001 A 
HETATM   11  C9    D T 201       1.348  -7.791   1.913  1.00  8.90     0.011 A 
HETATM   12  C10   D T 201       2.012  -7.557   3.159  1.00  8.73     0.058 A 
HETATM   13  C11   D T 201       1.662  -6.548   4.090  1.00  7.65     0.011 A 
HETATM   14 CL1    D T 201       3.337  -8.624   3.542  1.00 14.54    -0.082 Cl
HETATM   15  C12   D T 201       0.640  -5.689   3.655  1.00  6.02     0.001 A 
ENDBRANCH   4   9
BRANCH   5  16
HETATM   16  C15   D T 201       0.174  -3.215   0.872  1.00  5.65     0.047 C 
HETATM   17  C16   D T 201       0.258  -3.720  -0.589  1.00  8.46     0.007 C 
ENDBRANCH   5  16
TORSDOF 2
ENDMDL
MODEL 7
REMARK VINA RESULT:    -6.371      3.525      5.130
REMARK INTER + INTRA:          -7.655
REMARK INTER:                  -7.280
REMARK INTRA:                  -0.375
REMARK UNBOUND:                -0.539
REMARK  2 active torsions:
REMARK  status: ('A' for Active; 'I' for Inactive)
REMARK    1  A    between atoms: C4_4  and  C7_7 
REMARK    2  A    between atoms: C5_5  and  C15_15 
ROOT
HETATM    1  N1    D T 201       1.045  -4.662   0.243  1.00  5.16    -0.037 NA
HETATM    2  C2    D T 201       1.512  -5.412   1.274  1.00  5.00     0.769 C 
HETATM    3  C3    D T 201      -0.273  -4.310   0.307  1.00  4.75     0.203 C 
HETATM    4  C4    D T 201      -1.151  -4.651   1.372  1.00  4.81     0.052 C 
HETATM    5  C5    D T 201      -0.612  -5.434   2.357  1.00  4.85     0.081 C 
HETATM    6  N6    D T 201       0.674  -5.874   2.261  1.00  5.33    -0.062 NA
HETATM    7  N13   D T 201      -0.733  -3.559  -0.742  1.00  5.45    -0.126 N 
HETATM    8  N14   D T 201       2.744  -5.772   1.322  1.00  6.07     0.062 N 
ENDROOT
BRANCH   4   9
HETATM    9  C7    D T 201      -2.519  -4.136   1.402  1.00  5.93     0.004 A 
HETATM   10  C8    D T 201      -2.842  -2.852   1.893  1.00  6.93     0.001 A 
HETATM   11  C9    D T 201      -4.195  -2.420   1.966  1.00  8.90     0.011 A 
HETATM   12  C10   D T 201      -5.193  -3.357   1.549  1.00  8.73     0.058 A 
HETATM   13  C11   D T 201      -4.933  -4.678   1.108  1.00  7.65     0.011 A 
HETATM   14 CL1    D T 201      -6.847  -2.809   1.619  1.00 14.54    -0.082 Cl
HETATM   15  C12   D T 201      -3.569  -4.997   1.008  1.00  6.02     0.001 A 
ENDBRANCH   4   9
BRANCH   5  16
HETATM   16  C15   D T 201      -1.368  -5.994   3.567  1.00  5.65     0.047 C 
HETATM   17  C16   D T 201      -0.400  -6.124   4.768  1.00  8.46     0.007 C 
ENDBRANCH   5  16
TORSDOF 2
ENDMDL
MODEL 8
REMARK VINA RESULT:    -6.297      3.345      5.428
REMARK INTER + INTRA:          -7.572
REMARK INTER:                  -7.238
REMARK INTRA:                  -0.334
REMARK UNBOUND:                -0.539
REMARK  2 active torsions:
REMARK  status: ('A' for Active; 'I' for Inactive)
REMARK    1  A    between atoms: C4_4  and  C7_7 
REMARK    2  A    between atoms: C5_5  and  C15_15 
ROOT
HETATM    1  N1    D T 201       0.738  -6.426   2.987  1.00  5.16    -0.037 NA
HETATM    2  C2    D T 201       1.572  -6.315   1.922  1.00  5.00     0.769 C 
HETATM    3  C3    D T 201      -0.461  -5.779   2.879  1.00  4.75     0.203 C 
HETATM    4  C4    D T 201      -0.883  -5.042   1.739  1.00  4.81     0.052 C 
HETATM    5  C5    D T 201       0.028  -4.954   0.720  1.00  4.85     0.081 C 
HETATM    6  N6    D T 201       1.264  -5.511   0.850  1.00  5.33    -0.062 NA
HETATM    7  N13   D T 201      -1.290  -5.892   3.963  1.00  5.45    -0.126 N 
HETATM    8  N14   D T 201       2.712  -6.909   1.913  1.00  6.07     0.062 N 
ENDROOT
BRANCH   4   9
HETATM    9  C7    D T 201      -2.229  -4.475   1.676  1.00  5.93     0.004 A 
HETATM   10  C8    D T 201      -2.508  -3.131   2.007  1.00  6.93     0.001 A 
HETATM   11  C9    D T 201      -3.843  -2.641   1.997  1.00  8.90     0.011 A 
HETATM   12  C10   D T 201      -4.870  -3.581   1.667  1.00  8.73     0.058 A 
HETATM   13  C11   D T 201      -4.657  -4.954   1.389  1.00  7.65     0.011 A 
HETATM   14 CL1    D T 201      -6.501  -2.965   1.632  1.00 14.54    -0.082 Cl
HETATM   15  C12   D T 201      -3.306  -5.335   1.360  1.00  6.02     0.001 A 
ENDBRANCH   4   9
BRANCH   5  16
HETATM   16  C15   D T 201      -0.158  -4.159  -0.577  1.00  5.65     0.047 C 
HETATM   17  C16   D T 201       0.754  -4.747  -1.682  1.00  8.46     0.007 C 
ENDBRANCH   5  16
TORSDOF 2
ENDMDL
MODEL 9
REMARK VINA RESULT:    -6.264      3.814      6.313
REMARK INTER + INTRA:          -7.535
REMARK INTER:                  -7.162
REMARK INTRA:                  -0.374
REMARK UNBOUND:                -0.539
REMARK  2 active torsions:
REMARK  status: ('A' for Active; 'I' for Inactive)
REMARK    1  A    between atoms: C4_4  and  C7_7 
REMARK    2  A    between atoms: C5_5  and  C15_15 
ROOT
HETATM    1  N1    D T 201      -0.362  -5.548   2.818  1.00  5.16    -0.037 NA
HETATM    2  C2    D T 201       0.079  -4.577   1.977  1.00  5.00     0.769 C 
HETATM    3  C3    D T 201      -1.706  -5.793   2.797  1.00  4.75     0.203 C 
HETATM    4  C4    D T 201      -2.637  -5.130   1.952  1.00  4.81     0.052 C 
HETATM    5  C5    D T 201      -2.118  -4.144   1.156  1.00  4.85     0.081 C 
HETATM    6  N6    D T 201      -0.796  -3.821   1.234  1.00  5.33    -0.062 NA
HETATM    7  N13   D T 201      -2.139  -6.769   3.655  1.00  5.45    -0.126 N 
HETATM    8  N14   D T 201       1.328  -4.289   1.901  1.00  6.07     0.062 N 
ENDROOT
BRANCH   4   9
HETATM    9  C7    D T 201      -4.040  -5.538   1.926  1.00  5.93     0.004 A 
HETATM   10  C8    D T 201      -4.505  -6.628   1.156  1.00  6.93     0.001 A 
HETATM   11  C9    D T 201      -5.890  -6.947   1.108  1.00  8.90     0.011 A 
HETATM   12  C10   D T 201      -6.772  -6.095   1.847  1.00  8.73     0.058 A 
HETATM   13  C11   D T 201      -6.371  -4.953   2.584  1.00  7.65     0.011 A 
HETATM   14 CL1    D T 201      -8.466  -6.509   1.803  1.00 14.54    -0.082 Cl
HETATM   15  C12   D T 201      -4.982  -4.751   2.627  1.00  6.02     0.001 A 
ENDBRANCH   4   9
BRANCH   5  16
HETATM   16  C15   D T 201      -2.921  -3.239   0.216  1.00  5.65     0.047 C 
HETATM   17  C16   D T 201      -2.072  -2.906  -1.036  1.00  8.46     0.007 C 
ENDBRANCH   5  16
TORSDOF 2
ENDMDL
