MODEL 1
REMARK VINA RESULT:    -8.090      0.000      0.000
REMARK INTER + INTRA:         -13.402
REMARK INTER:                 -11.873
REMARK INTRA:                  -1.529
REMARK UNBOUND:                -1.529
REMARK  8 active torsions:
REMARK  status: ('A' for Active; 'I' for Inactive)
REMARK    1  A    between atoms: C20_8  and  C12_12 
REMARK    2  A    between atoms: C22_10  and  C19_16 
REMARK       I    between atoms: C22_10  and  N25_19 
REMARK    3  A    between atoms: C12_12  and  C18_15 
REMARK    4  A    between atoms: N25_19  and  C37_23 
REMARK    5  A    between atoms: C37_23  and  C38_24 
REMARK    6  A    between atoms: C38_24  and  N4_25 
REMARK    7  A    between atoms: N4_25  and  C39_26 
REMARK    8  A    between atoms: N4_25  and  C40_27 
ROOT
HETATM    1  C4    D T 701       2.647  18.245  -1.934  1.00 38.18     0.052 C 
HETATM    2  C13   D T 701       4.099  14.720  -2.558  1.00 38.14     0.002 A 
HETATM    3  C3    D T 701       4.982  13.609  -3.077  1.00 38.74     0.033 C 
HETATM    4  C14   D T 701       2.994  16.780  -2.000  1.00 38.01     0.064 A 
HETATM    5  C18   D T 701       2.914  14.597  -1.675  1.00 36.77     0.077 A 
HETATM    6  C19   D T 701       4.128  16.187  -2.763  1.00 40.17     0.069 A 
HETATM    7  N23   D T 701       2.330  15.778  -1.376  1.00 37.14    -0.250 NA
ENDROOT
BRANCH   5   8
HETATM    8  C12   D T 701       2.417  13.302  -1.142  1.00 34.67     0.024 C 
BRANCH   8   9
HETATM    9  C20   D T 701       2.476  12.866   0.275  1.00 33.52     0.061 A 
HETATM   10  C17   D T 701       3.757  12.537   0.922  1.00 32.71     0.025 A 
HETATM   11  C7    D T 701       5.074  12.529   0.477  1.00 32.88     0.031 A 
HETATM   12  C16   D T 701       3.395  12.169   2.326  1.00 32.41     0.085 A 
HETATM   13  C15   D T 701       6.072  12.160   1.382  1.00 33.17     0.140 A 
HETATM   14  C5    D T 701       5.758  11.813   2.697  1.00 32.94     0.031 A 
HETATM   15  F29   D T 701       7.356  12.147   0.996  1.00 35.13    -0.204 F 
HETATM   16  C6    D T 701       4.442  11.808   3.171  1.00 32.25     0.021 A 
HETATM   17  N24   D T 701       2.048  12.255   2.506  1.00 32.41    -0.208 NA
HETATM   18  C21   D T 701       1.494  12.648   1.348  1.00 32.73     0.279 A 
HETATM   19  O27   D T 701       0.242  12.823   1.201  1.00 31.29    -0.265 OA
ENDBRANCH   8   9
ENDBRANCH   5   8
BRANCH   6  20
HETATM   20  C22   D T 701       5.094  16.966  -3.589  1.00 43.71     0.276 C 
HETATM   21  N25   D T 701       4.795  17.263  -4.853  1.00 47.28    -0.232 NA
HETATM   22  O28   D T 701       6.137  17.329  -3.075  1.00 44.02    -0.266 OA
BRANCH  21  23
HETATM   23  C37   D T 701       5.654  18.084  -5.684  1.00 50.13     0.164 C 
BRANCH  23  24
HETATM   24  C38   D T 701       6.115  17.347  -6.943  1.00 52.43     0.276 C 
BRANCH  24  25
HETATM   25  N4    D T 701       7.517  16.869  -6.854  1.00 55.35     0.139 N 
BRANCH  25  26
HETATM   26  C39   D T 701       7.594  15.425  -6.484  1.00 56.24     0.250 C 
HETATM   27  C42   D T 701       7.985  15.124  -5.047  1.00 56.21     0.037 C 
ENDBRANCH  25  26
BRANCH  25  28
HETATM   28  C40   D T 701       8.304  17.287  -8.041  1.00 56.18     0.250 C 
HETATM   29  C41   D T 701       9.249  16.185  -8.487  1.00 55.71     0.037 C 
ENDBRANCH  25  28
ENDBRANCH  24  25
ENDBRANCH  23  24
ENDBRANCH  21  23
ENDBRANCH   6  20
TORSDOF 8
ENDMDL
MODEL 2
REMARK VINA RESULT:    -7.454      4.802      8.822
REMARK INTER + INTRA:         -12.470
REMARK INTER:                 -11.251
REMARK INTRA:                  -1.219
REMARK UNBOUND:                -1.529
REMARK  8 active torsions:
REMARK  status: ('A' for Active; 'I' for Inactive)
REMARK    1  A    between atoms: C20_8  and  C12_12 
REMARK    2  A    between atoms: C22_10  and  C19_16 
REMARK       I    between atoms: C22_10  and  N25_19 
REMARK    3  A    between atoms: C12_12  and  C18_15 
REMARK    4  A    between atoms: N25_19  and  C37_23 
REMARK    5  A    between atoms: C37_23  and  C38_24 
REMARK    6  A    between atoms: C38_24  and  N4_25 
REMARK    7  A    between atoms: N4_25  and  C39_26 
REMARK    8  A    between atoms: N4_25  and  C40_27 
ROOT
HETATM    1  C4    D T 701       4.715   9.904   4.422  1.00 38.18     0.052 C 
HETATM    2  C13   D T 701       6.651  12.077   1.882  1.00 38.14     0.002 A 
HETATM    3  C3    D T 701       7.780  12.641   1.051  1.00 38.74     0.033 C 
HETATM    4  C14   D T 701       5.208  10.881   3.385  1.00 38.01     0.064 A 
HETATM    5  C18   D T 701       5.235  12.515   1.900  1.00 36.77     0.077 A 
HETATM    6  C19   D T 701       6.607  10.988   2.885  1.00 40.17     0.069 A 
HETATM    7  N23   D T 701       4.455  11.809   2.749  1.00 37.14    -0.250 NA
ENDROOT
BRANCH   5   8
HETATM    8  C12   D T 701       4.702  13.613   1.053  1.00 34.67     0.024 C 
BRANCH   8   9
HETATM    9  C20   D T 701       3.632  13.482   0.034  1.00 33.52     0.061 A 
HETATM   10  C17   D T 701       2.208  13.500   0.412  1.00 32.71     0.025 A 
HETATM   11  C7    D T 701       1.549  13.617   1.631  1.00 32.88     0.031 A 
HETATM   12  C16   D T 701       1.466  13.364  -0.879  1.00 32.41     0.085 A 
HETATM   13  C15   D T 701       0.152  13.602   1.626  1.00 33.17     0.140 A 
HETATM   14  C5    D T 701      -0.562  13.477   0.434  1.00 32.94     0.031 A 
HETATM   15  F29   D T 701      -0.523  13.720   2.778  1.00 35.13    -0.204 F 
HETATM   16  C6    D T 701       0.075  13.353  -0.806  1.00 32.25     0.021 A 
HETATM   17  N24   D T 701       2.338  13.266  -1.920  1.00 32.41    -0.208 NA
HETATM   18  C21   D T 701       3.586  13.326  -1.427  1.00 32.73     0.279 A 
HETATM   19  O27   D T 701       4.625  13.263  -2.160  1.00 31.29    -0.265 OA
ENDBRANCH   8   9
ENDBRANCH   5   8
BRANCH   6  20
HETATM   20  C22   D T 701       7.741  10.137   3.348  1.00 43.71     0.276 C 
HETATM   21  N25   D T 701       8.348  10.414   4.500  1.00 47.28    -0.232 NA
HETATM   22  O28   D T 701       8.075   9.190   2.658  1.00 44.02    -0.266 OA
BRANCH  21  23
HETATM   23  C37   D T 701       9.403   9.581   5.044  1.00 50.13     0.164 C 
BRANCH  23  24
HETATM   24  C38   D T 701      10.790  10.024   4.573  1.00 52.43     0.276 C 
BRANCH  24  25
HETATM   25  N4    D T 701      10.940  11.500   4.524  1.00 55.35     0.139 N 
BRANCH  25  26
HETATM   26  C39   D T 701      11.595  12.037   5.752  1.00 56.24     0.250 C 
HETATM   27  C42   D T 701      12.084  11.003   6.754  1.00 56.21     0.037 C 
ENDBRANCH  25  26
BRANCH  25  28
HETATM   28  C40   D T 701      11.514  11.939   3.227  1.00 56.18     0.250 C 
HETATM   29  C41   D T 701      11.132  10.986   2.108  1.00 55.71     0.037 C 
ENDBRANCH  25  28
ENDBRANCH  24  25
ENDBRANCH  23  24
ENDBRANCH  21  23
ENDBRANCH   6  20
TORSDOF 8
ENDMDL
MODEL 3
REMARK VINA RESULT:    -7.335      3.008      4.160
REMARK INTER + INTRA:         -12.295
REMARK INTER:                 -10.944
REMARK INTRA:                  -1.350
REMARK UNBOUND:                -1.529
REMARK  8 active torsions:
REMARK  status: ('A' for Active; 'I' for Inactive)
REMARK    1  A    between atoms: C20_8  and  C12_12 
REMARK    2  A    between atoms: C22_10  and  C19_16 
REMARK       I    between atoms: C22_10  and  N25_19 
REMARK    3  A    between atoms: C12_12  and  C18_15 
REMARK    4  A    between atoms: N25_19  and  C37_23 
REMARK    5  A    between atoms: C37_23  and  C38_24 
REMARK    6  A    between atoms: C38_24  and  N4_25 
REMARK    7  A    between atoms: N4_25  and  C39_26 
REMARK    8  A    between atoms: N4_25  and  C40_27 
ROOT
HETATM    1  C4    D T 701       4.494  13.920  -2.794  1.00 38.18     0.052 C 
HETATM    2  C13   D T 701       7.439  14.572  -0.381  1.00 38.14     0.002 A 
HETATM    3  C3    D T 701       8.816  14.929   0.132  1.00 38.74     0.033 C 
HETATM    4  C14   D T 701       5.449  14.098  -1.642  1.00 38.01     0.064 A 
HETATM    5  C18   D T 701       6.265  14.133   0.410  1.00 36.77     0.077 A 
HETATM    6  C19   D T 701       6.869  14.536  -1.748  1.00 40.17     0.069 A 
HETATM    7  N23   D T 701       5.164  13.889  -0.335  1.00 37.14    -0.250 NA
ENDROOT
BRANCH   5   8
HETATM    8  C12   D T 701       6.276  13.991   1.889  1.00 34.67     0.024 C 
BRANCH   8   9
HETATM    9  C20   D T 701       6.367  12.714   2.639  1.00 33.52     0.061 A 
HETATM   10  C17   D T 701       5.175  11.886   2.889  1.00 32.71     0.025 A 
HETATM   11  C7    D T 701       3.832  12.028   2.559  1.00 32.88     0.031 A 
HETATM   12  C16   D T 701       5.682  10.699   3.643  1.00 32.41     0.085 A 
HETATM   13  C15   D T 701       2.947  11.023   2.958  1.00 33.17     0.140 A 
HETATM   14  C5    D T 701       3.397   9.906   3.663  1.00 32.94     0.031 A 
HETATM   15  F29   D T 701       1.645  11.117   2.654  1.00 35.13    -0.204 F 
HETATM   16  C6    D T 701       4.742   9.740   4.011  1.00 32.25     0.021 A 
HETATM   17  N24   D T 701       7.026  10.800   3.838  1.00 32.41    -0.208 NA
HETATM   18  C21   D T 701       7.446  11.946   3.278  1.00 32.73     0.279 A 
HETATM   19  O27   D T 701       8.662  12.322   3.293  1.00 31.29    -0.265 OA
ENDBRANCH   8   9
ENDBRANCH   5   8
BRANCH   6  20
HETATM   20  C22   D T 701       7.564  14.861  -3.027  1.00 43.71     0.276 C 
HETATM   21  N25   D T 701       8.007  16.098  -3.244  1.00 47.28    -0.232 NA
HETATM   22  O28   D T 701       7.723  13.970  -3.843  1.00 44.02    -0.266 OA
BRANCH  21  23
HETATM   23  C37   D T 701       8.759  16.458  -4.431  1.00 50.13     0.164 C 
BRANCH  23  24
HETATM   24  C38   D T 701       7.918  17.263  -5.424  1.00 52.43     0.276 C 
BRANCH  24  25
HETATM   25  N4    D T 701       7.499  16.468  -6.605  1.00 55.35     0.139 N 
BRANCH  25  26
HETATM   26  C39   D T 701       8.564  15.522  -7.049  1.00 56.24     0.250 C 
HETATM   27  C42   D T 701       9.432  15.990  -8.206  1.00 56.21     0.037 C 
ENDBRANCH  25  26
BRANCH  25  28
HETATM   28  C40   D T 701       6.145  15.890  -6.411  1.00 56.18     0.250 C 
HETATM   29  C41   D T 701       5.292  16.778  -5.525  1.00 55.71     0.037 C 
ENDBRANCH  25  28
ENDBRANCH  24  25
ENDBRANCH  23  24
ENDBRANCH  21  23
ENDBRANCH   6  20
TORSDOF 8
ENDMDL
MODEL 4
REMARK VINA RESULT:    -7.315      2.283      2.866
REMARK INTER + INTRA:         -12.265
REMARK INTER:                 -11.162
REMARK INTRA:                  -1.102
REMARK UNBOUND:                -1.529
REMARK  8 active torsions:
REMARK  status: ('A' for Active; 'I' for Inactive)
REMARK    1  A    between atoms: C20_8  and  C12_12 
REMARK    2  A    between atoms: C22_10  and  C19_16 
REMARK       I    between atoms: C22_10  and  N25_19 
REMARK    3  A    between atoms: C12_12  and  C18_15 
REMARK    4  A    between atoms: N25_19  and  C37_23 
REMARK    5  A    between atoms: C37_23  and  C38_24 
REMARK    6  A    between atoms: C38_24  and  N4_25 
REMARK    7  A    between atoms: N4_25  and  C39_26 
REMARK    8  A    between atoms: N4_25  and  C40_27 
ROOT
HETATM    1  C4    D T 701       2.838  18.334  -3.062  1.00 38.18     0.052 C 
HETATM    2  C13   D T 701       4.748  14.986  -2.794  1.00 38.14     0.002 A 
HETATM    3  C3    D T 701       5.744  13.883  -3.066  1.00 38.74     0.033 C 
HETATM    4  C14   D T 701       3.393  16.970  -2.738  1.00 38.01     0.064 A 
HETATM    5  C18   D T 701       3.663  14.997  -1.784  1.00 36.77     0.077 A 
HETATM    6  C19   D T 701       4.542  16.313  -3.421  1.00 40.17     0.069 A 
HETATM    7  N23   D T 701       2.934  16.135  -1.777  1.00 37.14    -0.250 NA
ENDROOT
BRANCH   5   8
HETATM    8  C12   D T 701       3.405  13.877  -0.842  1.00 34.67     0.024 C 
BRANCH   8   9
HETATM    9  C20   D T 701       4.236  13.523   0.335  1.00 33.52     0.061 A 
HETATM   10  C17   D T 701       3.806  12.490   1.293  1.00 32.71     0.025 A 
HETATM   11  C7    D T 701       2.681  11.677   1.374  1.00 32.88     0.031 A 
HETATM   12  C16   D T 701       4.906  12.420   2.303  1.00 32.41     0.085 A 
HETATM   13  C15   D T 701       2.594  10.779   2.441  1.00 33.17     0.140 A 
HETATM   14  C5    D T 701       3.609  10.695   3.395  1.00 32.94     0.031 A 
HETATM   15  F29   D T 701       1.530   9.971   2.553  1.00 35.13    -0.204 F 
HETATM   16  C6    D T 701       4.750  11.503   3.340  1.00 32.25     0.021 A 
HETATM   17  N24   D T 701       5.887  13.314   1.998  1.00 32.41    -0.208 NA
HETATM   18  C21   D T 701       5.529  13.964   0.879  1.00 32.73     0.279 A 
HETATM   19  O27   D T 701       6.247  14.866   0.340  1.00 31.29    -0.265 OA
ENDBRANCH   8   9
ENDBRANCH   5   8
BRANCH   6  20
HETATM   20  C22   D T 701       5.317  16.913  -4.545  1.00 43.71     0.276 C 
HETATM   21  N25   D T 701       6.388  17.662  -4.284  1.00 47.28    -0.232 NA
HETATM   22  O28   D T 701       4.955  16.687  -5.686  1.00 44.02    -0.266 OA
BRANCH  21  23
HETATM   23  C37   D T 701       7.229  18.207  -5.332  1.00 50.13     0.164 C 
BRANCH  23  24
HETATM   24  C38   D T 701       8.696  17.805  -5.162  1.00 52.43     0.276 C 
BRANCH  24  25
HETATM   25  N4    D T 701       8.997  16.464  -5.722  1.00 55.35     0.139 N 
BRANCH  25  26
HETATM   26  C39   D T 701       9.856  16.546  -6.940  1.00 56.24     0.250 C 
HETATM   27  C42   D T 701       9.233  16.038  -8.230  1.00 56.21     0.037 C 
ENDBRANCH  25  26
BRANCH  25  28
HETATM   28  C40   D T 701       9.448  15.528  -4.661  1.00 56.18     0.250 C 
HETATM   29  C41   D T 701      10.837  14.993  -4.958  1.00 55.71     0.037 C 
ENDBRANCH  25  28
ENDBRANCH  24  25
ENDBRANCH  23  24
ENDBRANCH  21  23
ENDBRANCH   6  20
TORSDOF 8
ENDMDL
MODEL 5
REMARK VINA RESULT:    -7.257      5.499      9.819
REMARK INTER + INTRA:         -12.180
REMARK INTER:                 -11.364
REMARK INTRA:                  -0.816
REMARK UNBOUND:                -1.529
REMARK  8 active torsions:
REMARK  status: ('A' for Active; 'I' for Inactive)
REMARK    1  A    between atoms: C20_8  and  C12_12 
REMARK    2  A    between atoms: C22_10  and  C19_16 
REMARK       I    between atoms: C22_10  and  N25_19 
REMARK    3  A    between atoms: C12_12  and  C18_15 
REMARK    4  A    between atoms: N25_19  and  C37_23 
REMARK    5  A    between atoms: C37_23  and  C38_24 
REMARK    6  A    between atoms: C38_24  and  N4_25 
REMARK    7  A    between atoms: N4_25  and  C39_26 
REMARK    8  A    between atoms: N4_25  and  C40_27 
ROOT
HETATM    1  C4    D T 701       9.177  12.734   1.703  1.00 38.18     0.052 C 
HETATM    2  C13   D T 701       6.031  11.127   3.267  1.00 38.14     0.002 A 
HETATM    3  C3    D T 701       5.144  10.178   4.039  1.00 38.74     0.033 C 
HETATM    4  C14   D T 701       7.806  12.331   2.183  1.00 38.01     0.064 A 
HETATM    5  C18   D T 701       5.619  12.324   2.495  1.00 36.77     0.077 A 
HETATM    6  C19   D T 701       7.494  11.152   3.039  1.00 40.17     0.069 A 
HETATM    7  N23   D T 701       6.648  12.979   1.912  1.00 37.14    -0.250 NA
ENDROOT
BRANCH   5   8
HETATM    8  C12   D T 701       4.212  12.786   2.383  1.00 34.67     0.024 C 
BRANCH   8   9
HETATM    9  C20   D T 701       3.397  12.798   1.142  1.00 33.52     0.061 A 
HETATM   10  C17   D T 701       1.956  13.099   1.176  1.00 32.71     0.025 A 
HETATM   11  C7    D T 701       1.071  13.405   2.204  1.00 32.88     0.031 A 
HETATM   12  C16   D T 701       1.516  13.029  -0.251  1.00 32.41     0.085 A 
HETATM   13  C15   D T 701      -0.264  13.647   1.872  1.00 33.17     0.140 A 
HETATM   14  C5    D T 701      -0.698  13.588   0.547  1.00 32.94     0.031 A 
HETATM   15  F29   D T 701      -1.149  13.953   2.832  1.00 35.13    -0.204 F 
HETATM   16  C6    D T 701       0.170  13.279  -0.507  1.00 32.25     0.021 A 
HETATM   17  N24   D T 701       2.566  12.713  -1.057  1.00 32.41    -0.208 NA
HETATM   18  C21   D T 701       3.657  12.569  -0.286  1.00 32.73     0.279 A 
HETATM   19  O27   D T 701       4.803  12.275  -0.754  1.00 31.29    -0.265 OA
ENDBRANCH   8   9
ENDBRANCH   5   8
BRANCH   6  20
HETATM   20  C22   D T 701       8.506  10.181   3.546  1.00 43.71     0.276 C 
HETATM   21  N25   D T 701       9.324  10.535   4.536  1.00 47.28    -0.232 NA
HETATM   22  O28   D T 701       8.548   9.072   3.045  1.00 44.02    -0.266 OA
BRANCH  21  23
HETATM   23  C37   D T 701      10.274   9.613   5.127  1.00 50.13     0.164 C 
BRANCH  23  24
HETATM   24  C38   D T 701      10.457   9.855   6.627  1.00 52.43     0.276 C 
BRANCH  24  25
HETATM   25  N4    D T 701      11.839  10.265   6.983  1.00 55.35     0.139 N 
BRANCH  25  26
HETATM   26  C39   D T 701      12.759   9.095   7.092  1.00 56.24     0.250 C 
HETATM   27  C42   D T 701      13.545   8.983   8.388  1.00 56.21     0.037 C 
ENDBRANCH  25  26
BRANCH  25  28
HETATM   28  C40   D T 701      12.303  11.389   6.131  1.00 56.18     0.250 C 
HETATM   29  C41   D T 701      11.801  12.720   6.661  1.00 55.71     0.037 C 
ENDBRANCH  25  28
ENDBRANCH  24  25
ENDBRANCH  23  24
ENDBRANCH  21  23
ENDBRANCH   6  20
TORSDOF 8
ENDMDL
MODEL 6
REMARK VINA RESULT:    -7.203      2.357      3.183
REMARK INTER + INTRA:         -12.101
REMARK INTER:                 -11.243
REMARK INTRA:                  -0.857
REMARK UNBOUND:                -1.529
REMARK  8 active torsions:
REMARK  status: ('A' for Active; 'I' for Inactive)
REMARK    1  A    between atoms: C20_8  and  C12_12 
REMARK    2  A    between atoms: C22_10  and  C19_16 
REMARK       I    between atoms: C22_10  and  N25_19 
REMARK    3  A    between atoms: C12_12  and  C18_15 
REMARK    4  A    between atoms: N25_19  and  C37_23 
REMARK    5  A    between atoms: C37_23  and  C38_24 
REMARK    6  A    between atoms: C38_24  and  N4_25 
REMARK    7  A    between atoms: N4_25  and  C39_26 
REMARK    8  A    between atoms: N4_25  and  C40_27 
ROOT
HETATM    1  C4    D T 701       7.177  14.186  -3.942  1.00 38.18     0.052 C 
HETATM    2  C13   D T 701       3.935  15.414  -2.237  1.00 38.14     0.002 A 
HETATM    3  C3    D T 701       2.699  16.229  -1.935  1.00 38.74     0.033 C 
HETATM    4  C14   D T 701       5.960  14.440  -3.090  1.00 38.01     0.064 A 
HETATM    5  C18   D T 701       4.454  14.246  -1.486  1.00 36.77     0.077 A 
HETATM    6  C19   D T 701       4.961  15.525  -3.300  1.00 40.17     0.069 A 
HETATM    7  N23   D T 701       5.586  13.721  -2.006  1.00 37.14    -0.250 NA
ENDROOT
BRANCH   5   8
HETATM    8  C12   D T 701       3.789  13.679  -0.285  1.00 34.67     0.024 C 
BRANCH   8   9
HETATM    9  C20   D T 701       4.472  13.206   0.945  1.00 33.52     0.061 A 
HETATM   10  C17   D T 701       3.921  12.104   1.752  1.00 32.71     0.025 A 
HETATM   11  C7    D T 701       2.785  11.312   1.630  1.00 32.88     0.031 A 
HETATM   12  C16   D T 701       4.895  11.923   2.872  1.00 32.41     0.085 A 
HETATM   13  C15   D T 701       2.564  10.327   2.596  1.00 33.17     0.140 A 
HETATM   14  C5    D T 701       3.459  10.140   3.650  1.00 32.94     0.031 A 
HETATM   15  F29   D T 701       1.485   9.536   2.513  1.00 35.13    -0.204 F 
HETATM   16  C6    D T 701       4.608  10.925   3.799  1.00 32.25     0.021 A 
HETATM   17  N24   D T 701       5.914  12.819   2.763  1.00 32.41    -0.208 NA
HETATM   18  C21   D T 701       5.697  13.570   1.672  1.00 32.73     0.279 A 
HETATM   19  O27   D T 701       6.484  14.500   1.301  1.00 31.29    -0.265 OA
ENDBRANCH   8   9
ENDBRANCH   5   8
BRANCH   6  20
HETATM   20  C22   D T 701       5.025  16.537  -4.394  1.00 43.71     0.276 C 
HETATM   21  N25   D T 701       5.256  16.144  -5.645  1.00 47.28    -0.232 NA
HETATM   22  O28   D T 701       4.846  17.709  -4.112  1.00 44.02    -0.266 OA
BRANCH  21  23
HETATM   23  C37   D T 701       5.251  17.067  -6.764  1.00 50.13     0.164 C 
BRANCH  23  24
HETATM   24  C38   D T 701       6.612  17.134  -7.462  1.00 52.43     0.276 C 
BRANCH  24  25
HETATM   25  N4    D T 701       7.615  17.920  -6.701  1.00 55.35     0.139 N 
BRANCH  25  26
HETATM   26  C39   D T 701       8.721  17.062  -6.183  1.00 56.24     0.250 C 
HETATM   27  C42   D T 701       8.939  15.744  -6.907  1.00 56.21     0.037 C 
ENDBRANCH  25  26
BRANCH  25  28
HETATM   28  C40   D T 701       8.022  19.138  -7.447  1.00 56.18     0.250 C 
HETATM   29  C41   D T 701       9.197  19.824  -6.774  1.00 55.71     0.037 C 
ENDBRANCH  25  28
ENDBRANCH  24  25
ENDBRANCH  23  24
ENDBRANCH  21  23
ENDBRANCH   6  20
TORSDOF 8
ENDMDL
MODEL 7
REMARK VINA RESULT:    -7.183      2.778      4.143
REMARK INTER + INTRA:         -12.072
REMARK INTER:                 -10.612
REMARK INTRA:                  -1.460
REMARK UNBOUND:                -1.529
REMARK  8 active torsions:
REMARK  status: ('A' for Active; 'I' for Inactive)
REMARK    1  A    between atoms: C20_8  and  C12_12 
REMARK    2  A    between atoms: C22_10  and  C19_16 
REMARK       I    between atoms: C22_10  and  N25_19 
REMARK    3  A    between atoms: C12_12  and  C18_15 
REMARK    4  A    between atoms: N25_19  and  C37_23 
REMARK    5  A    between atoms: C37_23  and  C38_24 
REMARK    6  A    between atoms: C38_24  and  N4_25 
REMARK    7  A    between atoms: N4_25  and  C39_26 
REMARK    8  A    between atoms: N4_25  and  C40_27 
ROOT
HETATM    1  C4    D T 701       8.601  14.125   0.645  1.00 38.18     0.052 C 
HETATM    2  C13   D T 701       5.297  14.228  -1.355  1.00 38.14     0.002 A 
HETATM    3  C3    D T 701       4.240  14.651  -2.348  1.00 38.74     0.033 C 
HETATM    4  C14   D T 701       7.237  13.933   0.033  1.00 38.01     0.064 A 
HETATM    5  C18   D T 701       5.219  13.128  -0.364  1.00 36.77     0.077 A 
HETATM    6  C19   D T 701       6.652  14.752  -1.066  1.00 40.17     0.069 A 
HETATM    7  N23   D T 701       6.334  12.988   0.387  1.00 37.14    -0.250 NA
ENDROOT
BRANCH   5   8
HETATM    8  C12   D T 701       4.039  12.237  -0.215  1.00 34.67     0.024 C 
BRANCH   8   9
HETATM    9  C20   D T 701       2.965  12.380   0.798  1.00 33.52     0.061 A 
HETATM   10  C17   D T 701       1.620  12.853   0.428  1.00 32.71     0.025 A 
HETATM   11  C7    D T 701       1.049  13.247  -0.777  1.00 32.88     0.031 A 
HETATM   12  C16   D T 701       0.842  12.839   1.705  1.00 32.41     0.085 A 
HETATM   13  C15   D T 701      -0.292  13.641  -0.771  1.00 33.17     0.140 A 
HETATM   14  C5    D T 701      -1.038  13.636   0.409  1.00 32.94     0.031 A 
HETATM   15  F29   D T 701      -0.884  14.021  -1.912  1.00 35.13    -0.204 F 
HETATM   16  C6    D T 701      -0.487  13.248   1.635  1.00 32.25     0.021 A 
HETATM   17  N24   D T 701       1.627  12.416   2.734  1.00 32.41    -0.208 NA
HETATM   18  C21   D T 701       2.850  12.151   2.246  1.00 32.73     0.279 A 
HETATM   19  O27   D T 701       3.810  11.732   2.969  1.00 31.29    -0.265 OA
ENDBRANCH   8   9
ENDBRANCH   5   8
BRANCH   6  20
HETATM   20  C22   D T 701       7.338  15.900  -1.725  1.00 43.71     0.276 C 
HETATM   21  N25   D T 701       7.813  15.765  -2.962  1.00 47.28    -0.232 NA
HETATM   22  O28   D T 701       7.434  16.949  -1.112  1.00 44.02    -0.266 OA
BRANCH  21  23
HETATM   23  C37   D T 701       8.419  16.865  -3.688  1.00 50.13     0.164 C 
BRANCH  23  24
HETATM   24  C38   D T 701       7.418  17.571  -4.606  1.00 52.43     0.276 C 
BRANCH  24  25
HETATM   25  N4    D T 701       6.723  16.640  -5.529  1.00 55.35     0.139 N 
BRANCH  25  26
HETATM   26  C39   D T 701       5.268  16.949  -5.644  1.00 56.24     0.250 C 
HETATM   27  C42   D T 701       4.637  17.642  -4.448  1.00 56.21     0.037 C 
ENDBRANCH  25  26
BRANCH  25  28
HETATM   28  C40   D T 701       7.467  16.493  -6.806  1.00 56.18     0.250 C 
HETATM   29  C41   D T 701       7.301  17.723  -7.680  1.00 55.71     0.037 C 
ENDBRANCH  25  28
ENDBRANCH  24  25
ENDBRANCH  23  24
ENDBRANCH  21  23
ENDBRANCH   6  20
TORSDOF 8
ENDMDL
MODEL 8
REMARK VINA RESULT:    -7.054      2.808      3.719
REMARK INTER + INTRA:         -11.882
REMARK INTER:                 -10.656
REMARK INTRA:                  -1.227
REMARK UNBOUND:                -1.529
REMARK  8 active torsions:
REMARK  status: ('A' for Active; 'I' for Inactive)
REMARK    1  A    between atoms: C20_8  and  C12_12 
REMARK    2  A    between atoms: C22_10  and  C19_16 
REMARK       I    between atoms: C22_10  and  N25_19 
REMARK    3  A    between atoms: C12_12  and  C18_15 
REMARK    4  A    between atoms: N25_19  and  C37_23 
REMARK    5  A    between atoms: C37_23  and  C38_24 
REMARK    6  A    between atoms: C38_24  and  N4_25 
REMARK    7  A    between atoms: N4_25  and  C39_26 
REMARK    8  A    between atoms: N4_25  and  C40_27 
ROOT
HETATM    1  C4    D T 701       8.911  16.510  -1.137  1.00 38.18     0.052 C 
HETATM    2  C13   D T 701       6.094  14.139  -2.305  1.00 38.14     0.002 A 
HETATM    3  C3    D T 701       4.963  13.555  -3.119  1.00 38.74     0.033 C 
HETATM    4  C14   D T 701       7.885  15.427  -1.353  1.00 38.01     0.064 A 
HETATM    5  C18   D T 701       6.676  13.604  -1.051  1.00 36.77     0.077 A 
HETATM    6  C19   D T 701       6.917  15.358  -2.482  1.00 40.17     0.069 A 
HETATM    7  N23   D T 701       7.688  14.351  -0.556  1.00 37.14    -0.250 NA
ENDROOT
BRANCH   5   8
HETATM    8  C12   D T 701       6.215  12.351  -0.399  1.00 34.67     0.024 C 
BRANCH   8   9
HETATM    9  C20   D T 701       5.408  12.264   0.844  1.00 33.52     0.061 A 
HETATM   10  C17   D T 701       3.937  12.298   0.806  1.00 32.71     0.025 A 
HETATM   11  C7    D T 701       3.014  12.410  -0.229  1.00 32.88     0.031 A 
HETATM   12  C16   D T 701       3.512  12.168   2.233  1.00 32.41     0.085 A 
HETATM   13  C15   D T 701       1.656  12.402   0.099  1.00 33.17     0.140 A 
HETATM   14  C5    D T 701       1.235  12.282   1.424  1.00 32.94     0.031 A 
HETATM   15  F29   D T 701       0.732  12.500  -0.868  1.00 35.13    -0.204 F 
HETATM   16  C6    D T 701       2.142  12.172   2.484  1.00 32.25     0.021 A 
HETATM   17  N24   D T 701       4.601  12.076   3.045  1.00 32.41    -0.208 NA
HETATM   18  C21   D T 701       5.702  12.133   2.278  1.00 32.73     0.279 A 
HETATM   19  O27   D T 701       6.881  12.068   2.751  1.00 31.29    -0.265 OA
ENDBRANCH   8   9
ENDBRANCH   5   8
BRANCH   6  20
HETATM   20  C22   D T 701       6.814  16.368  -3.575  1.00 43.71     0.276 C 
HETATM   21  N25   D T 701       7.583  16.252  -4.657  1.00 47.28    -0.232 NA
HETATM   22  O28   D T 701       6.009  17.274  -3.455  1.00 44.02    -0.266 OA
BRANCH  21  23
HETATM   23  C37   D T 701       7.476  17.154  -5.788  1.00 50.13     0.164 C 
BRANCH  23  24
HETATM   24  C38   D T 701       8.747  17.982  -5.988  1.00 52.43     0.276 C 
BRANCH  24  25
HETATM   25  N4    D T 701       9.487  17.618  -7.222  1.00 55.35     0.139 N 
BRANCH  25  26
HETATM   26  C39   D T 701      10.833  17.047  -6.920  1.00 56.24     0.250 C 
HETATM   27  C42   D T 701      12.024  17.862  -7.395  1.00 56.21     0.037 C 
ENDBRANCH  25  26
BRANCH  25  28
HETATM   28  C40   D T 701       8.633  16.833  -8.148  1.00 56.18     0.250 C 
HETATM   29  C41   D T 701       9.430  15.733  -8.828  1.00 55.71     0.037 C 
ENDBRANCH  25  28
ENDBRANCH  24  25
ENDBRANCH  23  24
ENDBRANCH  21  23
ENDBRANCH   6  20
TORSDOF 8
ENDMDL
MODEL 9
REMARK VINA RESULT:    -6.995      2.758      8.884
REMARK INTER + INTRA:         -11.796
REMARK INTER:                 -10.703
REMARK INTRA:                  -1.093
REMARK UNBOUND:                -1.529
REMARK  8 active torsions:
REMARK  status: ('A' for Active; 'I' for Inactive)
REMARK    1  A    between atoms: C20_8  and  C12_12 
REMARK    2  A    between atoms: C22_10  and  C19_16 
REMARK       I    between atoms: C22_10  and  N25_19 
REMARK    3  A    between atoms: C12_12  and  C18_15 
REMARK    4  A    between atoms: N25_19  and  C37_23 
REMARK    5  A    between atoms: C37_23  and  C38_24 
REMARK    6  A    between atoms: C38_24  and  N4_25 
REMARK    7  A    between atoms: N4_25  and  C39_26 
REMARK    8  A    between atoms: N4_25  and  C40_27 
ROOT
HETATM    1  C4    D T 701       6.549  12.570  -0.813  1.00 38.18     0.052 C 
HETATM    2  C13   D T 701       4.798  15.761  -2.107  1.00 38.14     0.002 A 
HETATM    3  C3    D T 701       3.728  16.789  -2.391  1.00 38.74     0.033 C 
HETATM    4  C14   D T 701       6.133  13.882  -1.427  1.00 38.01     0.064 A 
HETATM    5  C18   D T 701       6.218  15.792  -2.532  1.00 36.77     0.077 A 
HETATM    6  C19   D T 701       4.767  14.473  -1.376  1.00 40.17     0.069 A 
HETATM    7  N23   D T 701       6.936  14.724  -2.119  1.00 37.14    -0.250 NA
ENDROOT
BRANCH   5   8
HETATM    8  C12   D T 701       6.816  16.901  -3.320  1.00 34.67     0.024 C 
BRANCH   8   9
HETATM    9  C20   D T 701       6.868  16.986  -4.800  1.00 33.52     0.061 A 
HETATM   10  C17   D T 701       8.045  16.522  -5.553  1.00 32.71     0.025 A 
HETATM   11  C7    D T 701       9.261  15.964  -5.171  1.00 32.88     0.031 A 
HETATM   12  C16   D T 701       7.701  16.756  -6.989  1.00 32.41     0.085 A 
HETATM   13  C15   D T 701      10.173  15.626  -6.173  1.00 33.17     0.140 A 
HETATM   14  C5    D T 701       9.873  15.835  -7.520  1.00 32.94     0.031 A 
HETATM   15  F29   D T 701      11.353  15.079  -5.849  1.00 35.13    -0.204 F 
HETATM   16  C6    D T 701       8.660  16.397  -7.933  1.00 32.25     0.021 A 
HETATM   17  N24   D T 701       6.461  17.309  -7.095  1.00 32.41    -0.208 NA
HETATM   18  C21   D T 701       5.961  17.456  -5.857  1.00 32.73     0.279 A 
HETATM   19  O27   D T 701       4.809  17.947  -5.628  1.00 31.29    -0.265 OA
ENDBRANCH   8   9
ENDBRANCH   5   8
BRANCH   6  20
HETATM   20  C22   D T 701       3.594  13.841  -0.705  1.00 43.71     0.276 C 
HETATM   21  N25   D T 701       2.522  13.509  -1.422  1.00 47.28    -0.232 NA
HETATM   22  O28   D T 701       3.655  13.630   0.493  1.00 44.02    -0.266 OA
BRANCH  21  23
HETATM   23  C37   D T 701       1.383  12.820  -0.846  1.00 50.13     0.164 C 
BRANCH  23  24
HETATM   24  C38   D T 701       0.104  13.656  -0.925  1.00 52.43     0.276 C 
BRANCH  24  25
HETATM   25  N4    D T 701      -0.642  13.695   0.358  1.00 55.35     0.139 N 
BRANCH  25  26
HETATM   26  C39   D T 701      -2.073  13.307   0.185  1.00 56.24     0.250 C 
HETATM   27  C42   D T 701      -2.449  12.734  -1.171  1.00 56.21     0.037 C 
ENDBRANCH  25  26
BRANCH  25  28
HETATM   28  C40   D T 701       0.103  12.996   1.435  1.00 56.18     0.250 C 
HETATM   29  C41   D T 701       0.423  13.940   2.580  1.00 55.71     0.037 C 
ENDBRANCH  25  28
ENDBRANCH  24  25
ENDBRANCH  23  24
ENDBRANCH  21  23
ENDBRANCH   6  20
TORSDOF 8
ENDMDL
