MODEL 1
REMARK VINA RESULT:    -8.034      0.000      0.000
REMARK INTER + INTRA:         -12.502
REMARK INTER:                 -11.791
REMARK INTRA:                  -0.710
REMARK UNBOUND:                -0.710
REMARK  8 active torsions:
REMARK  status: ('A' for Active; 'I' for Inactive)
REMARK    1  A    between atoms: C20_8  and  C12_12 
REMARK    2  A    between atoms: C22_10  and  C19_16 
REMARK       I    between atoms: C22_10  and  N25_19 
REMARK    3  A    between atoms: C12_12  and  C18_15 
REMARK    4  A    between atoms: N25_19  and  C37_23 
REMARK    5  A    between atoms: C37_23  and  C38_24 
REMARK    6  A    between atoms: C38_24  and  N4_25 
REMARK    7  A    between atoms: N4_25  and  C39_26 
REMARK    8  A    between atoms: N4_25  and  C40_27 
ROOT
HETATM    1  C4    D T 701       8.203   4.812  -1.664  1.00 38.18     0.052 C 
HETATM    2  C13   D T 701       9.261   1.866  -3.929  1.00 38.14     0.002 A 
HETATM    3  C3    D T 701       9.924   0.593  -4.403  1.00 38.74     0.033 C 
HETATM    4  C14   D T 701       8.446   3.795  -2.751  1.00 38.01     0.064 A 
HETATM    5  C18   D T 701       8.374   2.765  -4.703  1.00 36.77     0.077 A 
HETATM    6  C19   D T 701       9.297   2.579  -2.631  1.00 40.17     0.069 A 
HETATM    7  N23   D T 701       7.928   3.831  -4.000  1.00 37.14    -0.250 NA
ENDROOT
BRANCH   5   8
HETATM    8  C12   D T 701       7.983   2.519  -6.116  1.00 34.67     0.024 C 
BRANCH   8   9
HETATM    9  C20   D T 701       7.337   3.501  -7.022  1.00 33.52     0.061 A 
HETATM   10  C17   D T 701       6.329   3.081  -8.010  1.00 32.71     0.025 A 
HETATM   11  C7    D T 701       5.775   1.850  -8.341  1.00 32.88     0.031 A 
HETATM   12  C16   D T 701       5.919   4.343  -8.699  1.00 32.41     0.085 A 
HETATM   13  C15   D T 701       4.812   1.812  -9.352  1.00 33.17     0.140 A 
HETATM   14  C5    D T 701       4.413   2.977 -10.009  1.00 32.94     0.031 A 
HETATM   15  F29   D T 701       4.247   0.647  -9.697  1.00 35.13    -0.204 F 
HETATM   16  C6    D T 701       4.955   4.229  -9.699  1.00 32.25     0.021 A 
HETATM   17  N24   D T 701       6.605   5.404  -8.194  1.00 32.41    -0.208 NA
HETATM   18  C21   D T 701       7.430   4.952  -7.235  1.00 32.73     0.279 A 
HETATM   19  O27   D T 701       8.204   5.712  -6.571  1.00 31.29    -0.265 OA
ENDBRANCH   8   9
ENDBRANCH   5   8
BRANCH   6  20
HETATM   20  C22   D T 701      10.049   2.186  -1.402  1.00 43.71     0.276 C 
HETATM   21  N25   D T 701       9.387   1.733  -0.338  1.00 47.28    -0.232 NA
HETATM   22  O28   D T 701      11.263   2.277  -1.413  1.00 44.02    -0.266 OA
BRANCH  21  23
HETATM   23  C37   D T 701      10.064   1.263   0.854  1.00 50.13     0.164 C 
BRANCH  23  24
HETATM   24  C38   D T 701       9.579  -0.122   1.286  1.00 52.43     0.276 C 
BRANCH  24  25
HETATM   25  N4    D T 701      10.681  -1.004   1.745  1.00 55.35     0.139 N 
BRANCH  25  26
HETATM   26  C39   D T 701      11.400  -0.434   2.921  1.00 56.24     0.250 C 
HETATM   27  C42   D T 701      10.660  -0.487   4.247  1.00 56.21     0.037 C 
ENDBRANCH  25  26
BRANCH  25  28
HETATM   28  C40   D T 701      10.226  -2.412   1.872  1.00 56.18     0.250 C 
HETATM   29  C41   D T 701      11.405  -3.366   1.923  1.00 55.71     0.037 C 
ENDBRANCH  25  28
ENDBRANCH  24  25
ENDBRANCH  23  24
ENDBRANCH  21  23
ENDBRANCH   6  20
TORSDOF 8
ENDMDL
MODEL 2
REMARK VINA RESULT:    -7.779      1.136      1.867
REMARK INTER + INTRA:         -12.127
REMARK INTER:                 -11.153
REMARK INTRA:                  -0.974
REMARK UNBOUND:                -0.710
REMARK  8 active torsions:
REMARK  status: ('A' for Active; 'I' for Inactive)
REMARK    1  A    between atoms: C20_8  and  C12_12 
REMARK    2  A    between atoms: C22_10  and  C19_16 
REMARK       I    between atoms: C22_10  and  N25_19 
REMARK    3  A    between atoms: C12_12  and  C18_15 
REMARK    4  A    between atoms: N25_19  and  C37_23 
REMARK    5  A    between atoms: C37_23  and  C38_24 
REMARK    6  A    between atoms: C38_24  and  N4_25 
REMARK    7  A    between atoms: N4_25  and  C39_26 
REMARK    8  A    between atoms: N4_25  and  C40_27 
ROOT
HETATM    1  C4    D T 701      11.615   0.003  -3.623  1.00 38.18     0.052 C 
HETATM    2  C13   D T 701       8.438   2.200  -3.568  1.00 38.14     0.002 A 
HETATM    3  C3    D T 701       7.349   3.127  -3.080  1.00 38.74     0.033 C 
HETATM    4  C14   D T 701      10.346   0.773  -3.883  1.00 38.01     0.064 A 
HETATM    5  C18   D T 701       8.563   1.579  -4.908  1.00 36.77     0.077 A 
HETATM    6  C19   D T 701       9.638   1.642  -2.902  1.00 40.17     0.069 A 
HETATM    7  N23   D T 701       9.655   0.794  -5.047  1.00 37.14    -0.250 NA
ENDROOT
BRANCH   5   8
HETATM    8  C12   D T 701       7.596   1.806  -6.014  1.00 34.67     0.024 C 
BRANCH   8   9
HETATM    9  C20   D T 701       7.416   3.074  -6.762  1.00 33.52     0.061 A 
HETATM   10  C17   D T 701       6.456   3.176  -7.875  1.00 32.71     0.025 A 
HETATM   11  C7    D T 701       5.581   2.270  -8.463  1.00 32.88     0.031 A 
HETATM   12  C16   D T 701       6.560   4.592  -8.344  1.00 32.41     0.085 A 
HETATM   13  C15   D T 701       4.789   2.714  -9.524  1.00 33.17     0.140 A 
HETATM   14  C5    D T 701       4.868   4.031  -9.979  1.00 32.94     0.031 A 
HETATM   15  F29   D T 701       3.926   1.875 -10.114  1.00 35.13    -0.204 F 
HETATM   16  C6    D T 701       5.741   4.963  -9.408  1.00 32.25     0.021 A 
HETATM   17  N24   D T 701       7.484   5.268  -7.607  1.00 32.41    -0.208 NA
HETATM   18  C21   D T 701       7.995   4.424  -6.698  1.00 32.73     0.279 A 
HETATM   19  O27   D T 701       8.885   4.767  -5.855  1.00 31.29    -0.265 OA
ENDBRANCH   8   9
ENDBRANCH   5   8
BRANCH   6  20
HETATM   20  C22   D T 701      10.085   1.875  -1.497  1.00 43.71     0.276 C 
HETATM   21  N25   D T 701       9.416   1.317  -0.489  1.00 47.28    -0.232 NA
HETATM   22  O28   D T 701      11.072   2.564  -1.310  1.00 44.02    -0.266 OA
BRANCH  21  23
HETATM   23  C37   D T 701       9.845   1.440   0.890  1.00 50.13     0.164 C 
BRANCH  23  24
HETATM   24  C38   D T 701       9.872   0.091   1.610  1.00 52.43     0.276 C 
BRANCH  24  25
HETATM   25  N4    D T 701      11.218  -0.534   1.620  1.00 55.35     0.139 N 
BRANCH  25  26
HETATM   26  C39   D T 701      11.809  -0.568   2.990  1.00 56.24     0.250 C 
HETATM   27  C42   D T 701      11.007   0.124   4.080  1.00 56.21     0.037 C 
ENDBRANCH  25  26
BRANCH  25  28
HETATM   28  C40   D T 701      11.221  -1.817   0.872  1.00 56.18     0.250 C 
HETATM   29  C41   D T 701      10.304  -2.835   1.527  1.00 55.71     0.037 C 
ENDBRANCH  25  28
ENDBRANCH  24  25
ENDBRANCH  23  24
ENDBRANCH  21  23
ENDBRANCH   6  20
TORSDOF 8
ENDMDL
MODEL 3
REMARK VINA RESULT:    -7.755      2.028      2.748
REMARK INTER + INTRA:         -12.092
REMARK INTER:                 -11.152
REMARK INTRA:                  -0.939
REMARK UNBOUND:                -0.710
REMARK  8 active torsions:
REMARK  status: ('A' for Active; 'I' for Inactive)
REMARK    1  A    between atoms: C20_8  and  C12_12 
REMARK    2  A    between atoms: C22_10  and  C19_16 
REMARK       I    between atoms: C22_10  and  N25_19 
REMARK    3  A    between atoms: C12_12  and  C18_15 
REMARK    4  A    between atoms: N25_19  and  C37_23 
REMARK    5  A    between atoms: C37_23  and  C38_24 
REMARK    6  A    between atoms: C38_24  and  N4_25 
REMARK    7  A    between atoms: N4_25  and  C39_26 
REMARK    8  A    between atoms: N4_25  and  C40_27 
ROOT
HETATM    1  C4    D T 701       8.547   4.719  -0.632  1.00 38.18     0.052 C 
HETATM    2  C13   D T 701       9.942   1.963  -2.953  1.00 38.14     0.002 A 
HETATM    3  C3    D T 701      10.633   0.703  -3.422  1.00 38.74     0.033 C 
HETATM    4  C14   D T 701       8.978   3.809  -1.755  1.00 38.01     0.064 A 
HETATM    5  C18   D T 701       9.294   3.002  -3.786  1.00 36.77     0.077 A 
HETATM    6  C19   D T 701       9.721   2.528  -1.601  1.00 40.17     0.069 A 
HETATM    7  N23   D T 701       8.754   4.017  -3.073  1.00 37.14    -0.250 NA
ENDROOT
BRANCH   5   8
HETATM    8  C12   D T 701       9.217   2.939  -5.269  1.00 34.67     0.024 C 
BRANCH   8   9
HETATM    9  C20   D T 701       8.097   2.368  -6.057  1.00 33.52     0.061 A 
HETATM   10  C17   D T 701       7.424   3.151  -7.107  1.00 32.71     0.025 A 
HETATM   11  C7    D T 701       7.600   4.442  -7.593  1.00 32.88     0.031 A 
HETATM   12  C16   D T 701       6.385   2.232  -7.664  1.00 32.41     0.085 A 
HETATM   13  C15   D T 701       6.768   4.874  -8.629  1.00 33.17     0.140 A 
HETATM   14  C5    D T 701       5.792   4.034  -9.165  1.00 32.94     0.031 A 
HETATM   15  F29   D T 701       6.910   6.109  -9.131  1.00 35.13    -0.204 F 
HETATM   16  C6    D T 701       5.590   2.732  -8.694  1.00 32.25     0.021 A 
HETATM   17  N24   D T 701       6.417   1.033  -7.020  1.00 32.41    -0.208 NA
HETATM   18  C21   D T 701       7.384   1.083  -6.090  1.00 32.73     0.279 A 
HETATM   19  O27   D T 701       7.660   0.106  -5.323  1.00 31.29    -0.265 OA
ENDBRANCH   8   9
ENDBRANCH   5   8
BRANCH   6  20
HETATM   20  C22   D T 701      10.161   1.953  -0.296  1.00 43.71     0.276 C 
HETATM   21  N25   D T 701       9.307   1.232   0.430  1.00 47.28    -0.232 NA
HETATM   22  O28   D T 701      11.308   2.147   0.066  1.00 44.02    -0.266 OA
BRANCH  21  23
HETATM   23  C37   D T 701       9.695   0.582   1.666  1.00 50.13     0.164 C 
BRANCH  23  24
HETATM   24  C38   D T 701      10.147  -0.862   1.442  1.00 52.43     0.276 C 
BRANCH  24  25
HETATM   25  N4    D T 701      10.681  -1.499   2.672  1.00 55.35     0.139 N 
BRANCH  25  26
HETATM   26  C39   D T 701      11.649  -2.592   2.360  1.00 56.24     0.250 C 
HETATM   27  C42   D T 701      11.712  -3.033   0.907  1.00 56.21     0.037 C 
ENDBRANCH  25  26
BRANCH  25  28
HETATM   28  C40   D T 701      11.134  -0.480   3.653  1.00 56.18     0.250 C 
HETATM   29  C41   D T 701      10.386  -0.615   4.967  1.00 55.71     0.037 C 
ENDBRANCH  25  28
ENDBRANCH  24  25
ENDBRANCH  23  24
ENDBRANCH  21  23
ENDBRANCH   6  20
TORSDOF 8
ENDMDL
MODEL 4
REMARK VINA RESULT:    -7.754      1.515      2.050
REMARK INTER + INTRA:         -12.090
REMARK INTER:                 -10.951
REMARK INTRA:                  -1.139
REMARK UNBOUND:                -0.710
REMARK  8 active torsions:
REMARK  status: ('A' for Active; 'I' for Inactive)
REMARK    1  A    between atoms: C20_8  and  C12_12 
REMARK    2  A    between atoms: C22_10  and  C19_16 
REMARK       I    between atoms: C22_10  and  N25_19 
REMARK    3  A    between atoms: C12_12  and  C18_15 
REMARK    4  A    between atoms: N25_19  and  C37_23 
REMARK    5  A    between atoms: C37_23  and  C38_24 
REMARK    6  A    between atoms: C38_24  and  N4_25 
REMARK    7  A    between atoms: N4_25  and  C39_26 
REMARK    8  A    between atoms: N4_25  and  C40_27 
ROOT
HETATM    1  C4    D T 701       8.029   4.621  -1.796  1.00 38.18     0.052 C 
HETATM    2  C13   D T 701       9.454   2.051  -4.304  1.00 38.14     0.002 A 
HETATM    3  C3    D T 701      10.312   0.958  -4.899  1.00 38.74     0.033 C 
HETATM    4  C14   D T 701       8.377   3.724  -2.957  1.00 38.01     0.064 A 
HETATM    5  C18   D T 701       8.352   2.793  -4.959  1.00 36.77     0.077 A 
HETATM    6  C19   D T 701       9.454   2.695  -2.970  1.00 40.17     0.069 A 
HETATM    7  N23   D T 701       7.766   3.716  -4.164  1.00 37.14    -0.250 NA
ENDROOT
BRANCH   5   8
HETATM    8  C12   D T 701       7.906   2.542  -6.355  1.00 34.67     0.024 C 
BRANCH   8   9
HETATM    9  C20   D T 701       7.223   3.519  -7.237  1.00 33.52     0.061 A 
HETATM   10  C17   D T 701       6.196   3.091  -8.202  1.00 32.71     0.025 A 
HETATM   11  C7    D T 701       5.651   1.854  -8.526  1.00 32.88     0.031 A 
HETATM   12  C16   D T 701       5.750   4.351  -8.872  1.00 32.41     0.085 A 
HETATM   13  C15   D T 701       4.663   1.808  -9.513  1.00 33.17     0.140 A 
HETATM   14  C5    D T 701       4.230   2.971 -10.152  1.00 32.94     0.031 A 
HETATM   15  F29   D T 701       4.106   0.636  -9.850  1.00 35.13    -0.204 F 
HETATM   16  C6    D T 701       4.762   4.228  -9.848  1.00 32.25     0.021 A 
HETATM   17  N24   D T 701       6.434   5.419  -8.379  1.00 32.41    -0.208 NA
HETATM   18  C21   D T 701       7.289   4.973  -7.444  1.00 32.73     0.279 A 
HETATM   19  O27   D T 701       8.070   5.740  -6.795  1.00 31.29    -0.265 OA
ENDBRANCH   8   9
ENDBRANCH   5   8
BRANCH   6  20
HETATM   20  C22   D T 701      10.362   2.402  -1.822  1.00 43.71     0.276 C 
HETATM   21  N25   D T 701      10.145   1.327  -1.065  1.00 47.28    -0.232 NA
HETATM   22  O28   D T 701      11.298   3.154  -1.617  1.00 44.02    -0.266 OA
BRANCH  21  23
HETATM   23  C37   D T 701      11.034   0.945   0.014  1.00 50.13     0.164 C 
BRANCH  23  24
HETATM   24  C38   D T 701      10.634   1.580   1.347  1.00 52.43     0.276 C 
BRANCH  24  25
HETATM   25  N4    D T 701      11.621   2.574   1.836  1.00 55.35     0.139 N 
BRANCH  25  26
HETATM   26  C39   D T 701      11.010   3.923   2.025  1.00 56.24     0.250 C 
HETATM   27  C42   D T 701       9.606   4.103   1.472  1.00 56.21     0.037 C 
ENDBRANCH  25  26
BRANCH  25  28
HETATM   28  C40   D T 701      12.401   2.040   2.981  1.00 56.18     0.250 C 
HETATM   29  C41   D T 701      11.596   1.016   3.761  1.00 55.71     0.037 C 
ENDBRANCH  25  28
ENDBRANCH  24  25
ENDBRANCH  23  24
ENDBRANCH  21  23
ENDBRANCH   6  20
TORSDOF 8
ENDMDL
MODEL 5
REMARK VINA RESULT:    -7.580      2.411      3.312
REMARK INTER + INTRA:         -11.835
REMARK INTER:                 -11.127
REMARK INTRA:                  -0.707
REMARK UNBOUND:                -0.710
REMARK  8 active torsions:
REMARK  status: ('A' for Active; 'I' for Inactive)
REMARK    1  A    between atoms: C20_8  and  C12_12 
REMARK    2  A    between atoms: C22_10  and  C19_16 
REMARK       I    between atoms: C22_10  and  N25_19 
REMARK    3  A    between atoms: C12_12  and  C18_15 
REMARK    4  A    between atoms: N25_19  and  C37_23 
REMARK    5  A    between atoms: C37_23  and  C38_24 
REMARK    6  A    between atoms: C38_24  and  N4_25 
REMARK    7  A    between atoms: N4_25  and  C39_26 
REMARK    8  A    between atoms: N4_25  and  C40_27 
ROOT
HETATM    1  C4    D T 701      11.611   0.267  -4.277  1.00 38.18     0.052 C 
HETATM    2  C13   D T 701       7.998   1.552  -3.812  1.00 38.14     0.002 A 
HETATM    3  C3    D T 701       6.787   2.232  -3.214  1.00 38.74     0.033 C 
HETATM    4  C14   D T 701      10.151   0.635  -4.355  1.00 38.01     0.064 A 
HETATM    5  C18   D T 701       8.069   0.785  -5.078  1.00 36.77     0.077 A 
HETATM    6  C19   D T 701       9.399   1.432  -3.347  1.00 40.17     0.069 A 
HETATM    7  N23   D T 701       9.300   0.296  -5.351  1.00 37.14    -0.250 NA
ENDROOT
BRANCH   5   8
HETATM    8  C12   D T 701       6.909   0.582  -5.984  1.00 34.67     0.024 C 
BRANCH   8   9
HETATM    9  C20   D T 701       6.519   1.467  -7.108  1.00 33.52     0.061 A 
HETATM   10  C17   D T 701       6.974   2.867  -7.172  1.00 32.71     0.025 A 
HETATM   11  C7    D T 701       7.766   3.650  -6.340  1.00 32.88     0.031 A 
HETATM   12  C16   D T 701       6.392   3.402  -8.441  1.00 32.41     0.085 A 
HETATM   13  C15   D T 701       8.009   4.973  -6.716  1.00 33.17     0.140 A 
HETATM   14  C5    D T 701       7.476   5.494  -7.897  1.00 32.94     0.031 A 
HETATM   15  F29   D T 701       8.773   5.760  -5.946  1.00 35.13    -0.204 F 
HETATM   16  C6    D T 701       6.674   4.731  -8.751  1.00 32.25     0.021 A 
HETATM   17  N24   D T 701       5.660   2.441  -9.070  1.00 32.41    -0.208 NA
HETATM   18  C21   D T 701       5.710   1.324  -8.327  1.00 32.73     0.279 A 
HETATM   19  O27   D T 701       5.122   0.244  -8.657  1.00 31.29    -0.265 OA
ENDBRANCH   8   9
ENDBRANCH   5   8
BRANCH   6  20
HETATM   20  C22   D T 701       9.987   1.987  -2.093  1.00 43.71     0.276 C 
HETATM   21  N25   D T 701       9.914   1.287  -0.961  1.00 47.28    -0.232 NA
HETATM   22  O28   D T 701      10.541   3.071  -2.143  1.00 44.02    -0.266 OA
BRANCH  21  23
HETATM   23  C37   D T 701      10.534   1.735   0.270  1.00 50.13     0.164 C 
BRANCH  23  24
HETATM   24  C38   D T 701      10.271   0.776   1.432  1.00 52.43     0.276 C 
BRANCH  24  25
HETATM   25  N4    D T 701      11.381  -0.184   1.654  1.00 55.35     0.139 N 
BRANCH  25  26
HETATM   26  C39   D T 701      11.854  -0.174   3.069  1.00 56.24     0.250 C 
HETATM   27  C42   D T 701      12.982   0.793   3.389  1.00 56.21     0.037 C 
ENDBRANCH  25  26
BRANCH  25  28
HETATM   28  C40   D T 701      11.064  -1.515   1.076  1.00 56.18     0.250 C 
HETATM   29  C41   D T 701      10.275  -2.364   2.057  1.00 55.71     0.037 C 
ENDBRANCH  25  28
ENDBRANCH  24  25
ENDBRANCH  23  24
ENDBRANCH  21  23
ENDBRANCH   6  20
TORSDOF 8
ENDMDL
MODEL 6
REMARK VINA RESULT:    -7.557      3.017      9.528
REMARK INTER + INTRA:         -11.801
REMARK INTER:                 -10.732
REMARK INTRA:                  -1.069
REMARK UNBOUND:                -0.710
REMARK  8 active torsions:
REMARK  status: ('A' for Active; 'I' for Inactive)
REMARK    1  A    between atoms: C20_8  and  C12_12 
REMARK    2  A    between atoms: C22_10  and  C19_16 
REMARK       I    between atoms: C22_10  and  N25_19 
REMARK    3  A    between atoms: C12_12  and  C18_15 
REMARK    4  A    between atoms: N25_19  and  C37_23 
REMARK    5  A    between atoms: C37_23  and  C38_24 
REMARK    6  A    between atoms: C38_24  and  N4_25 
REMARK    7  A    between atoms: N4_25  and  C39_26 
REMARK    8  A    between atoms: N4_25  and  C40_27 
ROOT
HETATM    1  C4    D T 701       9.734   5.561  -1.954  1.00 38.18     0.052 C 
HETATM    2  C13   D T 701      10.384   1.908  -3.028  1.00 38.14     0.002 A 
HETATM    3  C3    D T 701      10.365   0.629  -3.834  1.00 38.74     0.033 C 
HETATM    4  C14   D T 701      10.136   4.118  -2.118  1.00 38.01     0.064 A 
HETATM    5  C18   D T 701      11.021   2.135  -1.710  1.00 36.77     0.077 A 
HETATM    6  C19   D T 701       9.796   3.245  -3.276  1.00 40.17     0.069 A 
HETATM    7  N23   D T 701      10.869   3.394  -1.239  1.00 37.14    -0.250 NA
ENDROOT
BRANCH   5   8
HETATM    8  C12   D T 701      11.780   1.093  -0.971  1.00 34.67     0.024 C 
BRANCH   8   9
HETATM    9  C20   D T 701      11.387   0.488   0.326  1.00 33.52     0.061 A 
HETATM   10  C17   D T 701      11.464  -0.966   0.545  1.00 32.71     0.025 A 
HETATM   11  C7    D T 701      11.855  -2.032  -0.257  1.00 32.88     0.031 A 
HETATM   12  C16   D T 701      11.008  -1.166   1.955  1.00 32.41     0.085 A 
HETATM   13  C15   D T 701      11.809  -3.318   0.286  1.00 33.17     0.140 A 
HETATM   14  C5    D T 701      11.387  -3.528   1.600  1.00 32.94     0.031 A 
HETATM   15  F29   D T 701      12.185  -4.371  -0.451  1.00 35.13    -0.204 F 
HETATM   16  C6    D T 701      10.984  -2.476   2.429  1.00 32.25     0.021 A 
HETATM   17  N24   D T 701      10.682   0.029   2.522  1.00 32.41    -0.208 NA
HETATM   18  C21   D T 701      10.884   0.994   1.611  1.00 32.73     0.279 A 
HETATM   19  O27   D T 701      10.671   2.226   1.846  1.00 31.29    -0.265 OA
ENDBRANCH   8   9
ENDBRANCH   5   8
BRANCH   6  20
HETATM   20  C22   D T 701       8.990   3.676  -4.456  1.00 43.71     0.276 C 
HETATM   21  N25   D T 701       7.665   3.538  -4.438  1.00 47.28    -0.232 NA
HETATM   22  O28   D T 701       9.573   4.163  -5.408  1.00 44.02    -0.266 OA
BRANCH  21  23
HETATM   23  C37   D T 701       6.821   4.009  -5.518  1.00 50.13     0.164 C 
BRANCH  23  24
HETATM   24  C38   D T 701       6.028   2.873  -6.170  1.00 52.43     0.276 C 
BRANCH  24  25
HETATM   25  N4    D T 701       6.756   2.227  -7.290  1.00 55.35     0.139 N 
BRANCH  25  26
HETATM   26  C39   D T 701       7.567   1.061  -6.831  1.00 56.24     0.250 C 
HETATM   27  C42   D T 701       7.522  -0.173  -7.716  1.00 56.21     0.037 C 
ENDBRANCH  25  26
BRANCH  25  28
HETATM   28  C40   D T 701       5.858   1.987  -8.448  1.00 56.18     0.250 C 
HETATM   29  C41   D T 701       5.682   3.248  -9.275  1.00 55.71     0.037 C 
ENDBRANCH  25  28
ENDBRANCH  24  25
ENDBRANCH  23  24
ENDBRANCH  21  23
ENDBRANCH   6  20
TORSDOF 8
ENDMDL
MODEL 7
REMARK VINA RESULT:    -7.469      4.012      6.738
REMARK INTER + INTRA:         -11.673
REMARK INTER:                 -10.436
REMARK INTRA:                  -1.237
REMARK UNBOUND:                -0.710
REMARK  8 active torsions:
REMARK  status: ('A' for Active; 'I' for Inactive)
REMARK    1  A    between atoms: C20_8  and  C12_12 
REMARK    2  A    between atoms: C22_10  and  C19_16 
REMARK       I    between atoms: C22_10  and  N25_19 
REMARK    3  A    between atoms: C12_12  and  C18_15 
REMARK    4  A    between atoms: N25_19  and  C37_23 
REMARK    5  A    between atoms: C37_23  and  C38_24 
REMARK    6  A    between atoms: C38_24  and  N4_25 
REMARK    7  A    between atoms: N4_25  and  C39_26 
REMARK    8  A    between atoms: N4_25  and  C40_27 
ROOT
HETATM    1  C4    D T 701       8.745   3.397  -0.011  1.00 38.18     0.052 C 
HETATM    2  C13   D T 701       9.630   5.130  -3.348  1.00 38.14     0.002 A 
HETATM    3  C3    D T 701       9.990   6.202  -4.352  1.00 38.74     0.033 C 
HETATM    4  C14   D T 701       9.062   3.802  -1.428  1.00 38.01     0.064 A 
HETATM    5  C18   D T 701       9.399   3.690  -3.608  1.00 36.77     0.077 A 
HETATM    6  C19   D T 701       9.393   5.180  -1.887  1.00 40.17     0.069 A 
HETATM    7  N23   D T 701       9.094   2.977  -2.500  1.00 37.14    -0.250 NA
ENDROOT
BRANCH   5   8
HETATM    8  C12   D T 701       9.511   3.068  -4.953  1.00 34.67     0.024 C 
BRANCH   8   9
HETATM    9  C20   D T 701       8.407   2.422  -5.706  1.00 33.52     0.061 A 
HETATM   10  C17   D T 701       7.698   3.133  -6.784  1.00 32.71     0.025 A 
HETATM   11  C7    D T 701       7.823   4.406  -7.328  1.00 32.88     0.031 A 
HETATM   12  C16   D T 701       6.690   2.153  -7.291  1.00 32.41     0.085 A 
HETATM   13  C15   D T 701       6.969   4.762  -8.374  1.00 33.17     0.140 A 
HETATM   14  C5    D T 701       6.021   3.863  -8.865  1.00 32.94     0.031 A 
HETATM   15  F29   D T 701       7.062   5.977  -8.932  1.00 35.13    -0.204 F 
HETATM   16  C6    D T 701       5.870   2.577  -8.335  1.00 32.25     0.021 A 
HETATM   17  N24   D T 701       6.771   0.986  -6.595  1.00 32.41    -0.208 NA
HETATM   18  C21   D T 701       7.741   1.112  -5.676  1.00 32.73     0.279 A 
HETATM   19  O27   D T 701       8.059   0.181  -4.870  1.00 31.29    -0.265 OA
ENDBRANCH   8   9
ENDBRANCH   5   8
BRANCH   6  20
HETATM   20  C22   D T 701       9.455   6.378  -0.999  1.00 43.71     0.276 C 
HETATM   21  N25   D T 701      10.638   6.889  -0.659  1.00 47.28    -0.232 NA
HETATM   22  O28   D T 701       8.408   6.872  -0.619  1.00 44.02    -0.266 OA
BRANCH  21  23
HETATM   23  C37   D T 701      10.763   8.096   0.134  1.00 50.13     0.164 C 
BRANCH  23  24
HETATM   24  C38   D T 701      11.328   9.265  -0.676  1.00 52.43     0.276 C 
BRANCH  24  25
HETATM   25  N4    D T 701      10.357  10.373  -0.849  1.00 55.35     0.139 N 
BRANCH  25  26
HETATM   26  C39   D T 701       9.293  10.035  -1.840  1.00 56.24     0.250 C 
HETATM   27  C42   D T 701       8.355  11.167  -2.226  1.00 56.21     0.037 C 
ENDBRANCH  25  26
BRANCH  25  28
HETATM   28  C40   D T 701       9.892  10.890   0.463  1.00 56.18     0.250 C 
HETATM   29  C41   D T 701      10.890  11.872   1.049  1.00 55.71     0.037 C 
ENDBRANCH  25  28
ENDBRANCH  24  25
ENDBRANCH  23  24
ENDBRANCH  21  23
ENDBRANCH   6  20
TORSDOF 8
ENDMDL
MODEL 8
REMARK VINA RESULT:    -7.458      2.003      2.734
REMARK INTER + INTRA:         -11.655
REMARK INTER:                 -10.938
REMARK INTRA:                  -0.717
REMARK UNBOUND:                -0.710
REMARK  8 active torsions:
REMARK  status: ('A' for Active; 'I' for Inactive)
REMARK    1  A    between atoms: C20_8  and  C12_12 
REMARK    2  A    between atoms: C22_10  and  C19_16 
REMARK       I    between atoms: C22_10  and  N25_19 
REMARK    3  A    between atoms: C12_12  and  C18_15 
REMARK    4  A    between atoms: N25_19  and  C37_23 
REMARK    5  A    between atoms: C37_23  and  C38_24 
REMARK    6  A    between atoms: C38_24  and  N4_25 
REMARK    7  A    between atoms: N4_25  and  C39_26 
REMARK    8  A    between atoms: N4_25  and  C40_27 
ROOT
HETATM    1  C4    D T 701      11.427   0.151  -3.572  1.00 38.18     0.052 C 
HETATM    2  C13   D T 701       8.619   2.801  -3.448  1.00 38.14     0.002 A 
HETATM    3  C3    D T 701       7.644   3.828  -2.920  1.00 38.74     0.033 C 
HETATM    4  C14   D T 701      10.312   1.136  -3.815  1.00 38.01     0.064 A 
HETATM    5  C18   D T 701       8.759   2.322  -4.843  1.00 36.77     0.077 A 
HETATM    6  C19   D T 701       9.663   1.990  -2.781  1.00 40.17     0.069 A 
HETATM    7  N23   D T 701       9.730   1.396  -5.008  1.00 37.14    -0.250 NA
ENDROOT
BRANCH   5   8
HETATM    8  C12   D T 701       7.930   2.822  -5.972  1.00 34.67     0.024 C 
BRANCH   8   9
HETATM    9  C20   D T 701       7.146   1.983  -6.911  1.00 33.52     0.061 A 
HETATM   10  C17   D T 701       6.252   2.588  -7.913  1.00 32.71     0.025 A 
HETATM   11  C7    D T 701       5.925   3.902  -8.227  1.00 32.88     0.031 A 
HETATM   12  C16   D T 701       5.671   1.429  -8.658  1.00 32.41     0.085 A 
HETATM   13  C15   D T 701       5.021   4.124  -9.269  1.00 33.17     0.140 A 
HETATM   14  C5    D T 701       4.466   3.058  -9.979  1.00 32.94     0.031 A 
HETATM   15  F29   D T 701       4.685   5.376  -9.609  1.00 35.13    -0.204 F 
HETATM   16  C6    D T 701       4.775   1.727  -9.683  1.00 32.25     0.021 A 
HETATM   17  N24   D T 701       6.149   0.256  -8.159  1.00 32.41    -0.208 NA
HETATM   18  C21   D T 701       6.992   0.541  -7.154  1.00 32.73     0.279 A 
HETATM   19  O27   D T 701       7.605  -0.353  -6.488  1.00 31.29    -0.265 OA
ENDBRANCH   8   9
ENDBRANCH   5   8
BRANCH   6  20
HETATM   20  C22   D T 701      10.024   1.991  -1.333  1.00 43.71     0.276 C 
HETATM   21  N25   D T 701       9.358   1.208  -0.485  1.00 47.28    -0.232 NA
HETATM   22  O28   D T 701      10.939   2.705  -0.964  1.00 44.02    -0.266 OA
BRANCH  21  23
HETATM   23  C37   D T 701       9.711   1.105   0.917  1.00 50.13     0.164 C 
BRANCH  23  24
HETATM   24  C38   D T 701       9.573  -0.325   1.445  1.00 52.43     0.276 C 
BRANCH  24  25
HETATM   25  N4    D T 701      10.841  -0.866   1.992  1.00 55.35     0.139 N 
BRANCH  25  26
HETATM   26  C39   D T 701      10.713  -1.246   3.430  1.00 56.24     0.250 C 
HETATM   27  C42   D T 701      10.896  -0.122   4.437  1.00 56.21     0.037 C 
ENDBRANCH  25  26
BRANCH  25  28
HETATM   28  C40   D T 701      11.421  -1.894   1.091  1.00 56.18     0.250 C 
HETATM   29  C41   D T 701      12.052  -3.024   1.883  1.00 55.71     0.037 C 
ENDBRANCH  25  28
ENDBRANCH  24  25
ENDBRANCH  23  24
ENDBRANCH  21  23
ENDBRANCH   6  20
TORSDOF 8
ENDMDL
MODEL 9
REMARK VINA RESULT:    -7.345      3.700      5.968
REMARK INTER + INTRA:         -11.490
REMARK INTER:                 -10.374
REMARK INTRA:                  -1.116
REMARK UNBOUND:                -0.710
REMARK  8 active torsions:
REMARK  status: ('A' for Active; 'I' for Inactive)
REMARK    1  A    between atoms: C20_8  and  C12_12 
REMARK    2  A    between atoms: C22_10  and  C19_16 
REMARK       I    between atoms: C22_10  and  N25_19 
REMARK    3  A    between atoms: C12_12  and  C18_15 
REMARK    4  A    between atoms: N25_19  and  C37_23 
REMARK    5  A    between atoms: C37_23  and  C38_24 
REMARK    6  A    between atoms: C38_24  and  N4_25 
REMARK    7  A    between atoms: N4_25  and  C39_26 
REMARK    8  A    between atoms: N4_25  and  C40_27 
ROOT
HETATM    1  C4    D T 701       9.154   2.481   0.344  1.00 38.18     0.052 C 
HETATM    2  C13   D T 701       9.334   4.340  -3.037  1.00 38.14     0.002 A 
HETATM    3  C3    D T 701       9.835   5.216  -4.163  1.00 38.74     0.033 C 
HETATM    4  C14   D T 701       8.961   3.082  -1.025  1.00 38.01     0.064 A 
HETATM    5  C18   D T 701       8.053   3.599  -2.971  1.00 36.77     0.077 A 
HETATM    6  C19   D T 701       9.919   3.983  -1.724  1.00 40.17     0.069 A 
HETATM    7  N23   D T 701       7.888   2.895  -1.828  1.00 37.14    -0.250 NA
ENDROOT
BRANCH   5   8
HETATM    8  C12   D T 701       7.043   3.602  -4.061  1.00 34.67     0.024 C 
BRANCH   8   9
HETATM    9  C20   D T 701       6.912   2.577  -5.127  1.00 33.52     0.061 A 
HETATM   10  C17   D T 701       6.428   2.931  -6.472  1.00 32.71     0.025 A 
HETATM   11  C7    D T 701       6.014   4.125  -7.052  1.00 32.88     0.031 A 
HETATM   12  C16   D T 701       6.458   1.648  -7.240  1.00 32.41     0.085 A 
HETATM   13  C15   D T 701       5.614   4.103  -8.390  1.00 33.17     0.140 A 
HETATM   14  C5    D T 701       5.634   2.917  -9.127  1.00 32.94     0.031 A 
HETATM   15  F29   D T 701       5.215   5.233  -8.990  1.00 35.13    -0.204 F 
HETATM   16  C6    D T 701       6.042   1.701  -8.569  1.00 32.25     0.021 A 
HETATM   17  N24   D T 701       6.899   0.632  -6.449  1.00 32.41    -0.208 NA
HETATM   18  C21   D T 701       7.162   1.133  -5.231  1.00 32.73     0.279 A 
HETATM   19  O27   D T 701       7.596   0.423  -4.268  1.00 31.29    -0.265 OA
ENDBRANCH   8   9
ENDBRANCH   5   8
BRANCH   6  20
HETATM   20  C22   D T 701      11.225   4.433  -1.161  1.00 43.71     0.276 C 
HETATM   21  N25   D T 701      11.349   5.671  -0.686  1.00 47.28    -0.232 NA
HETATM   22  O28   D T 701      12.149   3.639  -1.137  1.00 44.02    -0.266 OA
BRANCH  21  23
HETATM   23  C37   D T 701      12.567   6.143  -0.056  1.00 50.13     0.164 C 
BRANCH  23  24
HETATM   24  C38   D T 701      12.483   7.620   0.332  1.00 52.43     0.276 C 
BRANCH  24  25
HETATM   25  N4    D T 701      12.373   8.522  -0.842  1.00 55.35     0.139 N 
BRANCH  25  26
HETATM   26  C39   D T 701      11.143   9.365  -0.786  1.00 56.24     0.250 C 
HETATM   27  C42   D T 701       9.938   8.840  -1.550  1.00 56.21     0.037 C 
ENDBRANCH  25  26
BRANCH  25  28
HETATM   28  C40   D T 701      13.650   9.239  -1.091  1.00 56.18     0.250 C 
HETATM   29  C41   D T 701      13.421  10.734  -1.226  1.00 55.71     0.037 C 
ENDBRANCH  25  28
ENDBRANCH  24  25
ENDBRANCH  23  24
ENDBRANCH  21  23
ENDBRANCH   6  20
TORSDOF 8
ENDMDL
