MODEL 1
REMARK VINA RESULT:    -9.552      0.000      0.000
REMARK INTER + INTRA:         -13.037
REMARK INTER:                 -11.786
REMARK INTRA:                  -1.251
REMARK UNBOUND:                -1.251
REMARK  4 active torsions:
REMARK  status: ('A' for Active; 'I' for Inactive)
REMARK    1  A    between atoms: C4_6  and  C5_7 
REMARK    2  A    between atoms: C5_7  and  C6_8 
REMARK    3  A    between atoms: C5_7  and  C12_16 
REMARK    4  A    between atoms: C21_27  and  C22_28 
ROOT
HETATM    1  C12   D T 602       8.475  -6.070   1.959  0.93 11.20    -0.001 C 
HETATM    2  C13   D T 602       7.493  -6.832   1.909  0.93 13.45    -0.005 C 
HETATM    3  C14   D T 602       6.973  -7.174   3.141  0.93 13.80     0.011 C 
HETATM    4  C15   D T 602       9.079  -5.384   2.995  0.93 11.22     0.031 C 
HETATM    5  C16   D T 602       8.637  -5.919   4.447  0.93 16.07     0.048 C 
HETATM    6  C17   D T 602       7.548  -7.002   4.207  0.93 15.64     0.040 C 
HETATM    7  N4    D T 602       7.111  -7.327   5.571  0.93 18.36    -0.297 N 
HETATM    8  C18   D T 602       7.909  -6.851   6.837  0.93 18.78     0.133 C 
HETATM    9  C19   D T 602       6.244  -8.369   5.665  0.93 20.18     0.261 C 
HETATM   10  O1    D T 602       5.958  -8.744   6.829  0.93 23.41    -0.267 OA
HETATM   11  C20   D T 602       5.701  -8.716   4.440  0.93 18.07     0.061 C 
HETATM   12  C21   D T 602       5.877  -8.142   3.228  0.93 15.40     0.006 C 
ENDROOT
BRANCH   1  13
HETATM   13  C5    D T 602       8.883  -5.418   0.630  0.93 11.75     0.334 C 
HETATM   14  N3    D T 602       9.245  -4.043   0.530  0.93 12.53     0.628 N 
BRANCH  13  15
HETATM   15  C4    D T 602      10.352  -6.156   0.366  0.93 10.99     0.082 C 
HETATM   16  N1    D T 602      10.588  -7.566   0.417  0.93 12.88    -0.312 N 
HETATM   17  C1    D T 602       9.661  -8.782   0.286  0.93 11.29     0.132 C 
HETATM   18  C2    D T 602      11.856  -7.799   0.241  0.93 12.15     0.174 C 
HETATM   19  N2    D T 602      12.463  -6.697   0.184  0.93 12.12    -0.246 NA
HETATM   20  C3    D T 602      11.702  -5.527   0.420  0.93 11.32     0.169 C 
ENDBRANCH  13  15
BRANCH  13  21
HETATM   21  C6    D T 602       8.084  -5.708  -0.685  0.93 12.23     0.016 C 
HETATM   22  C7    D T 602       6.740  -5.570  -0.661  0.93  8.55    -0.022 C 
HETATM   23  C8    D T 602       5.892  -5.534  -1.785  0.93 12.58     0.064 C 
HETATM   24  C9    D T 602       6.960  -5.494  -2.893  0.93 13.77     0.040 C 
HETATM   25 CL1    D T 602       5.867  -5.265  -4.478  0.93 24.65    -0.087 Cl
HETATM   26  C10   D T 602       8.164  -5.606  -2.977  0.93 16.75     0.007 C 
HETATM   27  C11   D T 602       8.853  -5.740  -1.715  0.93 14.77    -0.001 C 
ENDBRANCH  13  21
ENDBRANCH   1  13
BRANCH  12  28
HETATM   28  C22   D T 602       5.231  -8.647   2.013  0.93 16.80     0.000 C 
HETATM   29  C23   D T 602       4.486  -7.721   1.150  0.93 14.45     0.007 C 
HETATM   30  C24   D T 602       4.003  -8.450   0.068  0.93 15.91     0.040 C 
HETATM   31 CL2    D T 602       3.048  -7.447  -1.058  0.93 18.54    -0.087 Cl
HETATM   32  C25   D T 602       3.992  -9.913  -0.246  0.93 19.85     0.064 C 
HETATM   33  C26   D T 602       4.943 -10.585   0.615  0.93 17.96    -0.021 C 
HETATM   34  C27   D T 602       5.383  -9.953   1.664  0.93 18.50    -0.004 C 
ENDBRANCH  12  28
TORSDOF 4
ENDMDL
MODEL 2
REMARK VINA RESULT:    -9.501      3.570      7.056
REMARK INTER + INTRA:         -12.974
REMARK INTER:                 -11.817
REMARK INTRA:                  -1.157
REMARK UNBOUND:                -1.251
REMARK  4 active torsions:
REMARK  status: ('A' for Active; 'I' for Inactive)
REMARK    1  A    between atoms: C4_6  and  C5_7 
REMARK    2  A    between atoms: C5_7  and  C6_8 
REMARK    3  A    between atoms: C5_7  and  C12_16 
REMARK    4  A    between atoms: C21_27  and  C22_28 
ROOT
HETATM    1  C12   D T 602       6.025  -7.952   1.963  0.93 11.20    -0.001 C 
HETATM    2  C13   D T 602       6.858  -7.251   1.360  0.93 13.45    -0.005 C 
HETATM    3  C14   D T 602       6.397  -6.709   0.177  0.93 13.80     0.011 C 
HETATM    4  C15   D T 602       4.680  -8.197   1.758  0.93 11.22     0.031 C 
HETATM    5  C16   D T 602       4.177  -7.759   0.294  0.93 16.07     0.048 C 
HETATM    6  C17   D T 602       5.386  -7.075  -0.404  0.93 15.64     0.040 C 
HETATM    7  N4    D T 602       4.799  -6.591  -1.662  0.93 18.36    -0.297 N 
HETATM    8  C18   D T 602       3.382  -7.055  -2.152  0.93 18.78     0.133 C 
HETATM    9  C19   D T 602       5.687  -6.065  -2.545  0.93 20.18     0.261 C 
HETATM   10  O1    D T 602       5.227  -5.763  -3.675  0.93 23.41    -0.267 OA
HETATM   11  C20   D T 602       6.916  -5.800  -1.965  0.93 18.07     0.061 C 
HETATM   12  C21   D T 602       7.308  -5.944  -0.679  0.93 15.40     0.006 C 
ENDROOT
BRANCH   1  13
HETATM   13  C5    D T 602       6.377  -8.307   3.414  0.93 11.75     0.334 C 
HETATM   14  N3    D T 602       5.384  -8.601   4.394  0.93 12.53     0.628 N 
BRANCH  13  15
HETATM   15  C4    D T 602       7.070  -9.806   3.203  0.93 10.99     0.082 C 
HETATM   16  N1    D T 602       6.387 -11.057   3.332  0.93 12.88    -0.312 N 
HETATM   17  C1    D T 602       4.904 -11.445   3.258  0.93 11.29     0.132 C 
HETATM   18  C2    D T 602       7.236 -12.031   3.180  0.93 12.15     0.174 C 
HETATM   19  N2    D T 602       8.392 -11.543   3.069  0.93 12.12    -0.246 NA
HETATM   20  C3    D T 602       8.521 -10.143   3.235  0.93 11.32     0.169 C 
ENDBRANCH  13  15
BRANCH  13  21
HETATM   21  C6    D T 602       7.470  -7.503   4.196  0.93 12.23     0.016 C 
HETATM   22  C7    D T 602       8.230  -6.622   3.508  0.93  8.55    -0.022 C 
HETATM   23  C8    D T 602       9.070  -5.640   4.069  0.93 12.58     0.064 C 
HETATM   24  C9    D T 602       8.668  -5.794   5.547  0.93 13.77     0.040 C 
HETATM   25 CL1    D T 602       9.659  -4.345   6.371  0.93 24.65    -0.087 Cl
HETATM   26  C10   D T 602       7.997  -6.550   6.216  0.93 16.75     0.007 C 
HETATM   27  C11   D T 602       7.291  -7.562   5.468  0.93 14.77    -0.001 C 
ENDBRANCH  13  21
ENDBRANCH   1  13
BRANCH  12  28
HETATM   28  C22   D T 602       8.665  -5.627  -0.226  0.93 16.80     0.000 C 
HETATM   29  C23   D T 602       9.788  -6.472  -0.654  0.93 14.45     0.007 C 
HETATM   30  C24   D T 602      10.950  -5.938  -0.106  0.93 15.91     0.040 C 
HETATM   31 CL2    D T 602      12.400  -6.889  -0.527  0.93 18.54    -0.087 Cl
HETATM   32  C25   D T 602      11.195  -4.838   0.878  0.93 19.85     0.064 C 
HETATM   33  C26   D T 602       9.997  -4.032   0.991  0.93 17.96    -0.021 C 
HETATM   34  C27   D T 602       8.880  -4.517   0.532  0.93 18.50    -0.004 C 
ENDBRANCH  12  28
TORSDOF 4
ENDMDL
MODEL 3
REMARK VINA RESULT:    -9.199      1.190      1.818
REMARK INTER + INTRA:         -12.601
REMARK INTER:                 -11.259
REMARK INTRA:                  -1.342
REMARK UNBOUND:                -1.251
REMARK  4 active torsions:
REMARK  status: ('A' for Active; 'I' for Inactive)
REMARK    1  A    between atoms: C4_6  and  C5_7 
REMARK    2  A    between atoms: C5_7  and  C6_8 
REMARK    3  A    between atoms: C5_7  and  C12_16 
REMARK    4  A    between atoms: C21_27  and  C22_28 
ROOT
HETATM    1  C12   D T 602       8.363  -6.599   3.207  0.93 11.20    -0.001 C 
HETATM    2  C13   D T 602       7.390  -7.243   2.776  0.93 13.45    -0.005 C 
HETATM    3  C14   D T 602       6.510  -7.668   3.751  0.93 13.80     0.011 C 
HETATM    4  C15   D T 602       8.680  -6.103   4.457  0.93 11.22     0.031 C 
HETATM    5  C16   D T 602       7.798  -6.753   5.635  0.93 16.07     0.048 C 
HETATM    6  C17   D T 602       6.758  -7.682   4.948  0.93 15.64     0.040 C 
HETATM    7  N4    D T 602       5.919  -8.115   6.074  0.93 18.36    -0.297 N 
HETATM    8  C18   D T 602       6.341  -7.874   7.567  0.93 18.78     0.133 C 
HETATM    9  C19   D T 602       4.996  -9.065   5.772  0.93 20.18     0.261 C 
HETATM   10  O1    D T 602       4.357  -9.540   6.744  0.93 23.41    -0.267 OA
HETATM   11  C20   D T 602       4.814  -9.210   4.407  0.93 18.07     0.061 C 
HETATM   12  C21   D T 602       5.375  -8.520   3.388  0.93 15.40     0.006 C 
ENDROOT
BRANCH   1  13
HETATM   13  C5    D T 602       9.184  -5.844   2.152  0.93 11.75     0.334 C 
HETATM   14  N3    D T 602      10.079  -4.786   2.490  0.93 12.53     0.628 N 
BRANCH  13  15
HETATM   15  C4    D T 602      10.255  -7.032   1.691  0.93 10.99     0.082 C 
HETATM   16  N1    D T 602      11.269  -6.886   0.691  0.93 12.88    -0.312 N 
HETATM   17  C1    D T 602      11.967  -5.661   0.088  0.93 11.29     0.132 C 
HETATM   18  C2    D T 602      11.876  -8.025   0.522  0.93 12.15     0.174 C 
HETATM   19  N2    D T 602      11.299  -8.896   1.225  0.93 12.12    -0.246 NA
HETATM   20  C3    D T 602      10.127  -8.500   1.913  0.93 11.32     0.169 C 
ENDBRANCH  13  15
BRANCH  13  21
HETATM   21  C6    D T 602       8.535  -5.390   0.801  0.93 12.23     0.016 C 
HETATM   22  C7    D T 602       8.301  -6.328  -0.142  0.93  8.55    -0.022 C 
HETATM   23  C8    D T 602       7.505  -6.163  -1.293  0.93 12.58     0.064 C 
HETATM   24  C9    D T 602       6.914  -4.777  -0.981  0.93 13.77     0.040 C 
HETATM   25 CL1    D T 602       5.661  -4.551  -2.444  0.93 24.65    -0.087 Cl
HETATM   26  C10   D T 602       7.077  -3.900  -0.160  0.93 16.75     0.007 C 
HETATM   27  C11   D T 602       8.017  -4.216   0.889  0.93 14.77    -0.001 C 
ENDBRANCH  13  21
ENDBRANCH   1  13
BRANCH  12  28
HETATM   28  C22   D T 602       5.081  -8.811   1.982  0.93 16.80     0.000 C 
HETATM   29  C23   D T 602       4.470  -7.775   1.139  0.93 14.45     0.007 C 
HETATM   30  C24   D T 602       4.324  -8.303  -0.140  0.93 15.91     0.040 C 
HETATM   31 CL2    D T 602       3.563  -7.151  -1.270  0.93 18.54    -0.087 Cl
HETATM   32  C25   D T 602       4.530  -9.676  -0.700  0.93 19.85     0.064 C 
HETATM   33  C26   D T 602       5.317 -10.452   0.235  0.93 17.96    -0.021 C 
HETATM   34  C27   D T 602       5.437 -10.015   1.456  0.93 18.50    -0.004 C 
ENDBRANCH  12  28
TORSDOF 4
ENDMDL
MODEL 4
REMARK VINA RESULT:    -8.713      1.243      1.603
REMARK INTER + INTRA:         -12.001
REMARK INTER:                 -10.390
REMARK INTRA:                  -1.611
REMARK UNBOUND:                -1.251
REMARK  4 active torsions:
REMARK  status: ('A' for Active; 'I' for Inactive)
REMARK    1  A    between atoms: C4_6  and  C5_7 
REMARK    2  A    between atoms: C5_7  and  C6_8 
REMARK    3  A    between atoms: C5_7  and  C12_16 
REMARK    4  A    between atoms: C21_27  and  C22_28 
ROOT
HETATM    1  C12   D T 602       8.963  -6.028   2.847  0.93 11.20    -0.001 C 
HETATM    2  C13   D T 602       7.995  -6.810   2.854  0.93 13.45    -0.005 C 
HETATM    3  C14   D T 602       7.436  -7.013   4.100  0.93 13.80     0.011 C 
HETATM    4  C15   D T 602       9.518  -5.212   3.815  0.93 11.22     0.031 C 
HETATM    5  C16   D T 602       9.032  -5.581   5.303  0.93 16.07     0.048 C 
HETATM    6  C17   D T 602       7.970  -6.707   5.156  0.93 15.64     0.040 C 
HETATM    7  N4    D T 602       7.488  -6.876   6.534  0.93 18.36    -0.297 N 
HETATM    8  C18   D T 602       8.232  -6.239   7.761  0.93 18.78     0.133 C 
HETATM    9  C19   D T 602       6.635  -7.917   6.721  0.93 20.18     0.261 C 
HETATM   10  O1    D T 602       6.312  -8.158   7.911  0.93 23.41    -0.267 OA
HETATM   11  C20   D T 602       6.141  -8.417   5.527  0.93 18.07     0.061 C 
HETATM   12  C21   D T 602       6.352  -7.985   4.263  0.93 15.40     0.006 C 
ENDROOT
BRANCH   1  13
HETATM   13  C5    D T 602       9.409  -5.529   1.465  0.93 11.75     0.334 C 
HETATM   14  N3    D T 602      10.082  -4.286   1.278  0.93 12.53     0.628 N 
BRANCH  13  15
HETATM   15  C4    D T 602      10.631  -6.609   1.130  0.93 10.99     0.082 C 
HETATM   16  N1    D T 602      11.303  -6.730  -0.128  0.93 12.88    -0.312 N 
HETATM   17  C1    D T 602      11.473  -5.771  -1.313  0.93 11.29     0.132 C 
HETATM   18  C2    D T 602      12.147  -7.719  -0.073  0.93 12.15     0.174 C 
HETATM   19  N2    D T 602      12.016  -8.298   1.037  0.93 12.12    -0.246 NA
HETATM   20  C3    D T 602      10.973  -7.849   1.882  0.93 11.32     0.169 C 
ENDBRANCH  13  15
BRANCH  13  21
HETATM   21  C6    D T 602       8.462  -5.650   0.223  0.93 12.23     0.016 C 
HETATM   22  C7    D T 602       8.024  -6.879  -0.130  0.93  8.55    -0.022 C 
HETATM   23  C8    D T 602       6.983  -7.157  -1.038  0.93 12.58     0.064 C 
HETATM   24  C9    D T 602       6.469  -5.724  -1.261  0.93 13.77     0.040 C 
HETATM   25 CL1    D T 602       4.911  -6.040  -2.372  0.93 24.65    -0.087 Cl
HETATM   26  C10   D T 602       6.809  -4.597  -0.972  0.93 16.75     0.007 C 
HETATM   27  C11   D T 602       7.968  -4.512  -0.116  0.93 14.77    -0.001 C 
ENDBRANCH  13  21
ENDBRANCH   1  13
BRANCH  12  28
HETATM   28  C22   D T 602       5.759  -8.643   3.095  0.93 16.80     0.000 C 
HETATM   29  C23   D T 602       4.879  -7.878   2.202  0.93 14.45     0.007 C 
HETATM   30  C24   D T 602       4.479  -8.727   1.175  0.93 15.91     0.040 C 
HETATM   31 CL2    D T 602       3.376  -7.928   0.022  0.93 18.54    -0.087 Cl
HETATM   32  C25   D T 602       4.662 -10.194   0.943  0.93 19.85     0.064 C 
HETATM   33  C26   D T 602       5.712 -10.680   1.813  0.93 17.96    -0.021 C 
HETATM   34  C27   D T 602       6.081  -9.935   2.815  0.93 18.50    -0.004 C 
ENDBRANCH  12  28
TORSDOF 4
ENDMDL
MODEL 5
REMARK VINA RESULT:    -8.609      3.622      6.992
REMARK INTER + INTRA:         -11.872
REMARK INTER:                 -10.490
REMARK INTRA:                  -1.382
REMARK UNBOUND:                -1.251
REMARK  4 active torsions:
REMARK  status: ('A' for Active; 'I' for Inactive)
REMARK    1  A    between atoms: C4_6  and  C5_7 
REMARK    2  A    between atoms: C5_7  and  C6_8 
REMARK    3  A    between atoms: C5_7  and  C12_16 
REMARK    4  A    between atoms: C21_27  and  C22_28 
ROOT
HETATM    1  C12   D T 602       5.870  -8.461   3.837  0.93 11.20    -0.001 C 
HETATM    2  C13   D T 602       6.392  -7.748   2.962  0.93 13.45    -0.005 C 
HETATM    3  C14   D T 602       5.707  -7.722   1.764  0.93 13.80     0.011 C 
HETATM    4  C15   D T 602       4.666  -9.136   3.903  0.93 11.22     0.031 C 
HETATM    5  C16   D T 602       3.956  -9.298   2.468  0.93 16.07     0.048 C 
HETATM    6  C17   D T 602       4.833  -8.517   1.449  0.93 15.64     0.040 C 
HETATM    7  N4    D T 602       4.042  -8.602   0.214  0.93 18.36    -0.297 N 
HETATM    8  C18   D T 602       2.821  -9.579   0.071  0.93 18.78     0.133 C 
HETATM    9  C19   D T 602       4.655  -8.111  -0.896  0.93 20.18     0.261 C 
HETATM   10  O1    D T 602       4.051  -8.290  -1.983  0.93 23.41    -0.267 OA
HETATM   11  C20   D T 602       5.768  -7.345  -0.590  0.93 18.07     0.061 C 
HETATM   12  C21   D T 602       6.266  -6.999   0.619  0.93 15.40     0.006 C 
ENDROOT
BRANCH   1  13
HETATM   13  C5    D T 602       6.409  -8.272   5.262  0.93 11.75     0.334 C 
HETATM   14  N3    D T 602       5.556  -8.051   6.382  0.93 12.53     0.628 N 
BRANCH  13  15
HETATM   15  C4    D T 602       6.968  -9.807   5.584  0.93 10.99     0.082 C 
HETATM   16  N1    D T 602       7.947 -10.508   4.810  0.93 12.88    -0.312 N 
HETATM   17  C1    D T 602       9.032 -10.038   3.834  0.93 11.29     0.132 C 
HETATM   18  C2    D T 602       8.096 -11.709   5.288  0.93 12.15     0.174 C 
HETATM   19  N2    D T 602       7.255 -11.883   6.209  0.93 12.12    -0.246 NA
HETATM   20  C3    D T 602       6.319 -10.845   6.434  0.93 11.32     0.169 C 
ENDBRANCH  13  15
BRANCH  13  21
HETATM   21  C6    D T 602       7.655  -7.364   5.536  0.93 12.23     0.016 C 
HETATM   22  C7    D T 602       8.109  -6.581   4.532  0.93  8.55    -0.022 C 
HETATM   23  C8    D T 602       9.035  -5.527   4.659  0.93 12.58     0.064 C 
HETATM   24  C9    D T 602       9.138  -5.480   6.193  0.93 13.77     0.040 C 
HETATM   25 CL1    D T 602      10.269  -3.927   6.458  0.93 24.65    -0.087 Cl
HETATM   26  C10   D T 602       8.757  -6.141   7.135  0.93 16.75     0.007 C 
HETATM   27  C11   D T 602       7.899  -7.250   6.793  0.93 14.77    -0.001 C 
ENDBRANCH  13  21
ENDBRANCH   1  13
BRANCH  12  28
HETATM   28  C22   D T 602       7.475  -6.184   0.770  0.93 16.80     0.000 C 
HETATM   29  C23   D T 602       8.788  -6.840   0.831  0.93 14.45     0.007 C 
HETATM   30  C24   D T 602       9.752  -5.844   0.950  0.93 15.91     0.040 C 
HETATM   31 CL2    D T 602      11.405  -6.506   1.062  0.93 18.54    -0.087 Cl
HETATM   32  C25   D T 602       9.661  -4.365   1.162  0.93 19.85     0.064 C 
HETATM   33  C26   D T 602       8.314  -3.929   0.862  0.93 17.96    -0.021 C 
HETATM   34  C27   D T 602       7.374  -4.827   0.788  0.93 18.50    -0.004 C 
ENDBRANCH  12  28
TORSDOF 4
ENDMDL
MODEL 6
REMARK VINA RESULT:    -8.470      2.483      4.383
REMARK INTER + INTRA:         -11.701
REMARK INTER:                 -10.288
REMARK INTRA:                  -1.413
REMARK UNBOUND:                -1.251
REMARK  4 active torsions:
REMARK  status: ('A' for Active; 'I' for Inactive)
REMARK    1  A    between atoms: C4_6  and  C5_7 
REMARK    2  A    between atoms: C5_7  and  C6_8 
REMARK    3  A    between atoms: C5_7  and  C12_16 
REMARK    4  A    between atoms: C21_27  and  C22_28 
ROOT
HETATM    1  C12   D T 602       8.582  -6.155   4.037  0.93 11.20    -0.001 C 
HETATM    2  C13   D T 602       7.862  -6.858   4.769  0.93 13.45    -0.005 C 
HETATM    3  C14   D T 602       7.921  -6.533   6.109  0.93 13.80     0.011 C 
HETATM    4  C15   D T 602       9.337  -5.022   4.273  0.93 11.22     0.031 C 
HETATM    5  C16   D T 602       9.592  -4.750   5.838  0.93 16.07     0.048 C 
HETATM    6  C17   D T 602       8.784  -5.828   6.613  0.93 15.64     0.040 C 
HETATM    7  N4    D T 602       8.961  -5.419   8.013  0.93 18.36    -0.297 N 
HETATM    8  C18   D T 602      10.025  -4.345   8.438  0.93 18.78     0.133 C 
HETATM    9  C19   D T 602       8.463  -6.286   8.933  0.93 20.18     0.261 C 
HETATM   10  O1    D T 602       8.717  -6.020  10.134  0.93 23.41    -0.267 OA
HETATM   11  C20   D T 602       7.613  -7.223   8.370  0.93 18.07     0.061 C 
HETATM   12  C21   D T 602       7.195  -7.345   7.090  0.93 15.40     0.006 C 
ENDROOT
BRANCH   1  13
HETATM   13  C5    D T 602       8.313  -6.265   2.530  0.93 11.75     0.334 C 
HETATM   14  N3    D T 602       8.547  -5.186   1.628  0.93 12.53     0.628 N 
BRANCH  13  15
HETATM   15  C4    D T 602       9.517  -7.324   2.080  0.93 10.99     0.082 C 
HETATM   16  N1    D T 602       9.756  -7.783   0.746  0.93 12.88    -0.312 N 
HETATM   17  C1    D T 602       9.377  -7.222  -0.631  0.93 11.29     0.132 C 
HETATM   18  C2    D T 602      10.718  -8.659   0.757  0.93 12.15     0.174 C 
HETATM   19  N2    D T 602      11.048  -8.880   1.951  0.93 12.12    -0.246 NA
HETATM   20  C3    D T 602      10.276  -8.255   2.961  0.93 11.32     0.169 C 
ENDBRANCH  13  15
BRANCH  13  21
HETATM   21  C6    D T 602       7.007  -6.945   1.994  0.93 12.23     0.016 C 
HETATM   22  C7    D T 602       6.532  -8.024   2.654  0.93  8.55    -0.022 C 
HETATM   23  C8    D T 602       5.258  -8.602   2.485  0.93 12.58     0.064 C 
HETATM   24  C9    D T 602       4.635  -7.545   1.557  0.93 13.77     0.040 C 
HETATM   25 CL1    D T 602       2.808  -8.181   1.415  0.93 24.65    -0.087 Cl
HETATM   26  C10   D T 602       5.002  -6.565   0.944  0.93 16.75     0.007 C 
HETATM   27  C11   D T 602       6.378  -6.189   1.167  0.93 14.77    -0.001 C 
ENDBRANCH  13  21
ENDBRANCH   1  13
BRANCH  12  28
HETATM   28  C22   D T 602       6.295  -8.414   6.651  0.93 16.80     0.000 C 
HETATM   29  C23   D T 602       6.814  -9.778   6.489  0.93 14.45     0.007 C 
HETATM   30  C24   D T 602       5.754 -10.589   6.093  0.93 15.91     0.040 C 
HETATM   31 CL2    D T 602       6.253 -12.283   5.832  0.93 18.54    -0.087 Cl
HETATM   32  C25   D T 602       4.343 -10.290   5.694  0.93 19.85     0.064 C 
HETATM   33  C26   D T 602       4.007  -8.949   6.125  0.93 17.96    -0.021 C 
HETATM   34  C27   D T 602       4.974  -8.145   6.460  0.93 18.50    -0.004 C 
ENDBRANCH  12  28
TORSDOF 4
ENDMDL
MODEL 7
REMARK VINA RESULT:    -8.457      2.598      6.075
REMARK INTER + INTRA:         -11.686
REMARK INTER:                  -9.984
REMARK INTRA:                  -1.702
REMARK UNBOUND:                -1.251
REMARK  4 active torsions:
REMARK  status: ('A' for Active; 'I' for Inactive)
REMARK    1  A    between atoms: C4_6  and  C5_7 
REMARK    2  A    between atoms: C5_7  and  C6_8 
REMARK    3  A    between atoms: C5_7  and  C12_16 
REMARK    4  A    between atoms: C21_27  and  C22_28 
ROOT
HETATM    1  C12   D T 602       8.696  -9.235   1.091  0.93 11.20    -0.001 C 
HETATM    2  C13   D T 602       8.617  -8.085   0.622  0.93 13.45    -0.005 C 
HETATM    3  C14   D T 602       9.813  -7.577   0.156  0.93 13.80     0.011 C 
HETATM    4  C15   D T 602       9.714 -10.167   1.125  0.93 11.22     0.031 C 
HETATM    5  C16   D T 602      11.156  -9.537   0.788  0.93 16.07     0.048 C 
HETATM    6  C17   D T 602      10.911  -8.049   0.411  0.93 15.64     0.040 C 
HETATM    7  N4    D T 602      12.246  -7.601  -0.011  0.93 18.36    -0.297 N 
HETATM    8  C18   D T 602      13.535  -8.455   0.259  0.93 18.78     0.133 C 
HETATM    9  C19   D T 602      12.352  -6.270  -0.266  0.93 20.18     0.261 C 
HETATM   10  O1    D T 602      13.510  -5.846  -0.504  0.93 23.41    -0.267 OA
HETATM   11  C20   D T 602      11.117  -5.655  -0.385  0.93 18.07     0.061 C 
HETATM   12  C21   D T 602       9.879  -6.197  -0.332  0.93 15.40     0.006 C 
ENDROOT
BRANCH   1  13
HETATM   13  C5    D T 602       7.359  -9.954   1.324  0.93 11.75     0.334 C 
HETATM   14  N3    D T 602       7.214 -11.365   1.188  0.93 12.53     0.628 N 
BRANCH  13  15
HETATM   15  C4    D T 602       7.197  -9.773   2.971  0.93 10.99     0.082 C 
HETATM   16  N1    D T 602       6.044 -10.146   3.732  0.93 12.88    -0.312 N 
HETATM   17  C1    D T 602       4.892 -11.122   3.465  0.93 11.29     0.132 C 
HETATM   18  C2    D T 602       6.215  -9.798   4.975  0.93 12.15     0.174 C 
HETATM   19  N2    D T 602       7.297  -9.161   5.068  0.93 12.12    -0.246 NA
HETATM   20  C3    D T 602       7.990  -8.883   3.865  0.93 11.32     0.169 C 
ENDBRANCH  13  15
BRANCH  13  21
HETATM   21  C6    D T 602       6.022  -9.367   0.757  0.93 12.23     0.016 C 
HETATM   22  C7    D T 602       5.714  -8.083   1.045  0.93  8.55    -0.022 C 
HETATM   23  C8    D T 602       4.707  -7.316   0.426  0.93 12.58     0.064 C 
HETATM   24  C9    D T 602       4.310  -8.295  -0.692  0.93 13.77     0.040 C 
HETATM   25 CL1    D T 602       3.041  -7.233  -1.704  0.93 24.65    -0.087 Cl
HETATM   26  C10   D T 602       4.550  -9.442  -1.003  0.93 16.75     0.007 C 
HETATM   27  C11   D T 602       5.536 -10.102  -0.180  0.93 14.77    -0.001 C 
ENDBRANCH  13  21
ENDBRANCH   1  13
BRANCH  12  28
HETATM   28  C22   D T 602       8.659  -5.394  -0.464  0.93 16.80     0.000 C 
HETATM   29  C23   D T 602       7.754  -5.632  -1.595  0.93 14.45     0.007 C 
HETATM   30  C24   D T 602       6.677  -4.761  -1.464  0.93 15.91     0.040 C 
HETATM   31 CL2    D T 602       5.502  -4.924  -2.797  0.93 18.54    -0.087 Cl
HETATM   32  C25   D T 602       6.399  -3.625  -0.530  0.93 19.85     0.064 C 
HETATM   33  C26   D T 602       7.301  -3.714   0.599  0.93 17.96    -0.021 C 
HETATM   34  C27   D T 602       8.347  -4.483   0.497  0.93 18.50    -0.004 C 
ENDBRANCH  12  28
TORSDOF 4
ENDMDL
MODEL 8
REMARK VINA RESULT:    -8.143      3.890      7.268
REMARK INTER + INTRA:         -11.297
REMARK INTER:                 -11.205
REMARK INTRA:                  -0.092
REMARK UNBOUND:                -1.251
REMARK  4 active torsions:
REMARK  status: ('A' for Active; 'I' for Inactive)
REMARK    1  A    between atoms: C4_6  and  C5_7 
REMARK    2  A    between atoms: C5_7  and  C6_8 
REMARK    3  A    between atoms: C5_7  and  C12_16 
REMARK    4  A    between atoms: C21_27  and  C22_28 
ROOT
HETATM    1  C12   D T 602      10.508  -6.038   3.427  0.93 11.20    -0.001 C 
HETATM    2  C13   D T 602       9.962  -5.733   2.351  0.93 13.45    -0.005 C 
HETATM    3  C14   D T 602      10.749  -5.938   1.235  0.93 13.80     0.011 C 
HETATM    4  C15   D T 602      11.700  -6.667   3.730  0.93 11.22     0.031 C 
HETATM    5  C16   D T 602      12.716  -6.724   2.484  0.93 16.07     0.048 C 
HETATM    6  C17   D T 602      11.957  -6.128   1.265  0.93 15.64     0.040 C 
HETATM    7  N4    D T 602      12.900  -6.349   0.160  0.93 18.36    -0.297 N 
HETATM    8  C18   D T 602      14.391  -6.771   0.409  0.93 18.78     0.133 C 
HETATM    9  C19   D T 602      12.540  -5.786  -1.023  0.93 20.18     0.261 C 
HETATM   10  O1    D T 602      13.390  -5.852  -1.946  0.93 23.41    -0.267 OA
HETATM   11  C20   D T 602      11.214  -5.388  -1.038  0.93 18.07     0.061 C 
HETATM   12  C21   D T 602      10.264  -5.530  -0.086  0.93 15.40     0.006 C 
ENDROOT
BRANCH   1  13
HETATM   13  C5    D T 602       9.577  -6.129   4.644  0.93 11.75     0.334 C 
HETATM   14  N3    D T 602       8.166  -6.295   4.521  0.93 12.53     0.628 N 
BRANCH  13  15
HETATM   15  C4    D T 602      10.020  -7.612   5.259  0.93 10.99     0.082 C 
HETATM   16  N1    D T 602       9.557  -8.877   4.775  0.93 12.88    -0.312 N 
HETATM   17  C1    D T 602       8.953  -9.321   3.437  0.93 11.29     0.132 C 
HETATM   18  C2    D T 602      10.035  -9.827   5.525  0.93 12.15     0.174 C 
HETATM   19  N2    D T 602      10.664  -9.305   6.483  0.93 12.12    -0.246 NA
HETATM   20  C3    D T 602      10.622  -7.894   6.592  0.93 11.32     0.169 C 
ENDBRANCH  13  15
BRANCH  13  21
HETATM   21  C6    D T 602       9.750  -5.160   5.863  0.93 12.23     0.016 C 
HETATM   22  C7    D T 602       9.004  -5.382   6.967  0.93  8.55    -0.022 C 
HETATM   23  C8    D T 602       9.201  -4.791   8.231  0.93 12.58     0.064 C 
HETATM   24  C9    D T 602      10.535  -4.075   7.957  0.93 13.77     0.040 C 
HETATM   25 CL1    D T 602      10.967  -3.375   9.714  0.93 24.65    -0.087 Cl
HETATM   26  C10   D T 602      11.248  -3.847   7.003  0.93 16.75     0.007 C 
HETATM   27  C11   D T 602      10.821  -4.455   5.765  0.93 14.77    -0.001 C 
ENDBRANCH  13  21
ENDBRANCH   1  13
BRANCH  12  28
HETATM   28  C22   D T 602       8.895  -5.034  -0.255  0.93 16.80     0.000 C 
HETATM   29  C23   D T 602       8.012  -5.667  -1.244  0.93 14.45     0.007 C 
HETATM   30  C24   D T 602       6.779  -5.025  -1.181  0.93 15.91     0.040 C 
HETATM   31 CL2    D T 602       5.609  -5.681  -2.357  0.93 18.54    -0.087 Cl
HETATM   32  C25   D T 602       6.305  -3.810  -0.447  0.93 19.85     0.064 C 
HETATM   33  C26   D T 602       7.255  -3.492   0.599  0.93 17.96    -0.021 C 
HETATM   34  C27   D T 602       8.436  -4.036   0.548  0.93 18.50    -0.004 C 
ENDBRANCH  12  28
TORSDOF 4
ENDMDL
MODEL 9
REMARK VINA RESULT:    -8.071      2.445      4.474
REMARK INTER + INTRA:         -11.209
REMARK INTER:                 -11.965
REMARK INTRA:                   0.756
REMARK UNBOUND:                -1.251
REMARK  4 active torsions:
REMARK  status: ('A' for Active; 'I' for Inactive)
REMARK    1  A    between atoms: C4_6  and  C5_7 
REMARK    2  A    between atoms: C5_7  and  C6_8 
REMARK    3  A    between atoms: C5_7  and  C12_16 
REMARK    4  A    between atoms: C21_27  and  C22_28 
ROOT
HETATM    1  C12   D T 602       7.161  -5.919   1.317  0.93 11.20    -0.001 C 
HETATM    2  C13   D T 602       7.626  -5.997   2.468  0.93 13.45    -0.005 C 
HETATM    3  C14   D T 602       7.171  -7.080   3.194  0.93 13.80     0.011 C 
HETATM    4  C15   D T 602       6.378  -6.769   0.561  0.93 11.22     0.031 C 
HETATM    5  C16   D T 602       5.669  -7.918   1.436  0.93 16.07     0.048 C 
HETATM    6  C17   D T 602       6.202  -7.760   2.888  0.93 15.64     0.040 C 
HETATM    7  N4    D T 602       5.617  -8.921   3.573  0.93 18.36    -0.297 N 
HETATM    8  C18   D T 602       4.482  -9.788   2.921  0.93 18.78     0.133 C 
HETATM    9  C19   D T 602       5.812  -8.953   4.918  0.93 20.18     0.261 C 
HETATM   10  O1    D T 602       5.213  -9.866   5.539  0.93 23.41    -0.267 OA
HETATM   11  C20   D T 602       6.785  -8.060   5.333  0.93 18.07     0.061 C 
HETATM   12  C21   D T 602       7.565  -7.237   4.596  0.93 15.40     0.006 C 
ENDROOT
BRANCH   1  13
HETATM   13  C5    D T 602       7.868  -4.931   0.378  0.93 11.75     0.334 C 
HETATM   14  N3    D T 602       8.221  -3.610   0.780  0.93 12.53     0.628 N 
BRANCH  13  15
HETATM   15  C4    D T 602       9.369  -5.642   0.260  0.93 10.99     0.082 C 
HETATM   16  N1    D T 602       9.611  -7.050   0.184  0.93 12.88    -0.312 N 
HETATM   17  C1    D T 602       8.731  -8.236  -0.229  0.93 11.29     0.132 C 
HETATM   18  C2    D T 602      10.894  -7.268   0.181  0.93 12.15     0.174 C 
HETATM   19  N2    D T 602      11.489  -6.171   0.346  0.93 12.12    -0.246 NA
HETATM   20  C3    D T 602      10.687  -5.031   0.595  0.93 11.32     0.169 C 
ENDBRANCH  13  15
BRANCH  13  21
HETATM   21  C6    D T 602       7.417  -4.777  -1.114  0.93 12.23     0.016 C 
HETATM   22  C7    D T 602       8.102  -5.454  -2.062  0.93  8.55    -0.022 C 
HETATM   23  C8    D T 602       7.697  -5.645  -3.398  0.93 12.58     0.064 C 
HETATM   24  C9    D T 602       6.276  -5.061  -3.305  0.93 13.77     0.040 C 
HETATM   25 CL1    D T 602       5.581  -5.448  -5.073  0.93 24.65    -0.087 Cl
HETATM   26  C10   D T 602       5.611  -4.454  -2.493  0.93 16.75     0.007 C 
HETATM   27  C11   D T 602       6.242  -4.263  -1.209  0.93 14.77    -0.001 C 
ENDBRANCH  13  21
ENDBRANCH   1  13
BRANCH  12  28
HETATM   28  C22   D T 602       8.549  -6.333   5.199  0.93 16.80     0.000 C 
HETATM   29  C23   D T 602       8.390  -5.918   6.599  0.93 14.45     0.007 C 
HETATM   30  C24   D T 602       9.462  -5.090   6.918  0.93 15.91     0.040 C 
HETATM   31 CL2    D T 602       9.382  -4.487   8.595  0.93 18.54    -0.087 Cl
HETATM   32  C25   D T 602      10.560  -4.491   6.096  0.93 19.85     0.064 C 
HETATM   33  C26   D T 602      10.637  -5.192   4.831  0.93 17.96    -0.021 C 
HETATM   34  C27   D T 602       9.632  -5.939   4.475  0.93 18.50    -0.004 C 
ENDBRANCH  12  28
TORSDOF 4
ENDMDL
