MODEL 1
REMARK VINA RESULT:    -8.469      0.000      0.000
REMARK INTER + INTRA:         -11.507
REMARK INTER:                 -10.449
REMARK INTRA:                  -1.057
REMARK UNBOUND:                -1.057
REMARK  4 active torsions:
REMARK  status: ('A' for Active; 'I' for Inactive)
REMARK    1  A    between atoms: C4_6  and  C5_7 
REMARK    2  A    between atoms: C5_7  and  C6_8 
REMARK    3  A    between atoms: C5_7  and  C12_16 
REMARK    4  A    between atoms: C21_27  and  C22_28 
ROOT
HETATM    1  C12   D T 602       7.707  -5.133   4.312  0.93 11.20    -0.001 C 
HETATM    2  C13   D T 602       6.831  -6.012   4.221  0.93 13.45    -0.005 C 
HETATM    3  C14   D T 602       6.167  -6.280   5.401  0.93 13.80     0.011 C 
HETATM    4  C15   D T 602       8.069  -4.271   5.329  0.93 11.22     0.031 C 
HETATM    5  C16   D T 602       7.468  -4.697   6.759  0.93 16.07     0.048 C 
HETATM    6  C17   D T 602       6.552  -5.927   6.506  0.93 15.64     0.040 C 
HETATM    7  N4    D T 602       5.947  -6.153   7.826  0.93 18.36    -0.297 N 
HETATM    8  C18   D T 602       6.487  -5.449   9.122  0.93 18.78     0.133 C 
HETATM    9  C19   D T 602       5.192  -7.279   7.927  0.93 20.18     0.261 C 
HETATM   10  O1    D T 602       4.772  -7.558   9.077  0.93 23.41    -0.267 OA
HETATM   11  C20   D T 602       4.882  -7.819   6.691  0.93 18.07     0.061 C 
HETATM   12  C21   D T 602       5.179  -7.361   5.454  0.93 15.40     0.006 C 
ENDROOT
BRANCH   1  13
HETATM   13  C5    D T 602       8.243  -4.583   2.983  0.93 11.75     0.334 C 
HETATM   14  N3    D T 602       8.594  -3.212   2.807  0.93 12.53     0.628 N 
BRANCH  13  15
HETATM   15  C4    D T 602       9.741  -5.306   2.933  0.93 10.99     0.082 C 
HETATM   16  N1    D T 602       9.995  -6.697   3.164  0.93 12.88    -0.312 N 
HETATM   17  C1    D T 602       9.102  -7.942   3.090  0.93 11.29     0.132 C 
HETATM   18  C2    D T 602      11.277  -6.913   3.127  0.93 12.15     0.174 C 
HETATM   19  N2    D T 602      11.869  -5.809   2.999  0.93 12.12    -0.246 NA
HETATM   20  C3    D T 602      11.071  -4.641   3.034  0.93 11.32     0.169 C 
ENDBRANCH  13  15
BRANCH  13  21
HETATM   21  C6    D T 602       7.590  -4.997   1.621  0.93 12.23     0.016 C 
HETATM   22  C7    D T 602       6.250  -4.877   1.492  0.93  8.55    -0.022 C 
HETATM   23  C8    D T 602       5.524  -4.951   0.285  0.93 12.58     0.064 C 
HETATM   24  C9    D T 602       6.704  -4.989  -0.702  0.93 13.77     0.040 C 
HETATM   25 CL1    D T 602       5.782  -4.914  -2.408  0.93 24.65    -0.087 Cl
HETATM   26  C10   D T 602       7.911  -5.091  -0.651  0.93 16.75     0.007 C 
HETATM   27  C11   D T 602       8.464  -5.107   0.683  0.93 14.77    -0.001 C 
ENDBRANCH  13  21
ENDBRANCH   1  13
BRANCH  12  28
HETATM   28  C22   D T 602       4.785  -8.069   4.232  0.93 16.80     0.000 C 
HETATM   29  C23   D T 602       4.179  -7.322   3.125  0.93 14.45     0.007 C 
HETATM   30  C24   D T 602       3.930  -8.223   2.094  0.93 15.91     0.040 C 
HETATM   31 CL2    D T 602       3.161  -7.448   0.681  0.93 18.54    -0.087 Cl
HETATM   32  C25   D T 602       4.031  -9.713   2.003  0.93 19.85     0.064 C 
HETATM   33  C26   D T 602       4.832 -10.197   3.107  0.93 17.96    -0.021 C 
HETATM   34  C27   D T 602       5.047  -9.399   4.112  0.93 18.50    -0.004 C 
ENDBRANCH  12  28
TORSDOF 4
ENDMDL
MODEL 2
REMARK VINA RESULT:    -8.405      1.167      1.477
REMARK INTER + INTRA:         -11.428
REMARK INTER:                  -9.962
REMARK INTRA:                  -1.466
REMARK UNBOUND:                -1.057
REMARK  4 active torsions:
REMARK  status: ('A' for Active; 'I' for Inactive)
REMARK    1  A    between atoms: C4_6  and  C5_7 
REMARK    2  A    between atoms: C5_7  and  C6_8 
REMARK    3  A    between atoms: C5_7  and  C12_16 
REMARK    4  A    between atoms: C21_27  and  C22_28 
ROOT
HETATM    1  C12   D T 602       8.124  -4.963   4.706  0.93 11.20    -0.001 C 
HETATM    2  C13   D T 602       7.186  -5.777   4.780  0.93 13.45    -0.005 C 
HETATM    3  C14   D T 602       6.631  -5.895   6.038  0.93 13.80     0.011 C 
HETATM    4  C15   D T 602       8.647  -4.050   5.601  0.93 11.22     0.031 C 
HETATM    5  C16   D T 602       8.171  -4.310   7.116  0.93 16.07     0.048 C 
HETATM    6  C17   D T 602       7.152  -5.482   7.064  0.93 15.64     0.040 C 
HETATM    7  N4    D T 602       6.673  -5.552   8.452  0.93 18.36    -0.297 N 
HETATM    8  C18   D T 602       7.391  -4.787   9.621  0.93 18.78     0.133 C 
HETATM    9  C19   D T 602       5.858  -6.605   8.726  0.93 20.18     0.261 C 
HETATM   10  O1    D T 602       5.541  -6.755   9.932  0.93 23.41    -0.267 OA
HETATM   11  C20   D T 602       5.386  -7.220   7.580  0.93 18.07     0.061 C 
HETATM   12  C21   D T 602       5.583  -6.889   6.284  0.93 15.40     0.006 C 
ENDROOT
BRANCH   1  13
HETATM   13  C5    D T 602       8.556  -4.567   3.287  0.93 11.75     0.334 C 
HETATM   14  N3    D T 602       8.914  -3.230   2.940  0.93 12.53     0.628 N 
BRANCH  13  15
HETATM   15  C4    D T 602      10.032  -5.329   3.190  0.93 10.99     0.082 C 
HETATM   16  N1    D T 602      10.252  -6.730   3.394  0.93 12.88    -0.312 N 
HETATM   17  C1    D T 602       9.325  -7.949   3.324  0.93 11.29     0.132 C 
HETATM   18  C2    D T 602      11.527  -6.980   3.323  0.93 12.15     0.174 C 
HETATM   19  N2    D T 602      12.145  -5.891   3.198  0.93 12.12    -0.246 NA
HETATM   20  C3    D T 602      11.381  -4.702   3.269  0.93 11.32     0.169 C 
ENDBRANCH  13  15
BRANCH  13  21
HETATM   21  C6    D T 602       7.783  -5.101   2.034  0.93 12.23     0.016 C 
HETATM   22  C7    D T 602       6.456  -5.326   2.149  0.93  8.55    -0.022 C 
HETATM   23  C8    D T 602       5.559  -5.554   1.085  0.93 12.58     0.064 C 
HETATM   24  C9    D T 602       6.507  -5.266  -0.093  0.93 13.77     0.040 C 
HETATM   25 CL1    D T 602       5.293  -5.389  -1.602  0.93 24.65    -0.087 Cl
HETATM   26  C10   D T 602       7.689  -5.057  -0.260  0.93 16.75     0.007 C 
HETATM   27  C11   D T 602       8.466  -4.962   0.953  0.93 14.77    -0.001 C 
ENDBRANCH  13  21
ENDBRANCH   1  13
BRANCH  12  28
HETATM   28  C22   D T 602       5.018  -7.664   5.174  0.93 16.80     0.000 C 
HETATM   29  C23   D T 602       5.513  -9.020   4.911  0.93 14.45     0.007 C 
HETATM   30  C24   D T 602       4.795  -9.528   3.832  0.93 15.91     0.040 C 
HETATM   31 CL2    D T 602       5.317 -11.175   3.382  0.93 18.54    -0.087 Cl
HETATM   32  C25   D T 602       3.804  -8.915   2.894  0.93 19.85     0.064 C 
HETATM   33  C26   D T 602       3.324  -7.674   3.464  0.93 17.96    -0.021 C 
HETATM   34  C27   D T 602       3.995  -7.142   4.443  0.93 18.50    -0.004 C 
ENDBRANCH  12  28
TORSDOF 4
ENDMDL
MODEL 3
REMARK VINA RESULT:    -8.155      3.716      7.300
REMARK INTER + INTRA:         -11.119
REMARK INTER:                  -9.629
REMARK INTRA:                  -1.491
REMARK UNBOUND:                -1.057
REMARK  4 active torsions:
REMARK  status: ('A' for Active; 'I' for Inactive)
REMARK    1  A    between atoms: C4_6  and  C5_7 
REMARK    2  A    between atoms: C5_7  and  C6_8 
REMARK    3  A    between atoms: C5_7  and  C12_16 
REMARK    4  A    between atoms: C21_27  and  C22_28 
ROOT
HETATM    1  C12   D T 602       4.976  -7.478   3.189  0.93 11.20    -0.001 C 
HETATM    2  C13   D T 602       6.009  -6.785   3.186  0.93 13.45    -0.005 C 
HETATM    3  C14   D T 602       6.206  -6.061   2.028  0.93 13.80     0.011 C 
HETATM    4  C15   D T 602       3.908  -7.575   2.317  0.93 11.22     0.031 C 
HETATM    5  C16   D T 602       4.207  -6.915   0.881  0.93 16.07     0.048 C 
HETATM    6  C17   D T 602       5.613  -6.261   0.978  0.93 15.64     0.040 C 
HETATM    7  N4    D T 602       5.736  -5.573  -0.315  0.93 18.36    -0.297 N 
HETATM    8  C18   D T 602       4.744  -5.844  -1.501  0.93 18.78     0.133 C 
HETATM    9  C19   D T 602       6.955  -5.022  -0.558  0.93 20.18     0.261 C 
HETATM   10  O1    D T 602       7.121  -4.541  -1.707  0.93 23.41    -0.267 OA
HETATM   11  C20   D T 602       7.736  -4.941   0.582  0.93 18.07     0.061 C 
HETATM   12  C21   D T 602       7.434  -5.278   1.855  0.93 15.40     0.006 C 
ENDROOT
BRANCH   1  13
HETATM   13  C5    D T 602       4.553  -8.043   4.553  0.93 11.75     0.334 C 
HETATM   14  N3    D T 602       3.189  -8.282   4.894  0.93 12.53     0.628 N 
BRANCH  13  15
HETATM   15  C4    D T 602       5.132  -9.599   4.433  0.93 10.99     0.082 C 
HETATM   16  N1    D T 602       5.347 -10.486   5.536  0.93 12.88    -0.312 N 
HETATM   17  C1    D T 602       4.785 -10.527   6.962  0.93 11.29     0.132 C 
HETATM   18  C2    D T 602       5.877 -11.592   5.102  0.93 12.15     0.174 C 
HETATM   19  N2    D T 602       6.114 -11.471   3.872  0.93 12.12    -0.246 NA
HETATM   20  C3    D T 602       5.872 -10.203   3.290  0.93 11.32     0.169 C 
ENDBRANCH  13  15
BRANCH  13  21
HETATM   21  C6    D T 602       5.199  -7.511   5.877  0.93 12.23     0.016 C 
HETATM   22  C7    D T 602       6.546  -7.535   5.985  0.93  8.55    -0.022 C 
HETATM   23  C8    D T 602       7.309  -6.875   6.971  0.93 12.58     0.064 C 
HETATM   24  C9    D T 602       6.186  -6.059   7.636  0.93 13.77     0.040 C 
HETATM   25 CL1    D T 602       7.190  -4.982   8.900  0.93 24.65    -0.087 Cl
HETATM   26  C10   D T 602       4.977  -5.990   7.582  0.93 16.75     0.007 C 
HETATM   27  C11   D T 602       4.365  -6.825   6.576  0.93 14.77    -0.001 C 
ENDBRANCH  13  21
ENDBRANCH   1  13
BRANCH  12  28
HETATM   28  C22   D T 602       8.391  -5.144   2.958  0.93 16.80     0.000 C 
HETATM   29  C23   D T 602       9.677  -5.847   2.891  0.93 14.45     0.007 C 
HETATM   30  C24   D T 602      10.392  -5.528   4.041  0.93 15.91     0.040 C 
HETATM   31 CL2    D T 602      11.980  -6.344   4.105  0.93 18.54    -0.087 Cl
HETATM   32  C25   D T 602      10.031  -4.779   5.285  0.93 19.85     0.064 C 
HETATM   33  C26   D T 602       8.825  -4.017   5.041  0.93 17.96    -0.021 C 
HETATM   34  C27   D T 602       8.104  -4.318   4.000  0.93 18.50    -0.004 C 
ENDBRANCH  12  28
TORSDOF 4
ENDMDL
MODEL 4
REMARK VINA RESULT:    -8.153      3.193      6.227
REMARK INTER + INTRA:         -11.116
REMARK INTER:                  -9.949
REMARK INTRA:                  -1.167
REMARK UNBOUND:                -1.057
REMARK  4 active torsions:
REMARK  status: ('A' for Active; 'I' for Inactive)
REMARK    1  A    between atoms: C4_6  and  C5_7 
REMARK    2  A    between atoms: C5_7  and  C6_8 
REMARK    3  A    between atoms: C5_7  and  C12_16 
REMARK    4  A    between atoms: C21_27  and  C22_28 
ROOT
HETATM    1  C12   D T 602       6.481  -8.530   3.076  0.93 11.20    -0.001 C 
HETATM    2  C13   D T 602       7.468  -7.786   3.227  0.93 13.45    -0.005 C 
HETATM    3  C14   D T 602       8.685  -8.432   3.152  0.93 13.80     0.011 C 
HETATM    4  C15   D T 602       6.353  -9.858   2.718  0.93 11.22     0.031 C 
HETATM    5  C16   D T 602       7.734 -10.676   2.831  0.93 16.07     0.048 C 
HETATM    6  C17   D T 602       8.830  -9.644   3.217  0.93 15.64     0.040 C 
HETATM    7  N4    D T 602      10.060 -10.446   3.158  0.93 18.36    -0.297 N 
HETATM    8  C18   D T 602      10.029 -12.013   3.061  0.93 18.78     0.133 C 
HETATM    9  C19   D T 602      11.180  -9.812   3.596  0.93 20.18     0.261 C 
HETATM   10  O1    D T 602      12.216 -10.518   3.675  0.93 23.41    -0.267 OA
HETATM   11  C20   D T 602      11.003  -8.444   3.710  0.93 18.07     0.061 C 
HETATM   12  C21   D T 602       9.923  -7.690   3.407  0.93 15.40     0.006 C 
ENDROOT
BRANCH   1  13
HETATM   13  C5    D T 602       5.140  -7.821   2.837  0.93 11.75     0.334 C 
HETATM   14  N3    D T 602       3.905  -8.529   2.747  0.93 12.53     0.628 N 
BRANCH  13  15
HETATM   15  C4    D T 602       4.949  -7.027   4.287  0.93 10.99     0.082 C 
HETATM   16  N1    D T 602       4.541  -7.638   5.516  0.93 12.88    -0.312 N 
HETATM   17  C1    D T 602       4.571  -9.088   6.016  0.93 11.29     0.132 C 
HETATM   18  C2    D T 602       4.416  -6.724   6.432  0.93 12.15     0.174 C 
HETATM   19  N2    D T 602       4.601  -5.596   5.904  0.93 12.12    -0.246 NA
HETATM   20  C3    D T 602       4.781  -5.562   4.500  0.93 11.32     0.169 C 
ENDBRANCH  13  15
BRANCH  13  21
HETATM   21  C6    D T 602       5.014  -6.679   1.773  0.93 12.23     0.016 C 
HETATM   22  C7    D T 602       5.868  -5.635   1.852  0.93  8.55    -0.022 C 
HETATM   23  C8    D T 602       6.077  -4.659   0.856  0.93 12.58     0.064 C 
HETATM   24  C9    D T 602       5.242  -5.288  -0.275  0.93 13.77     0.040 C 
HETATM   25 CL1    D T 602       5.623  -4.086  -1.750  0.93 24.65    -0.087 Cl
HETATM   26  C10   D T 602       4.470  -6.213  -0.408  0.93 16.75     0.007 C 
HETATM   27  C11   D T 602       4.305  -7.041   0.762  0.93 14.77    -0.001 C 
ENDBRANCH  13  21
ENDBRANCH   1  13
BRANCH  12  28
HETATM   28  C22   D T 602       9.891  -6.237   3.604  0.93 16.80     0.000 C 
HETATM   29  C23   D T 602      10.154  -5.681   4.937  0.93 14.45     0.007 C 
HETATM   30  C24   D T 602      10.087  -4.294   4.835  0.93 15.91     0.040 C 
HETATM   31 CL2    D T 602      10.362  -3.482   6.401  0.93 18.54    -0.087 Cl
HETATM   32  C25   D T 602       9.678  -3.377   3.726  0.93 19.85     0.064 C 
HETATM   33  C26   D T 602       9.672  -4.118   2.482  0.93 17.96    -0.021 C 
HETATM   34  C27   D T 602       9.685  -5.418   2.537  0.93 18.50    -0.004 C 
ENDBRANCH  12  28
TORSDOF 4
ENDMDL
MODEL 5
REMARK VINA RESULT:    -8.142      3.581      7.054
REMARK INTER + INTRA:         -11.103
REMARK INTER:                  -9.870
REMARK INTRA:                  -1.233
REMARK UNBOUND:                -1.057
REMARK  4 active torsions:
REMARK  status: ('A' for Active; 'I' for Inactive)
REMARK    1  A    between atoms: C4_6  and  C5_7 
REMARK    2  A    between atoms: C5_7  and  C6_8 
REMARK    3  A    between atoms: C5_7  and  C12_16 
REMARK    4  A    between atoms: C21_27  and  C22_28 
ROOT
HETATM    1  C12   D T 602       5.392  -7.060   3.906  0.93 11.20    -0.001 C 
HETATM    2  C13   D T 602       6.186  -6.276   3.356  0.93 13.45    -0.005 C 
HETATM    3  C14   D T 602       5.848  -5.935   2.062  0.93 13.80     0.011 C 
HETATM    4  C15   D T 602       4.163  -7.566   3.531  0.93 11.22     0.031 C 
HETATM    5  C16   D T 602       3.848  -7.361   1.967  0.93 16.07     0.048 C 
HETATM    6  C17   D T 602       5.026  -6.533   1.383  0.93 15.64     0.040 C 
HETATM    7  N4    D T 602       4.587  -6.278   0.004  0.93 18.36    -0.297 N 
HETATM    8  C18   D T 602       3.370  -7.037  -0.637  0.93 18.78     0.133 C 
HETATM    9  C19   D T 602       5.511  -5.679  -0.792  0.93 20.18     0.261 C 
HETATM   10  O1    D T 602       5.204  -5.568  -2.005  0.93 23.41    -0.267 OA
HETATM   11  C20   D T 602       6.562  -5.141  -0.069  0.93 18.07     0.061 C 
HETATM   12  C21   D T 602       6.749  -5.095   1.269  0.93 15.40     0.006 C 
ENDROOT
BRANCH   1  13
HETATM   13  C5    D T 602       5.549  -7.215   5.425  0.93 11.75     0.334 C 
HETATM   14  N3    D T 602       4.463  -7.027   6.330  0.93 12.53     0.628 N 
BRANCH  13  15
HETATM   15  C4    D T 602       5.784  -8.859   5.544  0.93 10.99     0.082 C 
HETATM   16  N1    D T 602       6.614  -9.639   4.675  0.93 12.88    -0.312 N 
HETATM   17  C1    D T 602       7.783  -9.274   3.751  0.93 11.29     0.132 C 
HETATM   18  C2    D T 602       6.513 -10.895   4.996  0.93 12.15     0.174 C 
HETATM   19  N2    D T 602       5.643 -11.012   5.899  0.93 12.12    -0.246 NA
HETATM   20  C3    D T 602       4.931  -9.845   6.265  0.93 11.32     0.169 C 
ENDBRANCH  13  15
BRANCH  13  21
HETATM   21  C6    D T 602       6.787  -6.612   6.171  0.93 12.23     0.016 C 
HETATM   22  C7    D T 602       7.912  -6.382   5.459  0.93  8.55    -0.022 C 
HETATM   23  C8    D T 602       9.019  -5.620   5.884  0.93 12.58     0.064 C 
HETATM   24  C9    D T 602       8.434  -5.054   7.190  0.93 13.77     0.040 C 
HETATM   25 CL1    D T 602       9.844  -3.845   7.752  0.93 24.65    -0.087 Cl
HETATM   26  C10   D T 602       7.444  -5.215   7.870  0.93 16.75     0.007 C 
HETATM   27  C11   D T 602       6.465  -6.120   7.315  0.93 14.77    -0.001 C 
ENDBRANCH  13  21
ENDBRANCH   1  13
BRANCH  12  28
HETATM   28  C22   D T 602       7.939  -4.495   1.882  0.93 16.80     0.000 C 
HETATM   29  C23   D T 602       9.273  -4.921   1.442  0.93 14.45     0.007 C 
HETATM   30  C24   D T 602      10.209  -4.183   2.160  0.93 15.91     0.040 C 
HETATM   31 CL2    D T 602      11.889  -4.622   1.743  0.93 18.54    -0.087 Cl
HETATM   32  C25   D T 602      10.085  -3.229   3.306  0.93 19.85     0.064 C 
HETATM   33  C26   D T 602       8.704  -2.811   3.421  0.93 17.96    -0.021 C 
HETATM   34  C27   D T 602       7.794  -3.504   2.803  0.93 18.50    -0.004 C 
ENDBRANCH  12  28
TORSDOF 4
ENDMDL
MODEL 6
REMARK VINA RESULT:    -8.123      3.730      7.053
REMARK INTER + INTRA:         -11.079
REMARK INTER:                  -9.483
REMARK INTRA:                  -1.597
REMARK UNBOUND:                -1.057
REMARK  4 active torsions:
REMARK  status: ('A' for Active; 'I' for Inactive)
REMARK    1  A    between atoms: C4_6  and  C5_7 
REMARK    2  A    between atoms: C5_7  and  C6_8 
REMARK    3  A    between atoms: C5_7  and  C12_16 
REMARK    4  A    between atoms: C21_27  and  C22_28 
ROOT
HETATM    1  C12   D T 602       6.053  -6.861   3.827  0.93 11.20    -0.001 C 
HETATM    2  C13   D T 602       6.882  -6.123   3.266  0.93 13.45    -0.005 C 
HETATM    3  C14   D T 602       6.525  -5.729   1.992  0.93 13.80     0.011 C 
HETATM    4  C15   D T 602       4.777  -7.268   3.487  0.93 11.22     0.031 C 
HETATM    5  C16   D T 602       4.424  -7.004   1.940  0.93 16.07     0.048 C 
HETATM    6  C17   D T 602       5.638  -6.249   1.331  0.93 15.64     0.040 C 
HETATM    7  N4    D T 602       5.171  -5.932  -0.026  0.93 18.36    -0.297 N 
HETATM    8  C18   D T 602       3.880  -6.586  -0.637  0.93 18.78     0.133 C 
HETATM    9  C19   D T 602       6.108  -5.382  -0.842  0.93 20.18     0.261 C 
HETATM   10  O1    D T 602       5.767  -5.221  -2.040  0.93 23.41    -0.267 OA
HETATM   11  C20   D T 602       7.220  -4.939  -0.147  0.93 18.07     0.061 C 
HETATM   12  C21   D T 602       7.456  -4.937   1.184  0.93 15.40     0.006 C 
ENDROOT
BRANCH   1  13
HETATM   13  C5    D T 602       6.250  -7.063   5.336  0.93 11.75     0.334 C 
HETATM   14  N3    D T 602       5.172  -6.988   6.267  0.93 12.53     0.628 N 
BRANCH  13  15
HETATM   15  C4    D T 602       6.604  -8.689   5.385  0.93 10.99     0.082 C 
HETATM   16  N1    D T 602       6.851  -9.444   6.577  0.93 12.88    -0.312 N 
HETATM   17  C1    D T 602       6.486  -9.213   8.048  0.93 11.29     0.132 C 
HETATM   18  C2    D T 602       7.173 -10.663   6.255  0.93 12.15     0.174 C 
HETATM   19  N2    D T 602       7.255 -10.741   5.002  0.93 12.12    -0.246 NA
HETATM   20  C3    D T 602       7.100  -9.540   4.268  0.93 11.32     0.169 C 
ENDBRANCH  13  15
BRANCH  13  21
HETATM   21  C6    D T 602       7.457  -6.401   6.084  0.93 12.23     0.016 C 
HETATM   22  C7    D T 602       8.704  -6.638   5.619  0.93  8.55    -0.022 C 
HETATM   23  C8    D T 602       9.872  -5.941   5.990  0.93 12.58     0.064 C 
HETATM   24  C9    D T 602       9.228  -4.825   6.832  0.93 13.77     0.040 C 
HETATM   25 CL1    D T 602      10.765  -3.712   7.238  0.93 24.65    -0.087 Cl
HETATM   26  C10   D T 602       8.131  -4.558   7.274  0.93 16.75     0.007 C 
HETATM   27  C11   D T 602       7.076  -5.455   6.868  0.93 14.77    -0.001 C 
ENDBRANCH  13  21
ENDBRANCH   1  13
BRANCH  12  28
HETATM   28  C22   D T 602       8.708  -4.440   1.765  0.93 16.80     0.000 C 
HETATM   29  C23   D T 602       9.984  -4.745   1.108  0.93 14.45     0.007 C 
HETATM   30  C24   D T 602      10.994  -4.137   1.847  0.93 15.91     0.040 C 
HETATM   31 CL2    D T 602      12.616  -4.451   1.170  0.93 18.54    -0.087 Cl
HETATM   32  C25   D T 602      11.000  -3.422   3.161  0.93 19.85     0.064 C 
HETATM   33  C26   D T 602       9.641  -3.063   3.506  0.93 17.96    -0.021 C 
HETATM   34  C27   D T 602       8.667  -3.646   2.870  0.93 18.50    -0.004 C 
ENDBRANCH  12  28
TORSDOF 4
ENDMDL
MODEL 7
REMARK VINA RESULT:    -7.572      3.662      7.125
REMARK INTER + INTRA:         -10.400
REMARK INTER:                  -8.963
REMARK INTRA:                  -1.437
REMARK UNBOUND:                -1.057
REMARK  4 active torsions:
REMARK  status: ('A' for Active; 'I' for Inactive)
REMARK    1  A    between atoms: C4_6  and  C5_7 
REMARK    2  A    between atoms: C5_7  and  C6_8 
REMARK    3  A    between atoms: C5_7  and  C12_16 
REMARK    4  A    between atoms: C21_27  and  C22_28 
ROOT
HETATM    1  C12   D T 602       5.453  -6.464   6.267  0.93 11.20    -0.001 C 
HETATM    2  C13   D T 602       6.236  -5.994   5.422  0.93 13.45    -0.005 C 
HETATM    3  C14   D T 602       5.788  -6.081   4.120  0.93 13.80     0.011 C 
HETATM    4  C15   D T 602       4.159  -6.942   6.185  0.93 11.22     0.031 C 
HETATM    5  C16   D T 602       3.697  -7.249   4.674  0.93 16.07     0.048 C 
HETATM    6  C17   D T 602       4.861  -6.788   3.753  0.93 15.64     0.040 C 
HETATM    7  N4    D T 602       4.298  -6.974   2.408  0.93 18.36    -0.297 N 
HETATM    8  C18   D T 602       2.973  -7.781   2.164  0.93 18.78     0.133 C 
HETATM    9  C19   D T 602       5.173  -6.775   1.387  0.93 20.18     0.261 C 
HETATM   10  O1    D T 602       4.749  -7.052   0.238  0.93 23.41    -0.267 OA
HETATM   11  C20   D T 602       6.327  -6.131   1.798  0.93 18.07     0.061 C 
HETATM   12  C21   D T 602       6.656  -5.652   3.019  0.93 15.40     0.006 C 
ENDROOT
BRANCH   1  13
HETATM   13  C5    D T 602       5.756  -6.109   7.730  0.93 11.75     0.334 C 
HETATM   14  N3    D T 602       4.777  -5.547   8.601  0.93 12.53     0.628 N 
BRANCH  13  15
HETATM   15  C4    D T 602       5.932  -7.629   8.384  0.93 10.99     0.082 C 
HETATM   16  N1    D T 602       6.833  -8.634   7.906  0.93 12.88    -0.312 N 
HETATM   17  C1    D T 602       8.108  -8.568   7.056  0.93 11.29     0.132 C 
HETATM   18  C2    D T 602       6.663  -9.727   8.591  0.93 12.15     0.174 C 
HETATM   19  N2    D T 602       5.694  -9.563   9.378  0.93 12.12    -0.246 NA
HETATM   20  C3    D T 602       4.977  -8.347   9.275  0.93 11.32     0.169 C 
ENDBRANCH  13  15
BRANCH  13  21
HETATM   21  C6    D T 602       7.088  -5.384   8.121  0.93 12.23     0.016 C 
HETATM   22  C7    D T 602       7.847  -4.864   7.131  0.93  8.55    -0.022 C 
HETATM   23  C8    D T 602       8.923  -3.968   7.297  0.93 12.58     0.064 C 
HETATM   24  C9    D T 602       8.771  -3.686   8.802  0.93 13.77     0.040 C 
HETATM   25 CL1    D T 602      10.118  -2.316   9.076  0.93 24.65    -0.087 Cl
HETATM   26  C10   D T 602       8.117  -4.110   9.730  0.93 16.75     0.007 C 
HETATM   27  C11   D T 602       7.132  -5.105   9.376  0.93 14.77    -0.001 C 
ENDBRANCH  13  21
ENDBRANCH   1  13
BRANCH  12  28
HETATM   28  C22   D T 602       7.941  -5.002   3.295  0.93 16.80     0.000 C 
HETATM   29  C23   D T 602       9.116  -5.823   3.611  0.93 14.45     0.007 C 
HETATM   30  C24   D T 602      10.192  -4.962   3.801  0.93 15.91     0.040 C 
HETATM   31 CL2    D T 602      11.694  -5.832   4.223  0.93 18.54    -0.087 Cl
HETATM   32  C25   D T 602      10.298  -3.472   3.879  0.93 19.85     0.064 C 
HETATM   33  C26   D T 602       9.090  -2.887   3.338  0.93 17.96    -0.021 C 
HETATM   34  C27   D T 602       8.046  -3.649   3.190  0.93 18.50    -0.004 C 
ENDBRANCH  12  28
TORSDOF 4
ENDMDL
MODEL 8
REMARK VINA RESULT:    -7.360      3.705      7.374
REMARK INTER + INTRA:         -10.138
REMARK INTER:                  -9.023
REMARK INTRA:                  -1.116
REMARK UNBOUND:                -1.057
REMARK  4 active torsions:
REMARK  status: ('A' for Active; 'I' for Inactive)
REMARK    1  A    between atoms: C4_6  and  C5_7 
REMARK    2  A    between atoms: C5_7  and  C6_8 
REMARK    3  A    between atoms: C5_7  and  C12_16 
REMARK    4  A    between atoms: C21_27  and  C22_28 
ROOT
HETATM    1  C12   D T 602       6.645  -8.019   3.814  0.93 11.20    -0.001 C 
HETATM    2  C13   D T 602       7.191  -7.044   3.267  0.93 13.45    -0.005 C 
HETATM    3  C14   D T 602       6.465  -6.491   2.232  0.93 13.80     0.011 C 
HETATM    4  C15   D T 602       5.393  -8.589   3.683  0.93 11.22     0.031 C 
HETATM    5  C16   D T 602       4.618  -8.108   2.357  0.93 16.07     0.048 C 
HETATM    6  C17   D T 602       5.518  -7.035   1.684  0.93 15.64     0.040 C 
HETATM    7  N4    D T 602       4.676  -6.561   0.576  0.93 18.36    -0.297 N 
HETATM    8  C18   D T 602       3.374  -7.320   0.135  0.93 18.78     0.133 C 
HETATM    9  C19   D T 602       5.285  -5.698  -0.280  0.93 20.18     0.261 C 
HETATM   10  O1    D T 602       4.627  -5.381  -1.301  0.93 23.41    -0.267 OA
HETATM   11  C20   D T 602       6.467  -5.192   0.233  0.93 18.07     0.061 C 
HETATM   12  C21   D T 602       7.038  -5.398   1.441  0.93 15.40     0.006 C 
ENDROOT
BRANCH   1  13
HETATM   13  C5    D T 602       7.252  -8.462   5.153  0.93 11.75     0.334 C 
HETATM   14  N3    D T 602       8.076  -7.605   5.942  0.93 12.53     0.628 N 
BRANCH  13  15
HETATM   15  C4    D T 602       5.884  -8.549   6.097  0.93 10.99     0.082 C 
HETATM   16  N1    D T 602       5.212  -7.428   6.682  0.93 12.88    -0.312 N 
HETATM   17  C1    D T 602       5.201  -5.931   6.345  0.93 11.29     0.132 C 
HETATM   18  C2    D T 602       4.229  -7.852   7.420  0.93 12.15     0.174 C 
HETATM   19  N2    D T 602       4.260  -9.110   7.450  0.93 12.12    -0.246 NA
HETATM   20  C3    D T 602       5.352  -9.744   6.810  0.93 11.32     0.169 C 
ENDBRANCH  13  15
BRANCH  13  21
HETATM   21  C6    D T 602       7.899  -9.879   5.311  0.93 12.23     0.016 C 
HETATM   22  C7    D T 602       7.798 -10.747   4.280  0.93  8.55    -0.022 C 
HETATM   23  C8    D T 602       8.522 -11.948   4.135  0.93 12.58     0.064 C 
HETATM   24  C9    D T 602       9.488 -11.791   5.323  0.93 13.77     0.040 C 
HETATM   25 CL1    D T 602      10.644 -13.332   5.087  0.93 24.65    -0.087 Cl
HETATM   26  C10   D T 602       9.631 -11.044   6.267  0.93 16.75     0.007 C 
HETATM   27  C11   D T 602       8.721  -9.925   6.300  0.93 14.77    -0.001 C 
ENDBRANCH  13  21
ENDBRANCH   1  13
BRANCH  12  28
HETATM   28  C22   D T 602       8.316  -4.791   1.826  0.93 16.80     0.000 C 
HETATM   29  C23   D T 602       9.532  -5.126   1.077  0.93 14.45     0.007 C 
HETATM   30  C24   D T 602      10.582  -4.400   1.631  0.93 15.91     0.040 C 
HETATM   31 CL2    D T 602      12.141  -4.734   0.827  0.93 18.54    -0.087 Cl
HETATM   32  C25   D T 602      10.686  -3.535   2.848  0.93 19.85     0.064 C 
HETATM   33  C26   D T 602       9.353  -3.186   3.291  0.93 17.96    -0.021 C 
HETATM   34  C27   D T 602       8.349  -3.875   2.832  0.93 18.50    -0.004 C 
ENDBRANCH  12  28
TORSDOF 4
ENDMDL
MODEL 9
REMARK VINA RESULT:    -7.013      2.171      3.216
REMARK INTER + INTRA:          -9.710
REMARK INTER:                  -9.034
REMARK INTRA:                  -0.676
REMARK UNBOUND:                -1.057
REMARK  4 active torsions:
REMARK  status: ('A' for Active; 'I' for Inactive)
REMARK    1  A    between atoms: C4_6  and  C5_7 
REMARK    2  A    between atoms: C5_7  and  C6_8 
REMARK    3  A    between atoms: C5_7  and  C12_16 
REMARK    4  A    between atoms: C21_27  and  C22_28 
ROOT
HETATM    1  C12   D T 602       7.268  -5.916   7.250  0.93 11.20    -0.001 C 
HETATM    2  C13   D T 602       6.378  -6.674   6.825  0.93 13.45    -0.005 C 
HETATM    3  C14   D T 602       5.648  -7.305   7.811  0.93 13.80     0.011 C 
HETATM    4  C15   D T 602       7.596  -5.470   8.516  0.93 11.22     0.031 C 
HETATM    5  C16   D T 602       6.912  -6.339   9.685  0.93 16.07     0.048 C 
HETATM    6  C17   D T 602       5.982  -7.369   8.985  0.93 15.64     0.040 C 
HETATM    7  N4    D T 602       5.304  -8.011  10.120  0.93 18.36    -0.297 N 
HETATM    8  C18   D T 602       5.791  -7.818  11.600  0.93 18.78     0.133 C 
HETATM    9  C19   D T 602       4.519  -9.072   9.794  0.93 20.18     0.261 C 
HETATM   10  O1    D T 602       4.032  -9.712  10.758  0.93 23.41    -0.267 OA
HETATM   11  C20   D T 602       4.262  -9.142   8.436  0.93 18.07     0.061 C 
HETATM   12  C21   D T 602       4.633  -8.298   7.446  0.93 15.40     0.006 C 
ENDROOT
BRANCH   1  13
HETATM   13  C5    D T 602       7.886  -4.964   6.216  0.93 11.75     0.334 C 
HETATM   14  N3    D T 602       8.619  -3.798   6.589  0.93 12.53     0.628 N 
BRANCH  13  15
HETATM   15  C4    D T 602       9.099  -5.923   5.601  0.93 10.99     0.082 C 
HETATM   16  N1    D T 602      10.437  -5.987   6.107  0.93 12.88    -0.312 N 
HETATM   17  C1    D T 602      11.054  -5.626   7.464  0.93 11.29     0.132 C 
HETATM   18  C2    D T 602      11.147  -6.773   5.351  0.93 12.15     0.174 C 
HETATM   19  N2    D T 602      10.443  -7.134   4.372  0.93 12.12    -0.246 NA
HETATM   20  C3    D T 602       9.156  -6.557   4.254  0.93 11.32     0.169 C 
ENDBRANCH  13  15
BRANCH  13  21
HETATM   21  C6    D T 602       7.082  -4.528   4.944  0.93 12.23     0.016 C 
HETATM   22  C7    D T 602       7.634  -3.607   4.123  0.93  8.55    -0.022 C 
HETATM   23  C8    D T 602       7.192  -3.286   2.824  0.93 12.58     0.064 C 
HETATM   24  C9    D T 602       6.134  -4.390   2.650  0.93 13.77     0.040 C 
HETATM   25 CL1    D T 602       5.597  -4.123   0.805  0.93 24.65    -0.087 Cl
HETATM   26  C10   D T 602       5.604  -5.237   3.336  0.93 16.75     0.007 C 
HETATM   27  C11   D T 602       6.123  -5.344   4.679  0.93 14.77    -0.001 C 
ENDBRANCH  13  21
ENDBRANCH   1  13
BRANCH  12  28
HETATM   28  C22   D T 602       4.288  -8.527   6.039  0.93 16.80     0.000 C 
HETATM   29  C23   D T 602       5.166  -9.353   5.203  0.93 14.45     0.007 C 
HETATM   30  C24   D T 602       4.596  -9.425   3.936  0.93 15.91     0.040 C 
HETATM   31 CL2    D T 602       5.581 -10.385   2.798  0.93 18.54    -0.087 Cl
HETATM   32  C25   D T 602       3.424  -8.735   3.310  0.93 19.85     0.064 C 
HETATM   33  C26   D T 602       2.609  -8.154   4.355  0.93 17.96    -0.021 C 
HETATM   34  C27   D T 602       3.124  -8.026   5.543  0.93 18.50    -0.004 C 
ENDBRANCH  12  28
TORSDOF 4
ENDMDL
