MODEL 1
REMARK VINA RESULT:    -9.489      0.000      0.000
REMARK INTER + INTRA:         -12.808
REMARK INTER:                 -11.708
REMARK INTRA:                  -1.100
REMARK UNBOUND:                -1.100
REMARK  4 active torsions:
REMARK  status: ('A' for Active; 'I' for Inactive)
REMARK    1  A    between atoms: C4_6  and  C5_7 
REMARK    2  A    between atoms: C5_7  and  C6_8 
REMARK    3  A    between atoms: C5_7  and  C12_16 
REMARK    4  A    between atoms: C21_27  and  C22_28 
ROOT
HETATM    1  C12   D T 602      -1.037   6.316  -6.938  0.93 11.20    -0.001 C 
HETATM    2  C13   D T 602      -2.264   6.123  -6.865  0.93 13.45    -0.005 C 
HETATM    3  C14   D T 602      -2.621   4.812  -6.630  0.93 13.80     0.011 C 
HETATM    4  C15   D T 602       0.056   5.505  -6.703  0.93 11.22     0.031 C 
HETATM    5  C16   D T 602      -0.322   3.942  -6.640  0.93 16.07     0.048 C 
HETATM    6  C17   D T 602      -1.869   3.856  -6.758  0.93 15.64     0.040 C 
HETATM    7  N4    D T 602      -2.128   2.425  -6.549  0.93 18.36    -0.297 N 
HETATM    8  C18   D T 602      -0.975   1.358  -6.572  0.93 18.78     0.133 C 
HETATM    9  C19   D T 602      -3.417   2.039  -6.743  0.93 20.18     0.261 C 
HETATM   10  O1    D T 602      -3.634   0.803  -6.697  0.93 23.41    -0.267 OA
HETATM   11  C20   D T 602      -4.288   3.113  -6.787  0.93 18.07     0.061 C 
HETATM   12  C21   D T 602      -4.038   4.431  -6.618  0.93 15.40     0.006 C 
ENDROOT
BRANCH   1  13
HETATM   13  C5    D T 602      -0.586   7.783  -6.879  0.93 11.75     0.334 C 
HETATM   14  N3    D T 602       0.733   8.165  -6.493  0.93 12.53     0.628 N 
BRANCH  13  15
HETATM   15  C4    D T 602      -0.568   8.163  -8.499  0.93 10.99     0.082 C 
HETATM   16  N1    D T 602       0.552   7.992  -9.375  0.93 12.88    -0.312 N 
HETATM   17  C1    D T 602       1.804   7.108  -9.301  0.93 11.29     0.132 C 
HETATM   18  C2    D T 602       0.255   8.460 -10.552  0.93 12.15     0.174 C 
HETATM   19  N2    D T 602      -0.883   8.995 -10.496  0.93 12.12    -0.246 NA
HETATM   20  C3    D T 602      -1.503   9.066  -9.227  0.93 11.32     0.169 C 
ENDBRANCH  13  15
BRANCH  13  21
HETATM   21  C6    D T 602      -1.510   8.883  -6.253  0.93 12.23     0.016 C 
HETATM   22  C7    D T 602      -2.746   8.524  -5.847  0.93  8.55    -0.022 C 
HETATM   23  C8    D T 602      -3.609   9.294  -5.041  0.93 12.58     0.064 C 
HETATM   24  C9    D T 602      -2.643  10.434  -4.675  0.93 13.77     0.040 C 
HETATM   25 CL1    D T 602      -3.708  11.454  -3.415  0.93 24.65    -0.087 Cl
HETATM   26  C10   D T 602      -1.534  10.804  -4.997  0.93 16.75     0.007 C 
HETATM   27  C11   D T 602      -0.845   9.933  -5.919  0.93 14.77    -0.001 C 
ENDBRANCH  13  21
ENDBRANCH   1  13
BRANCH  12  28
HETATM   28  C22   D T 602      -5.083   5.455  -6.712  0.93 16.80     0.000 C 
HETATM   29  C23   D T 602      -5.789   5.656  -7.984  0.93 14.45     0.007 C 
HETATM   30  C24   D T 602      -6.735   6.657  -7.788  0.93 15.91     0.040 C 
HETATM   31 CL2    D T 602      -7.654   7.026  -9.272  0.93 18.54    -0.087 Cl
HETATM   32  C25   D T 602      -7.014   7.578  -6.641  0.93 19.85     0.064 C 
HETATM   33  C26   D T 602      -6.358   7.065  -5.456  0.93 17.96    -0.021 C 
HETATM   34  C27   D T 602      -5.435   6.161  -5.603  0.93 18.50    -0.004 C 
ENDBRANCH  12  28
TORSDOF 4
ENDMDL
MODEL 2
REMARK VINA RESULT:    -9.282      3.784      7.083
REMARK INTER + INTRA:         -12.552
REMARK INTER:                 -11.870
REMARK INTRA:                  -0.682
REMARK UNBOUND:                -1.100
REMARK  4 active torsions:
REMARK  status: ('A' for Active; 'I' for Inactive)
REMARK    1  A    between atoms: C4_6  and  C5_7 
REMARK    2  A    between atoms: C5_7  and  C6_8 
REMARK    3  A    between atoms: C5_7  and  C12_16 
REMARK    4  A    between atoms: C21_27  and  C22_28 
ROOT
HETATM    1  C12   D T 602      -4.006   8.343  -5.881  0.93 11.20    -0.001 C 
HETATM    2  C13   D T 602      -2.858   7.963  -6.176  0.93 13.45    -0.005 C 
HETATM    3  C14   D T 602      -1.855   8.825  -5.784  0.93 13.80     0.011 C 
HETATM    4  C15   D T 602      -4.480   9.395  -5.122  0.93 11.22     0.031 C 
HETATM    5  C16   D T 602      -3.364  10.519  -4.837  0.93 16.07     0.048 C 
HETATM    6  C17   D T 602      -2.034   9.984  -5.437  0.93 15.64     0.040 C 
HETATM    7  N4    D T 602      -1.058  10.996  -5.009  0.93 18.36    -0.297 N 
HETATM    8  C18   D T 602      -1.501  12.378  -4.409  0.93 18.78     0.133 C 
HETATM    9  C19   D T 602       0.189  10.847  -5.527  0.93 20.18     0.261 C 
HETATM   10  O1    D T 602       1.003  11.771  -5.277  0.93 23.41    -0.267 OA
HETATM   11  C20   D T 602       0.379   9.600  -6.097  0.93 18.07     0.061 C 
HETATM   12  C21   D T 602      -0.464   8.545  -6.155  0.93 15.40     0.006 C 
ENDROOT
BRANCH   1  13
HETATM   13  C5    D T 602      -5.113   7.287  -6.008  0.93 11.75     0.334 C 
HETATM   14  N3    D T 602      -6.395   7.442  -5.401  0.93 12.53     0.628 N 
BRANCH  13  15
HETATM   15  C4    D T 602      -5.501   7.442  -7.619  0.93 10.99     0.082 C 
HETATM   16  N1    D T 602      -6.711   6.973  -8.225  0.93 12.88    -0.312 N 
HETATM   17  C1    D T 602      -8.093   6.627  -7.657  0.93 11.29     0.132 C 
HETATM   18  C2    D T 602      -6.660   7.184  -9.508  0.93 12.15     0.174 C 
HETATM   19  N2    D T 602      -5.524   7.640  -9.796  0.93 12.12    -0.246 NA
HETATM   20  C3    D T 602      -4.572   7.715  -8.751  0.93 11.32     0.169 C 
ENDBRANCH  13  15
BRANCH  13  21
HETATM   21  C6    D T 602      -4.790   5.761  -5.853  0.93 12.23     0.016 C 
HETATM   22  C7    D T 602      -4.794   4.992  -6.963  0.93  8.55    -0.022 C 
HETATM   23  C8    D T 602      -4.285   3.681  -7.063  0.93 12.58     0.064 C 
HETATM   24  C9    D T 602      -3.622   3.575  -5.679  0.93 13.77     0.040 C 
HETATM   25 CL1    D T 602      -2.741   1.850  -5.804  0.93 24.65    -0.087 Cl
HETATM   26  C10   D T 602      -3.578   4.224  -4.656  0.93 16.75     0.007 C 
HETATM   27  C11   D T 602      -4.251   5.498  -4.715  0.93 14.77    -0.001 C 
ENDBRANCH  13  21
ENDBRANCH   1  13
BRANCH  12  28
HETATM   28  C22   D T 602      -0.111   7.285  -6.818  0.93 16.80     0.000 C 
HETATM   29  C23   D T 602       0.741   7.308  -8.013  0.93 14.45     0.007 C 
HETATM   30  C24   D T 602       0.937   5.991  -8.417  0.93 15.91     0.040 C 
HETATM   31 CL2    D T 602       1.941   5.871  -9.887  0.93 18.54    -0.087 Cl
HETATM   32  C25   D T 602       0.348   4.692  -7.962  0.93 19.85     0.064 C 
HETATM   33  C26   D T 602      -0.280   4.888  -6.672  0.93 17.96    -0.021 C 
HETATM   34  C27   D T 602      -0.522   6.104  -6.279  0.93 18.50    -0.004 C 
ENDBRANCH  12  28
TORSDOF 4
ENDMDL
MODEL 3
REMARK VINA RESULT:    -8.741      3.711      6.866
REMARK INTER + INTRA:         -11.885
REMARK INTER:                 -10.358
REMARK INTRA:                  -1.527
REMARK UNBOUND:                -1.100
REMARK  4 active torsions:
REMARK  status: ('A' for Active; 'I' for Inactive)
REMARK    1  A    between atoms: C4_6  and  C5_7 
REMARK    2  A    between atoms: C5_7  and  C6_8 
REMARK    3  A    between atoms: C5_7  and  C12_16 
REMARK    4  A    between atoms: C21_27  and  C22_28 
ROOT
HETATM    1  C12   D T 602      -2.080   9.330  -5.867  0.93 11.20    -0.001 C 
HETATM    2  C13   D T 602      -1.235   8.563  -6.363  0.93 13.45    -0.005 C 
HETATM    3  C14   D T 602       0.072   8.975  -6.202  0.93 13.80     0.011 C 
HETATM    4  C15   D T 602      -1.975  10.453  -5.070  0.93 11.22     0.031 C 
HETATM    5  C16   D T 602      -0.489  11.070  -5.045  0.93 16.07     0.048 C 
HETATM    6  C17   D T 602       0.406  10.103  -5.870  0.93 15.64     0.040 C 
HETATM    7  N4    D T 602       1.750  10.663  -5.674  0.93 18.36    -0.297 N 
HETATM    8  C18   D T 602       1.976  12.088  -5.051  0.93 18.78     0.133 C 
HETATM    9  C19   D T 602       2.729  10.082  -6.415  0.93 20.18     0.261 C 
HETATM   10  O1    D T 602       3.859  10.627  -6.360  0.93 23.41    -0.267 OA
HETATM   11  C20   D T 602       2.329   8.876  -6.965  0.93 18.07     0.061 C 
HETATM   12  C21   D T 602       1.160   8.212  -6.823  0.93 15.40     0.006 C 
ENDROOT
BRANCH   1  13
HETATM   13  C5    D T 602      -3.502   8.766  -5.741  0.93 11.75     0.334 C 
HETATM   14  N3    D T 602      -4.435   9.246  -4.773  0.93 12.53     0.628 N 
BRANCH  13  15
HETATM   15  C4    D T 602      -4.183   9.333  -7.150  0.93 10.99     0.082 C 
HETATM   16  N1    D T 602      -5.472   8.961  -7.651  0.93 12.88    -0.312 N 
HETATM   17  C1    D T 602      -6.719   8.371  -6.979  0.93 11.29     0.132 C 
HETATM   18  C2    D T 602      -5.663   9.523  -8.809  0.93 12.15     0.174 C 
HETATM   19  N2    D T 602      -4.609  10.124  -9.143  0.93 12.12    -0.246 NA
HETATM   20  C3    D T 602      -3.484   9.976  -8.298  0.93 11.32     0.169 C 
ENDBRANCH  13  15
BRANCH  13  21
HETATM   21  C6    D T 602      -3.763   7.222  -5.801  0.93 12.23     0.016 C 
HETATM   22  C7    D T 602      -3.313   6.540  -6.876  0.93  8.55    -0.022 C 
HETATM   23  C8    D T 602      -3.224   5.137  -6.989  0.93 12.58     0.064 C 
HETATM   24  C9    D T 602      -3.575   4.757  -5.540  0.93 13.77     0.040 C 
HETATM   25 CL1    D T 602      -3.301   2.837  -5.567  0.93 24.65    -0.087 Cl
HETATM   26  C10   D T 602      -3.976   5.315  -4.541  0.93 16.75     0.007 C 
HETATM   27  C11   D T 602      -4.105   6.748  -4.655  0.93 14.77    -0.001 C 
ENDBRANCH  13  21
ENDBRANCH   1  13
BRANCH  12  28
HETATM   28  C22   D T 602       0.886   6.938  -7.494  0.93 16.80     0.000 C 
HETATM   29  C23   D T 602       0.499   5.767  -6.698  0.93 14.45     0.007 C 
HETATM   30  C24   D T 602       0.276   4.713  -7.577  0.93 15.91     0.040 C 
HETATM   31 CL2    D T 602      -0.178   3.206  -6.736  0.93 18.54    -0.087 Cl
HETATM   32  C25   D T 602       0.497   4.557  -9.050  0.93 19.85     0.064 C 
HETATM   33  C26   D T 602       0.672   5.868  -9.640  0.93 17.96    -0.021 C 
HETATM   34  C27   D T 602       0.928   6.871  -8.853  0.93 18.50    -0.004 C 
ENDBRANCH  12  28
TORSDOF 4
ENDMDL
MODEL 4
REMARK VINA RESULT:    -8.714      3.701      7.199
REMARK INTER + INTRA:         -11.852
REMARK INTER:                 -10.417
REMARK INTRA:                  -1.435
REMARK UNBOUND:                -1.100
REMARK  4 active torsions:
REMARK  status: ('A' for Active; 'I' for Inactive)
REMARK    1  A    between atoms: C4_6  and  C5_7 
REMARK    2  A    between atoms: C5_7  and  C6_8 
REMARK    3  A    between atoms: C5_7  and  C12_16 
REMARK    4  A    between atoms: C21_27  and  C22_28 
ROOT
HETATM    1  C12   D T 602      -3.488   7.870  -5.828  0.93 11.20    -0.001 C 
HETATM    2  C13   D T 602      -2.316   7.906  -6.245  0.93 13.45    -0.005 C 
HETATM    3  C14   D T 602      -1.595   9.003  -5.820  0.93 13.80     0.011 C 
HETATM    4  C15   D T 602      -4.185   8.641  -4.917  0.93 11.22     0.031 C 
HETATM    5  C16   D T 602      -3.449  10.031  -4.575  0.93 16.07     0.048 C 
HETATM    6  C17   D T 602      -2.088  10.007  -5.325  0.93 15.64     0.040 C 
HETATM    7  N4    D T 602      -1.435  11.233  -4.846  0.93 18.36    -0.297 N 
HETATM    8  C18   D T 602      -2.221  12.339  -4.055  0.93 18.78     0.133 C 
HETATM    9  C19   D T 602      -0.263  11.539  -5.461  0.93 20.18     0.261 C 
HETATM   10  O1    D T 602       0.245  12.647  -5.159  0.93 23.41    -0.267 OA
HETATM   11  C20   D T 602       0.244  10.476  -6.189  0.93 18.07     0.061 C 
HETATM   12  C21   D T 602      -0.232   9.217  -6.317  0.93 15.40     0.006 C 
ENDROOT
BRANCH   1  13
HETATM   13  C5    D T 602      -4.221   6.533  -6.005  0.93 11.75     0.334 C 
HETATM   14  N3    D T 602      -5.166   6.044  -5.056  0.93 12.53     0.628 N 
BRANCH  13  15
HETATM   15  C4    D T 602      -5.215   6.895  -7.290  0.93 10.99     0.082 C 
HETATM   16  N1    D T 602      -4.770   7.239  -8.607  0.93 12.88    -0.312 N 
HETATM   17  C1    D T 602      -3.454   6.993  -9.357  0.93 11.29     0.132 C 
HETATM   18  C2    D T 602      -5.797   7.539  -9.345  0.93 12.15     0.174 C 
HETATM   19  N2    D T 602      -6.829   7.521  -8.625  0.93 12.12    -0.246 NA
HETATM   20  C3    D T 602      -6.647   7.303  -7.238  0.93 11.32     0.169 C 
ENDBRANCH  13  15
BRANCH  13  21
HETATM   21  C6    D T 602      -3.452   5.254  -6.485  0.93 12.23     0.016 C 
HETATM   22  C7    D T 602      -2.111   5.222  -6.339  0.93  8.55    -0.022 C 
HETATM   23  C8    D T 602      -1.290   4.083  -6.468  0.93 12.58     0.064 C 
HETATM   24  C9    D T 602      -2.386   3.011  -6.596  0.93 13.77     0.040 C 
HETATM   25 CL1    D T 602      -1.334   1.381  -6.601  0.93 24.65    -0.087 Cl
HETATM   26  C10   D T 602      -3.591   2.975  -6.725  0.93 16.75     0.007 C 
HETATM   27  C11   D T 602      -4.247   4.259  -6.673  0.93 14.77    -0.001 C 
ENDBRANCH  13  21
ENDBRANCH   1  13
BRANCH  12  28
HETATM   28  C22   D T 602       0.424   8.203  -7.149  0.93 16.80     0.000 C 
HETATM   29  C23   D T 602       0.302   8.274  -8.610  0.93 14.45     0.007 C 
HETATM   30  C24   D T 602       1.033   7.219  -9.147  0.93 15.91     0.040 C 
HETATM   31 CL2    D T 602       0.948   7.167 -10.928  0.93 18.54    -0.087 Cl
HETATM   32  C25   D T 602       1.729   6.048  -8.525  0.93 19.85     0.064 C 
HETATM   33  C26   D T 602       1.896   6.299  -7.109  0.93 17.96    -0.021 C 
HETATM   34  C27   D T 602       1.194   7.247  -6.561  0.93 18.50    -0.004 C 
ENDBRANCH  12  28
TORSDOF 4
ENDMDL
MODEL 5
REMARK VINA RESULT:    -8.090      3.627      7.049
REMARK INTER + INTRA:         -11.082
REMARK INTER:                 -10.404
REMARK INTRA:                  -0.678
REMARK UNBOUND:                -1.100
REMARK  4 active torsions:
REMARK  status: ('A' for Active; 'I' for Inactive)
REMARK    1  A    between atoms: C4_6  and  C5_7 
REMARK    2  A    between atoms: C5_7  and  C6_8 
REMARK    3  A    between atoms: C5_7  and  C12_16 
REMARK    4  A    between atoms: C21_27  and  C22_28 
ROOT
HETATM    1  C12   D T 602      -3.222   7.370  -6.838  0.93 11.20    -0.001 C 
HETATM    2  C13   D T 602      -2.079   7.857  -6.911  0.93 13.45    -0.005 C 
HETATM    3  C14   D T 602      -1.849   8.902  -6.040  0.93 13.80     0.011 C 
HETATM    4  C15   D T 602      -4.277   7.576  -5.970  0.93 11.22     0.031 C 
HETATM    5  C16   D T 602      -4.118   8.917  -5.095  0.93 16.07     0.048 C 
HETATM    6  C17   D T 602      -2.725   9.512  -5.443  0.93 15.64     0.040 C 
HETATM    7  N4    D T 602      -2.611  10.637  -4.505  0.93 18.36    -0.297 N 
HETATM    8  C18   D T 602      -3.843  11.163  -3.683  0.93 18.78     0.133 C 
HETATM    9  C19   D T 602      -1.527  11.434  -4.691  0.93 20.18     0.261 C 
HETATM   10  O1    D T 602      -1.479  12.471  -3.985  0.93 23.41    -0.267 OA
HETATM   11  C20   D T 602      -0.579  10.851  -5.515  0.93 18.07     0.061 C 
HETATM   12  C21   D T 602      -0.575   9.628  -6.090  0.93 15.40     0.006 C 
ENDROOT
BRANCH   1  13
HETATM   13  C5    D T 602      -3.421   6.023  -7.547  0.93 11.75     0.334 C 
HETATM   14  N3    D T 602      -4.275   5.871  -8.680  0.93 12.53     0.628 N 
BRANCH  13  15
HETATM   15  C4    D T 602      -1.924   5.819  -8.244  0.93 10.99     0.082 C 
HETATM   16  N1    D T 602      -1.585   6.173  -9.589  0.93 12.88    -0.312 N 
HETATM   17  C1    D T 602      -2.212   7.144 -10.599  0.93 11.29     0.132 C 
HETATM   18  C2    D T 602      -0.361   5.809  -9.836  0.93 12.15     0.174 C 
HETATM   19  N2    D T 602       0.080   5.180  -8.839  0.93 12.12    -0.246 NA
HETATM   20  C3    D T 602      -0.826   4.924  -7.783  0.93 11.32     0.169 C 
ENDBRANCH  13  15
BRANCH  13  21
HETATM   21  C6    D T 602      -3.626   4.705  -6.724  0.93 12.23     0.016 C 
HETATM   22  C7    D T 602      -4.055   3.604  -7.378  0.93  8.55    -0.022 C 
HETATM   23  C8    D T 602      -4.050   2.287  -6.874  0.93 12.58     0.064 C 
HETATM   24  C9    D T 602      -3.272   2.532  -5.570  0.93 13.77     0.040 C 
HETATM   25 CL1    D T 602      -3.069   0.724  -4.896  0.93 24.65    -0.087 Cl
HETATM   26  C10   D T 602      -2.860   3.482  -4.939  0.93 16.75     0.007 C 
HETATM   27  C11   D T 602      -3.054   4.764  -5.573  0.93 14.77    -0.001 C 
ENDBRANCH  13  21
ENDBRANCH   1  13
BRANCH  12  28
HETATM   28  C22   D T 602       0.511   9.164  -6.959  0.93 16.80     0.000 C 
HETATM   29  C23   D T 602       0.796   9.881  -8.208  0.93 14.45     0.007 C 
HETATM   30  C24   D T 602       1.877   9.253  -8.818  0.93 15.91     0.040 C 
HETATM   31 CL2    D T 602       2.318  10.010 -10.372  0.93 18.54    -0.087 Cl
HETATM   32  C25   D T 602       2.625   7.994  -8.509  0.93 19.85     0.064 C 
HETATM   33  C26   D T 602       2.318   7.586  -7.153  0.93 17.96    -0.021 C 
HETATM   34  C27   D T 602       1.286   8.116  -6.566  0.93 18.50    -0.004 C 
ENDBRANCH  12  28
TORSDOF 4
ENDMDL
MODEL 6
REMARK VINA RESULT:    -7.974      3.953      7.548
REMARK INTER + INTRA:         -10.939
REMARK INTER:                 -10.019
REMARK INTRA:                  -0.920
REMARK UNBOUND:                -1.100
REMARK  4 active torsions:
REMARK  status: ('A' for Active; 'I' for Inactive)
REMARK    1  A    between atoms: C4_6  and  C5_7 
REMARK    2  A    between atoms: C5_7  and  C6_8 
REMARK    3  A    between atoms: C5_7  and  C12_16 
REMARK    4  A    between atoms: C21_27  and  C22_28 
ROOT
HETATM    1  C12   D T 602      -3.177   8.815  -5.558  0.93 11.20    -0.001 C 
HETATM    2  C13   D T 602      -2.011   9.061  -5.918  0.93 13.45    -0.005 C 
HETATM    3  C14   D T 602      -1.465  10.191  -5.347  0.93 13.80     0.011 C 
HETATM    4  C15   D T 602      -4.000   9.372  -4.599  0.93 11.22     0.031 C 
HETATM    5  C16   D T 602      -3.480  10.802  -4.077  0.93 16.07     0.048 C 
HETATM    6  C17   D T 602      -2.110  11.054  -4.766  0.93 15.64     0.040 C 
HETATM    7  N4    D T 602      -1.652  12.296  -4.129  0.93 18.36    -0.297 N 
HETATM    8  C18   D T 602      -2.608  13.185  -3.256  0.93 18.78     0.133 C 
HETATM    9  C19   D T 602      -0.519  12.830  -4.656  0.93 20.18     0.261 C 
HETATM   10  O1    D T 602      -0.183  13.956  -4.213  0.93 23.41    -0.267 OA
HETATM   11  C20   D T 602       0.154  11.938  -5.474  0.93 18.07     0.061 C 
HETATM   12  C21   D T 602      -0.134  10.648  -5.758  0.93 15.40     0.006 C 
ENDROOT
BRANCH   1  13
HETATM   13  C5    D T 602      -3.705   7.418  -5.912  0.93 11.75     0.334 C 
HETATM   14  N3    D T 602      -4.993   6.959  -5.503  0.93 12.53     0.628 N 
BRANCH  13  15
HETATM   15  C4    D T 602      -3.929   7.581  -7.553  0.93 10.99     0.082 C 
HETATM   16  N1    D T 602      -4.969   8.346  -8.172  0.93 12.88    -0.312 N 
HETATM   17  C1    D T 602      -5.849   9.501  -7.674  0.93 11.29     0.132 C 
HETATM   18  C2    D T 602      -4.904   8.198  -9.463  0.93 12.15     0.174 C 
HETATM   19  N2    D T 602      -4.009   7.353  -9.726  0.93 12.12    -0.246 NA
HETATM   20  C3    D T 602      -3.387   6.707  -8.631  0.93 11.32     0.169 C 
ENDBRANCH  13  15
BRANCH  13  21
HETATM   21  C6    D T 602      -2.785   6.155  -5.790  0.93 12.23     0.016 C 
HETATM   22  C7    D T 602      -3.372   4.946  -5.668  0.93  8.55    -0.022 C 
HETATM   23  C8    D T 602      -2.732   3.697  -5.805  0.93 12.58     0.064 C 
HETATM   24  C9    D T 602      -1.358   4.184  -6.296  0.93 13.77     0.040 C 
HETATM   25 CL1    D T 602      -0.467   2.503  -6.678  0.93 24.65    -0.087 Cl
HETATM   26  C10   D T 602      -0.779   5.241  -6.431  0.93 16.75     0.007 C 
HETATM   27  C11   D T 602      -1.573   6.410  -6.140  0.93 14.77    -0.001 C 
ENDBRANCH  13  21
ENDBRANCH   1  13
BRANCH  12  28
HETATM   28  C22   D T 602       0.682   9.837  -6.667  0.93 16.80     0.000 C 
HETATM   29  C23   D T 602       1.341   8.625  -6.164  0.93 14.45     0.007 C 
HETATM   30  C24   D T 602       2.020   8.041  -7.229  0.93 15.91     0.040 C 
HETATM   31 CL2    D T 602       2.895   6.561  -6.750  0.93 18.54    -0.087 Cl
HETATM   32  C25   D T 602       2.286   8.491  -8.631  0.93 19.85     0.064 C 
HETATM   33  C26   D T 602       1.384   9.577  -8.955  0.93 17.96    -0.021 C 
HETATM   34  C27   D T 602       0.766  10.179  -7.982  0.93 18.50    -0.004 C 
ENDBRANCH  12  28
TORSDOF 4
ENDMDL
MODEL 7
REMARK VINA RESULT:    -7.929      3.743      6.101
REMARK INTER + INTRA:         -10.883
REMARK INTER:                  -9.467
REMARK INTRA:                  -1.416
REMARK UNBOUND:                -1.100
REMARK  4 active torsions:
REMARK  status: ('A' for Active; 'I' for Inactive)
REMARK    1  A    between atoms: C4_6  and  C5_7 
REMARK    2  A    between atoms: C5_7  and  C6_8 
REMARK    3  A    between atoms: C5_7  and  C12_16 
REMARK    4  A    between atoms: C21_27  and  C22_28 
ROOT
HETATM    1  C12   D T 602      -0.289  11.110  -5.587  0.93 11.20    -0.001 C 
HETATM    2  C13   D T 602      -1.417  11.345  -5.116  0.93 13.45    -0.005 C 
HETATM    3  C14   D T 602      -2.261  10.254  -5.088  0.93 13.80     0.011 C 
HETATM    4  C15   D T 602       0.342   9.944  -5.974  0.93 11.22     0.031 C 
HETATM    5  C16   D T 602      -0.673   8.708  -6.153  0.93 16.07     0.048 C 
HETATM    6  C17   D T 602      -2.073   9.218  -5.709  0.93 15.64     0.040 C 
HETATM    7  N4    D T 602      -2.892   7.999  -5.770  0.93 18.36    -0.297 N 
HETATM    8  C18   D T 602      -2.385   6.689  -6.471  0.93 18.78     0.133 C 
HETATM    9  C19   D T 602      -4.221   8.189  -5.562  0.93 20.18     0.261 C 
HETATM   10  O1    D T 602      -4.955   7.185  -5.736  0.93 23.41    -0.267 OA
HETATM   11  C20   D T 602      -4.499   9.433  -5.022  0.93 18.07     0.061 C 
HETATM   12  C21   D T 602      -3.650  10.416  -4.646  0.93 15.40     0.006 C 
ENDROOT
BRANCH   1  13
HETATM   13  C5    D T 602       0.774  12.192  -5.349  0.93 11.75     0.334 C 
HETATM   14  N3    D T 602       2.000  11.926  -4.669  0.93 12.53     0.628 N 
BRANCH  13  15
HETATM   15  C4    D T 602       1.316  12.437  -6.903  0.93 10.99     0.082 C 
HETATM   16  N1    D T 602       0.488  12.764  -8.024  0.93 12.88    -0.312 N 
HETATM   17  C1    D T 602      -0.914  13.379  -8.138  0.93 11.29     0.132 C 
HETATM   18  C2    D T 602       1.217  12.808  -9.101  0.93 12.15     0.174 C 
HETATM   19  N2    D T 602       2.387  12.451  -8.809  0.93 12.12    -0.246 NA
HETATM   20  C3    D T 602       2.616  12.002  -7.487  0.93 11.32     0.169 C 
ENDBRANCH  13  15
BRANCH  13  21
HETATM   21  C6    D T 602       0.366  13.628  -4.871  0.93 12.23     0.016 C 
HETATM   22  C7    D T 602      -0.822  13.780  -4.248  0.93  8.55    -0.022 C 
HETATM   23  C8    D T 602      -1.240  14.920  -3.531  0.93 12.58     0.064 C 
HETATM   24  C9    D T 602       0.079  15.711  -3.546  0.93 13.77     0.040 C 
HETATM   25 CL1    D T 602      -0.366  17.227  -2.419  0.93 24.65    -0.087 Cl
HETATM   26  C10   D T 602       1.167  15.626  -4.075  0.93 16.75     0.007 C 
HETATM   27  C11   D T 602       1.370  14.432  -4.860  0.93 14.77    -0.001 C 
ENDBRANCH  13  21
ENDBRANCH   1  13
BRANCH  12  28
HETATM   28  C22   D T 602      -4.112  11.696  -4.100  0.93 16.80     0.000 C 
HETATM   29  C23   D T 602      -4.449  12.794  -5.013  0.93 14.45     0.007 C 
HETATM   30  C24   D T 602      -4.878  13.869  -4.240  0.93 15.91     0.040 C 
HETATM   31 CL2    D T 602      -5.299  15.295  -5.227  0.93 18.54    -0.087 Cl
HETATM   32  C25   D T 602      -4.900  14.111  -2.763  0.93 19.85     0.064 C 
HETATM   33  C26   D T 602      -4.729  12.846  -2.077  0.93 17.96    -0.021 C 
HETATM   34  C27   D T 602      -4.286  11.829  -2.756  0.93 18.50    -0.004 C 
ENDBRANCH  12  28
TORSDOF 4
ENDMDL
MODEL 8
REMARK VINA RESULT:    -7.885      3.803      6.797
REMARK INTER + INTRA:         -10.829
REMARK INTER:                  -9.607
REMARK INTRA:                  -1.222
REMARK UNBOUND:                -1.100
REMARK  4 active torsions:
REMARK  status: ('A' for Active; 'I' for Inactive)
REMARK    1  A    between atoms: C4_6  and  C5_7 
REMARK    2  A    between atoms: C5_7  and  C6_8 
REMARK    3  A    between atoms: C5_7  and  C12_16 
REMARK    4  A    between atoms: C21_27  and  C22_28 
ROOT
HETATM    1  C12   D T 602      -2.083  11.039  -5.093  0.93 11.20    -0.001 C 
HETATM    2  C13   D T 602      -1.604  10.050  -5.679  0.93 13.45    -0.005 C 
HETATM    3  C14   D T 602      -0.226  10.035  -5.736  0.93 13.80     0.011 C 
HETATM    4  C15   D T 602      -1.513  12.069  -4.370  0.93 11.22     0.031 C 
HETATM    5  C16   D T 602       0.075  12.194  -4.598  0.93 16.07     0.048 C 
HETATM    6  C17   D T 602       0.487  11.002  -5.507  0.93 15.64     0.040 C 
HETATM    7  N4    D T 602       1.952  11.116  -5.542  0.93 18.36    -0.297 N 
HETATM    8  C18   D T 602       2.700  12.395  -5.021  0.93 18.78     0.133 C 
HETATM    9  C19   D T 602       2.575  10.264  -6.397  0.93 20.18     0.261 C 
HETATM   10  O1    D T 602       3.811  10.431  -6.538  0.93 23.41    -0.267 OA
HETATM   11  C20   D T 602       1.742   9.246  -6.828  0.93 18.07     0.061 C 
HETATM   12  C21   D T 602       0.463   8.977  -6.482  0.93 15.40     0.006 C 
ENDROOT
BRANCH   1  13
HETATM   13  C5    D T 602      -3.571  10.944  -4.729  0.93 11.75     0.334 C 
HETATM   14  N3    D T 602      -4.088  11.416  -3.486  0.93 12.53     0.628 N 
BRANCH  13  15
HETATM   15  C4    D T 602      -4.218  12.054  -5.788  0.93 10.99     0.082 C 
HETATM   16  N1    D T 602      -4.030  12.046  -7.207  0.93 12.88    -0.312 N 
HETATM   17  C1    D T 602      -3.628  10.945  -8.198  0.93 11.29     0.132 C 
HETATM   18  C2    D T 602      -4.604  13.093  -7.723  0.93 12.15     0.174 C 
HETATM   19  N2    D T 602      -5.046  13.811  -6.789  0.93 12.12    -0.246 NA
HETATM   20  C3    D T 602      -4.746  13.409  -5.466  0.93 11.32     0.169 C 
ENDBRANCH  13  15
BRANCH  13  21
HETATM   21  C6    D T 602      -4.388   9.639  -5.021  0.93 12.23     0.016 C 
HETATM   22  C7    D T 602      -5.654   9.765  -5.473  0.93  8.55    -0.022 C 
HETATM   23  C8    D T 602      -6.443   8.736  -6.027  0.93 12.58     0.064 C 
HETATM   24  C9    D T 602      -5.374   7.632  -6.108  0.93 13.77     0.040 C 
HETATM   25 CL1    D T 602      -6.341   6.225  -7.029  0.93 24.65    -0.087 Cl
HETATM   26  C10   D T 602      -4.235   7.461  -5.730  0.93 16.75     0.007 C 
HETATM   27  C11   D T 602      -3.629   8.602  -5.086  0.93 14.77    -0.001 C 
ENDBRANCH  13  21
ENDBRANCH   1  13
BRANCH  12  28
HETATM   28  C22   D T 602      -0.292   7.855  -7.049  0.93 16.80     0.000 C 
HETATM   29  C23   D T 602      -0.386   6.594  -6.303  0.93 14.45     0.007 C 
HETATM   30  C24   D T 602      -1.171   5.720  -7.048  0.93 15.91     0.040 C 
HETATM   31 CL2    D T 602      -1.349   4.126  -6.267  0.93 18.54    -0.087 Cl
HETATM   32  C25   D T 602      -1.750   5.802  -8.427  0.93 19.85     0.064 C 
HETATM   33  C26   D T 602      -1.712   7.179  -8.872  0.93 17.96    -0.021 C 
HETATM   34  C27   D T 602      -0.952   8.016  -8.228  0.93 18.50    -0.004 C 
ENDBRANCH  12  28
TORSDOF 4
ENDMDL
MODEL 9
REMARK VINA RESULT:    -7.869      3.529      5.657
REMARK INTER + INTRA:         -10.809
REMARK INTER:                  -9.826
REMARK INTRA:                  -0.982
REMARK UNBOUND:                -1.100
REMARK  4 active torsions:
REMARK  status: ('A' for Active; 'I' for Inactive)
REMARK    1  A    between atoms: C4_6  and  C5_7 
REMARK    2  A    between atoms: C5_7  and  C6_8 
REMARK    3  A    between atoms: C5_7  and  C12_16 
REMARK    4  A    between atoms: C21_27  and  C22_28 
ROOT
HETATM    1  C12   D T 602      -4.404   9.208  -7.497  0.93 11.20    -0.001 C 
HETATM    2  C13   D T 602      -4.475   8.022  -7.128  0.93 13.45    -0.005 C 
HETATM    3  C14   D T 602      -5.491   7.301  -7.721  0.93 13.80     0.011 C 
HETATM    4  C15   D T 602      -5.056   9.926  -8.481  0.93 11.22     0.031 C 
HETATM    5  C16   D T 602      -6.373   9.185  -9.033  0.93 16.07     0.048 C 
HETATM    6  C17   D T 602      -6.427   7.798  -8.331  0.93 15.64     0.040 C 
HETATM    7  N4    D T 602      -7.565   7.147  -8.994  0.93 18.36    -0.297 N 
HETATM    8  C18   D T 602      -8.568   7.945  -9.902  0.93 18.78     0.133 C 
HETATM    9  C19   D T 602      -7.931   5.950  -8.465  0.93 20.18     0.261 C 
HETATM   10  O1    D T 602      -8.979   5.439  -8.932  0.93 23.41    -0.267 OA
HETATM   11  C20   D T 602      -6.968   5.432  -7.616  0.93 18.07     0.061 C 
HETATM   12  C21   D T 602      -5.747   5.919  -7.303  0.93 15.40     0.006 C 
ENDROOT
BRANCH   1  13
HETATM   13  C5    D T 602      -3.116   9.951  -7.115  0.93 11.75     0.334 C 
HETATM   14  N3    D T 602      -2.603  11.042  -7.879  0.93 12.53     0.628 N 
BRANCH  13  15
HETATM   15  C4    D T 602      -3.612  10.734  -5.732  0.93 10.99     0.082 C 
HETATM   16  N1    D T 602      -4.120  12.072  -5.679  0.93 12.88    -0.312 N 
HETATM   17  C1    D T 602      -4.748  12.989  -6.737  0.93 11.29     0.132 C 
HETATM   18  C2    D T 602      -4.340  12.400  -4.440  0.93 12.15     0.174 C 
HETATM   19  N2    D T 602      -3.937  11.467  -3.699  0.93 12.12    -0.246 NA
HETATM   20  C3    D T 602      -3.276  10.383  -4.324  0.93 11.32     0.169 C 
ENDBRANCH  13  15
BRANCH  13  21
HETATM   21  C6    D T 602      -1.841   9.165  -6.654  0.93 12.23     0.016 C 
HETATM   22  C7    D T 602      -1.973   7.856  -6.349  0.93  8.55    -0.022 C 
HETATM   23  C8    D T 602      -0.919   6.937  -6.169  0.93 12.58     0.064 C 
HETATM   24  C9    D T 602       0.254   7.827  -6.615  0.93 13.77     0.040 C 
HETATM   25 CL1    D T 602       1.732   6.572  -6.564  0.93 24.65    -0.087 Cl
HETATM   26  C10   D T 602       0.434   8.991  -6.903  0.93 16.75     0.007 C 
HETATM   27  C11   D T 602      -0.758   9.803  -6.930  0.93 14.77    -0.001 C 
ENDBRANCH  13  21
ENDBRANCH   1  13
BRANCH  12  28
HETATM   28  C22   D T 602      -4.844   5.248  -6.362  0.93 16.80     0.000 C 
HETATM   29  C23   D T 602      -3.979   4.162  -6.838  0.93 14.45     0.007 C 
HETATM   30  C24   D T 602      -3.216   3.726  -5.759  0.93 15.91     0.040 C 
HETATM   31 CL2    D T 602      -2.130   2.378  -6.191  0.93 18.54    -0.087 Cl
HETATM   32  C25   D T 602      -3.246   4.052  -4.299  0.93 19.85     0.064 C 
HETATM   33  C26   D T 602      -4.008   5.269  -4.105  0.93 17.96    -0.021 C 
HETATM   34  C27   D T 602      -4.769   5.683  -5.075  0.93 18.50    -0.004 C 
ENDBRANCH  12  28
TORSDOF 4
ENDMDL
