MODEL 1
REMARK VINA RESULT:      -8.1      0.000      0.000
REMARK  2 active torsions:
REMARK  status: ('A' for Active; 'I' for Inactive)
REMARK    1  A    between atoms: C5_4  and  O7_13 
REMARK    2  A    between atoms: C8_10  and  O7_13 
ROOT
HETATM    1  O7    D T 302      34.875 -26.755   3.917  1.00 12.29    -0.304 OA
ENDROOT
BRANCH   1   2
HETATM    2  C5    D T 302      34.949 -27.173   2.626  1.00 11.31     0.125 A 
HETATM    3  C6    D T 302      34.077 -28.273   2.202  1.00 10.91     0.154 A 
HETATM    4  C1    D T 302      34.157 -28.703   0.891  1.00 11.11     0.041 A 
HETATM    5  O17   D T 302      33.215 -28.830   3.085  1.00 10.71    -0.188 OA
HETATM    6  C2    D T 302      35.076 -28.097   0.031  1.00 11.31     0.060 A 
HETATM    7  C3    D T 302      35.902 -27.065   0.430  1.00 11.21     0.014 A 
HETATM    8 CL14   D T 302      35.198 -28.640  -1.654  1.00 12.38    -0.082 Cl
HETATM    9  C4    D T 302      35.846 -26.599   1.740  1.00 11.12     0.028 A 
ENDBRANCH   1   2
BRANCH   1  10
HETATM   10  C8    D T 302      36.039 -26.378   4.513  1.00 13.41     0.111 A 
HETATM   11  C9    D T 302      37.030 -27.409   4.842  1.00 14.42     0.081 A 
HETATM   12  C10   D T 302      38.209 -27.093   5.470  1.00 15.02     0.025 A 
HETATM   13 CL16   D T 302      36.658 -29.072   4.440  1.00 16.61    -0.080 Cl
HETATM   14  C11   D T 302      38.440 -25.770   5.776  1.00 14.88     0.059 A 
HETATM   15  C12   D T 302      37.530 -24.773   5.480  1.00 14.38     0.013 A 
HETATM   16 CL15   D T 302      39.963 -25.370   6.592  1.00 17.32    -0.082 Cl
HETATM   17  C13   D T 302      36.335 -25.064   4.851  1.00 13.78     0.026 A 
ENDBRANCH   1  10
TORSDOF 2
ENDMDL
MODEL 2
REMARK VINA RESULT:      -8.0     10.698     13.034
REMARK  2 active torsions:
REMARK  status: ('A' for Active; 'I' for Inactive)
REMARK    1  A    between atoms: C5_4  and  O7_13 
REMARK    2  A    between atoms: C8_10  and  O7_13 
ROOT
HETATM    1  O7    D T 302      30.494 -24.808  -7.112  1.00 12.29    -0.304 OA
ENDROOT
BRANCH   1   2
HETATM    2  C5    D T 302      31.668 -24.124  -7.107  1.00 11.31     0.125 A 
HETATM    3  C6    D T 302      32.652 -24.443  -6.068  1.00 10.91     0.154 A 
HETATM    4  C1    D T 302      33.844 -23.743  -6.058  1.00 11.11     0.041 A 
HETATM    5  O17   D T 302      32.385 -25.411  -5.159  1.00 10.71    -0.188 OA
HETATM    6  C2    D T 302      34.055 -22.747  -7.014  1.00 11.31     0.060 A 
HETATM    7  C3    D T 302      33.128 -22.441  -7.990  1.00 11.21     0.014 A 
HETATM    8 CL14   D T 302      35.577 -21.833  -7.013  1.00 12.38    -0.082 Cl
HETATM    9  C4    D T 302      31.919 -23.128  -8.038  1.00 11.12     0.028 A 
ENDBRANCH   1   2
BRANCH   1  10
HETATM   10  C8    D T 302      29.372 -24.114  -6.777  1.00 13.41     0.111 A 
HETATM   11  C9    D T 302      28.111 -24.442  -7.451  1.00 14.42     0.081 A 
HETATM   12  C10   D T 302      26.954 -23.756  -7.176  1.00 15.02     0.025 A 
HETATM   13 CL16   D T 302      28.121 -25.720  -8.648  1.00 16.61    -0.080 Cl
HETATM   14  C11   D T 302      27.010 -22.750  -6.237  1.00 14.88     0.059 A 
HETATM   15  C12   D T 302      28.180 -22.415  -5.582  1.00 14.38     0.013 A 
HETATM   16 CL15   D T 302      25.513 -21.866  -5.892  1.00 17.32    -0.082 Cl
HETATM   17  C13   D T 302      29.359 -23.087  -5.841  1.00 13.78     0.026 A 
ENDBRANCH   1  10
TORSDOF 2
ENDMDL
MODEL 3
REMARK VINA RESULT:      -7.9      1.137      5.665
REMARK  2 active torsions:
REMARK  status: ('A' for Active; 'I' for Inactive)
REMARK    1  A    between atoms: C5_4  and  O7_13 
REMARK    2  A    between atoms: C8_10  and  O7_13 
ROOT
HETATM    1  O7    D T 302      35.023 -26.709   3.773  1.00 12.29    -0.304 OA
ENDROOT
BRANCH   1   2
HETATM    2  C5    D T 302      36.162 -26.394   4.442  1.00 11.31     0.125 A 
HETATM    3  C6    D T 302      37.092 -27.478   4.776  1.00 10.91     0.154 A 
HETATM    4  C1    D T 302      38.249 -27.159   5.463  1.00 11.11     0.041 A 
HETATM    5  O17   D T 302      36.812 -28.748   4.400  1.00 10.71    -0.188 OA
HETATM    6  C2    D T 302      38.476 -25.832   5.834  1.00 11.31     0.060 A 
HETATM    7  C3    D T 302      37.599 -24.812   5.526  1.00 11.21     0.014 A 
HETATM    8 CL14   D T 302      39.952 -25.405   6.722  1.00 12.38    -0.082 Cl
HETATM    9  C4    D T 302      36.427 -25.090   4.829  1.00 11.12     0.028 A 
ENDBRANCH   1   2
BRANCH   1  10
HETATM   10  C8    D T 302      35.149 -27.040   2.459  1.00 13.41     0.111 A 
HETATM   11  C9    D T 302      34.409 -28.200   1.949  1.00 14.42     0.081 A 
HETATM   12  C10   D T 302      34.520 -28.600   0.640  1.00 15.02     0.025 A 
HETATM   13 CL16   D T 302      33.394 -29.089   3.064  1.00 16.61    -0.080 Cl
HETATM   14  C11   D T 302      35.346 -27.871  -0.187  1.00 14.88     0.059 A 
HETATM   15  C12   D T 302      36.057 -26.773   0.259  1.00 14.38     0.013 A 
HETATM   16 CL15   D T 302      35.489 -28.397  -1.874  1.00 17.32    -0.082 Cl
HETATM   17  C13   D T 302      35.965 -26.351   1.571  1.00 13.78     0.026 A 
ENDBRANCH   1  10
TORSDOF 2
ENDMDL
MODEL 4
REMARK VINA RESULT:      -7.9      3.580      4.043
REMARK  2 active torsions:
REMARK  status: ('A' for Active; 'I' for Inactive)
REMARK    1  A    between atoms: C5_4  and  O7_13 
REMARK    2  A    between atoms: C8_10  and  O7_13 
ROOT
HETATM    1  O7    D T 302      35.791 -25.396   2.725  1.00 12.29    -0.304 OA
ENDROOT
BRANCH   1   2
HETATM    2  C5    D T 302      35.156 -24.219   2.485  1.00 11.31     0.125 A 
HETATM    3  C6    D T 302      33.692 -24.191   2.571  1.00 10.91     0.154 A 
HETATM    4  C1    D T 302      33.045 -22.995   2.322  1.00 11.11     0.041 A 
HETATM    5  O17   D T 302      33.014 -25.315   2.901  1.00 10.71    -0.188 OA
HETATM    6  C2    D T 302      33.801 -21.873   1.973  1.00 11.31     0.060 A 
HETATM    7  C3    D T 302      35.178 -21.899   1.886  1.00 11.21     0.014 A 
HETATM    8 CL14   D T 302      32.987 -20.330   1.642  1.00 12.38    -0.082 Cl
HETATM    9  C4    D T 302      35.867 -23.081   2.137  1.00 11.12     0.028 A 
ENDBRANCH   1   2
BRANCH   1  10
HETATM   10  C8    D T 302      36.720 -25.406   3.720  1.00 13.41     0.111 A 
HETATM   11  C9    D T 302      38.077 -25.870   3.414  1.00 14.42     0.081 A 
HETATM   12  C10   D T 302      39.047 -25.931   4.384  1.00 15.02     0.025 A 
HETATM   13 CL16   D T 302      38.428 -26.380   1.776  1.00 16.61    -0.080 Cl
HETATM   14  C11   D T 302      38.709 -25.532   5.658  1.00 14.88     0.059 A 
HETATM   15  C12   D T 302      37.441 -25.089   5.981  1.00 14.38     0.013 A 
HETATM   16 CL15   D T 302      39.966 -25.619   6.906  1.00 17.32    -0.082 Cl
HETATM   17  C13   D T 302      36.446 -25.020   5.027  1.00 13.78     0.026 A 
ENDBRANCH   1  10
TORSDOF 2
ENDMDL
MODEL 5
REMARK VINA RESULT:      -7.6      2.351      2.754
REMARK  2 active torsions:
REMARK  status: ('A' for Active; 'I' for Inactive)
REMARK    1  A    between atoms: C5_4  and  O7_13 
REMARK    2  A    between atoms: C8_10  and  O7_13 
ROOT
HETATM    1  O7    D T 302      36.857 -27.865   1.879  1.00 12.29    -0.304 OA
ENDROOT
BRANCH   1   2
HETATM    2  C5    D T 302      35.978 -27.075   1.207  1.00 11.31     0.125 A 
HETATM    3  C6    D T 302      36.121 -26.960  -0.248  1.00 10.91     0.154 A 
HETATM    4  C1    D T 302      35.231 -26.153  -0.931  1.00 11.11     0.041 A 
HETATM    5  O17   D T 302      37.098 -27.647  -0.886  1.00 10.71    -0.188 OA
HETATM    6  C2    D T 302      34.253 -25.460  -0.214  1.00 11.31     0.060 A 
HETATM    7  C3    D T 302      34.121 -25.562   1.156  1.00 11.21     0.014 A 
HETATM    8 CL14   D T 302      33.106 -24.413  -1.074  1.00 12.38    -0.082 Cl
HETATM    9  C4    D T 302      34.991 -26.371   1.879  1.00 11.12     0.028 A 
ENDBRANCH   1   2
BRANCH   1  10
HETATM   10  C8    D T 302      37.554 -27.287   2.896  1.00 13.41     0.111 A 
HETATM   11  C9    D T 302      37.308 -27.744   4.268  1.00 14.42     0.081 A 
HETATM   12  C10   D T 302      37.959 -27.179   5.337  1.00 15.02     0.025 A 
HETATM   13 CL16   D T 302      36.132 -29.017   4.519  1.00 16.61    -0.080 Cl
HETATM   14  C11   D T 302      38.861 -26.170   5.081  1.00 14.88     0.059 A 
HETATM   15  C12   D T 302      39.117 -25.716   3.801  1.00 14.38     0.013 A 
HETATM   16 CL15   D T 302      39.693 -25.442   6.467  1.00 17.32    -0.082 Cl
HETATM   17  C13   D T 302      38.475 -26.265   2.709  1.00 13.78     0.026 A 
ENDBRANCH   1  10
TORSDOF 2
ENDMDL
MODEL 6
REMARK VINA RESULT:      -7.5      4.165      4.771
REMARK  2 active torsions:
REMARK  status: ('A' for Active; 'I' for Inactive)
REMARK    1  A    between atoms: C5_4  and  O7_13 
REMARK    2  A    between atoms: C8_10  and  O7_13 
ROOT
HETATM    1  O7    D T 302      34.853 -24.790   2.153  1.00 12.29    -0.304 OA
ENDROOT
BRANCH   1   2
HETATM    2  C5    D T 302      34.214 -23.591   2.121  1.00 11.31     0.125 A 
HETATM    3  C6    D T 302      33.468 -23.235   0.910  1.00 10.91     0.154 A 
HETATM    4  C1    D T 302      32.823 -22.012   0.875  1.00 11.11     0.041 A 
HETATM    5  O17   D T 302      33.414 -24.101  -0.129  1.00 10.71    -0.188 OA
HETATM    6  C2    D T 302      32.927 -21.157   1.974  1.00 11.31     0.060 A 
HETATM    7  C3    D T 302      33.634 -21.488   3.112  1.00 11.21     0.014 A 
HETATM    8 CL14   D T 302      32.112 -19.580   1.945  1.00 12.38    -0.082 Cl
HETATM    9  C4    D T 302      34.291 -22.712   3.190  1.00 11.12     0.028 A 
ENDBRANCH   1   2
BRANCH   1  10
HETATM   10  C8    D T 302      35.852 -24.934   3.066  1.00 13.41     0.111 A 
HETATM   11  C9    D T 302      35.625 -25.798   4.229  1.00 14.42     0.081 A 
HETATM   12  C10   D T 302      36.585 -25.959   5.198  1.00 15.02     0.025 A 
HETATM   13 CL16   D T 302      34.077 -26.605   4.372  1.00 16.61    -0.080 Cl
HETATM   14  C11   D T 302      37.777 -25.288   5.040  1.00 14.88     0.059 A 
HETATM   15  C12   D T 302      38.025 -24.467   3.957  1.00 14.38     0.013 A 
HETATM   16 CL15   D T 302      39.008 -25.496   6.299  1.00 17.32    -0.082 Cl
HETATM   17  C13   D T 302      37.077 -24.286   2.969  1.00 13.78     0.026 A 
ENDBRANCH   1  10
TORSDOF 2
ENDMDL
MODEL 7
REMARK VINA RESULT:      -7.5      2.900      3.411
REMARK  2 active torsions:
REMARK  status: ('A' for Active; 'I' for Inactive)
REMARK    1  A    between atoms: C5_4  and  O7_13 
REMARK    2  A    between atoms: C8_10  and  O7_13 
ROOT
HETATM    1  O7    D T 302      36.396 -25.612   0.483  1.00 12.29    -0.304 OA
ENDROOT
BRANCH   1   2
HETATM    2  C5    D T 302      35.231 -26.310   0.457  1.00 11.31     0.125 A 
HETATM    3  C6    D T 302      35.177 -27.539  -0.342  1.00 10.91     0.154 A 
HETATM    4  C1    D T 302      33.989 -28.247  -0.373  1.00 11.11     0.041 A 
HETATM    5  O17   D T 302      36.276 -27.958  -1.011  1.00 10.71    -0.188 OA
HETATM    6  C2    D T 302      32.886 -27.756   0.328  1.00 11.31     0.060 A 
HETATM    7  C3    D T 302      32.933 -26.596   1.075  1.00 11.21     0.014 A 
HETATM    8 CL14   D T 302      31.351 -28.647   0.293  1.00 12.38    -0.082 Cl
HETATM    9  C4    D T 302      34.112 -25.860   1.139  1.00 11.12     0.028 A 
ENDBRANCH   1   2
BRANCH   1  10
HETATM   10  C8    D T 302      37.116 -25.654   1.638  1.00 13.41     0.111 A 
HETATM   11  C9    D T 302      37.056 -24.505   2.548  1.00 14.42     0.081 A 
HETATM   12  C10   D T 302      37.783 -24.477   3.713  1.00 15.02     0.025 A 
HETATM   13 CL16   D T 302      36.051 -23.143   2.098  1.00 16.61    -0.080 Cl
HETATM   14  C11   D T 302      38.568 -25.570   4.007  1.00 14.88     0.059 A 
HETATM   15  C12   D T 302      38.648 -26.669   3.172  1.00 14.38     0.013 A 
HETATM   16 CL15   D T 302      39.508 -25.524   5.509  1.00 17.32    -0.082 Cl
HETATM   17  C13   D T 302      37.929 -26.722   1.995  1.00 13.78     0.026 A 
ENDBRANCH   1  10
TORSDOF 2
ENDMDL
MODEL 8
REMARK VINA RESULT:      -7.4      8.560     11.822
REMARK  2 active torsions:
REMARK  status: ('A' for Active; 'I' for Inactive)
REMARK    1  A    between atoms: C5_4  and  O7_13 
REMARK    2  A    between atoms: C8_10  and  O7_13 
ROOT
HETATM    1  O7    D T 302      32.269 -23.365  -6.244  1.00 12.29    -0.304 OA
ENDROOT
BRANCH   1   2
HETATM    2  C5    D T 302      32.822 -24.176  -5.304  1.00 11.31     0.125 A 
HETATM    3  C6    D T 302      33.850 -25.131  -5.731  1.00 10.91     0.154 A 
HETATM    4  C1    D T 302      34.410 -25.960  -4.777  1.00 11.11     0.041 A 
HETATM    5  O17   D T 302      34.237 -25.172  -7.028  1.00 10.71    -0.188 OA
HETATM    6  C2    D T 302      33.959 -25.878  -3.457  1.00 11.31     0.060 A 
HETATM    7  C3    D T 302      32.987 -24.985  -3.055  1.00 11.21     0.014 A 
HETATM    8 CL14   D T 302      34.660 -26.941  -2.219  1.00 12.38    -0.082 Cl
HETATM    9  C4    D T 302      32.406 -24.128  -3.983  1.00 11.12     0.028 A 
ENDBRANCH   1   2
BRANCH   1  10
HETATM   10  C8    D T 302      30.946 -23.542  -6.511  1.00 13.41     0.111 A 
HETATM   11  C9    D T 302      29.993 -22.517  -6.070  1.00 14.42     0.081 A 
HETATM   12  C10   D T 302      28.644 -22.655  -6.285  1.00 15.02     0.025 A 
HETATM   13 CL16   D T 302      30.618 -21.115  -5.228  1.00 16.61    -0.080 Cl
HETATM   14  C11   D T 302      28.209 -23.787  -6.939  1.00 14.88     0.059 A 
HETATM   15  C12   D T 302      29.078 -24.771  -7.369  1.00 14.38     0.013 A 
HETATM   16 CL15   D T 302      26.465 -23.960  -7.207  1.00 17.32    -0.082 Cl
HETATM   17  C13   D T 302      30.439 -24.659  -7.163  1.00 13.78     0.026 A 
ENDBRANCH   1  10
TORSDOF 2
ENDMDL
MODEL 9
REMARK VINA RESULT:      -7.4      1.965      2.642
REMARK  2 active torsions:
REMARK  status: ('A' for Active; 'I' for Inactive)
REMARK    1  A    between atoms: C5_4  and  O7_13 
REMARK    2  A    between atoms: C8_10  and  O7_13 
ROOT
HETATM    1  O7    D T 302      33.738 -28.013   2.622  1.00 12.29    -0.304 OA
ENDROOT
BRANCH   1   2
HETATM    2  C5    D T 302      34.046 -28.068   1.299  1.00 11.31     0.125 A 
HETATM    3  C6    D T 302      32.953 -28.256   0.340  1.00 10.91     0.154 A 
HETATM    4  C1    D T 302      33.266 -28.317  -1.006  1.00 11.11     0.041 A 
HETATM    5  O17   D T 302      31.676 -28.350   0.781  1.00 10.71    -0.188 OA
HETATM    6  C2    D T 302      34.604 -28.226  -1.397  1.00 11.31     0.060 A 
HETATM    7  C3    D T 302      35.635 -28.056  -0.495  1.00 11.21     0.014 A 
HETATM    8 CL14   D T 302      35.026 -28.311  -3.119  1.00 12.38    -0.082 Cl
HETATM    9  C4    D T 302      35.360 -27.981   0.867  1.00 11.12     0.028 A 
ENDBRANCH   1   2
BRANCH   1  10
HETATM   10  C8    D T 302      34.645 -27.417   3.443  1.00 13.41     0.111 A 
HETATM   11  C9    D T 302      34.574 -25.965   3.637  1.00 14.42     0.081 A 
HETATM   12  C10   D T 302      35.479 -25.304   4.430  1.00 15.02     0.025 A 
HETATM   13 CL16   D T 302      33.315 -25.079   2.803  1.00 16.61    -0.080 Cl
HETATM   14  C11   D T 302      36.458 -26.051   5.049  1.00 14.88     0.059 A 
HETATM   15  C12   D T 302      36.554 -27.420   4.889  1.00 14.38     0.013 A 
HETATM   16 CL15   D T 302      37.626 -25.190   6.066  1.00 17.32    -0.082 Cl
HETATM   17  C13   D T 302      35.658 -28.109   4.095  1.00 13.78     0.026 A 
ENDBRANCH   1  10
TORSDOF 2
ENDMDL
