MODEL 1
REMARK VINA RESULT:    -7.637      0.000      0.000
REMARK INTER + INTRA:          -9.049
REMARK INTER:                  -8.530
REMARK INTRA:                  -0.519
REMARK UNBOUND:                -0.519
REMARK  2 active torsions:
REMARK  status: ('A' for Active; 'I' for Inactive)
REMARK    1  A    between atoms: C5_4  and  O7_13 
REMARK    2  A    between atoms: C8_10  and  O7_13 
ROOT
HETATM    1  O7    D T 302       7.009   1.072  -6.732  1.00 12.29    -0.304 OA
ENDROOT
BRANCH   1   2
HETATM    2  C5    D T 302       7.211   1.287  -8.058  1.00 11.31     0.125 A 
HETATM    3  C6    D T 302       8.413   2.023  -8.465  1.00 10.91     0.154 A 
HETATM    4  C1    D T 302       8.617   2.247  -9.815  1.00 11.11     0.041 A 
HETATM    5  O17   D T 302       9.293   2.450  -7.530  1.00 10.71    -0.188 OA
HETATM    6  C2    D T 302       7.666   1.791 -10.730  1.00 11.31     0.060 A 
HETATM    7  C3    D T 302       6.532   1.105 -10.349  1.00 11.21     0.014 A 
HETATM    8 CL14   D T 302       7.906   2.077 -12.466  1.00 12.38    -0.082 Cl
HETATM    9  C4    D T 302       6.294   0.853  -9.002  1.00 11.12     0.028 A 
ENDBRANCH   1   2
BRANCH   1  10
HETATM   10  C8    D T 302       6.078   1.849  -6.115  1.00 13.41     0.111 A 
HETATM   11  C9    D T 302       4.805   1.241  -5.712  1.00 14.42     0.081 A 
HETATM   12  C10   D T 302       3.817   1.982  -5.112  1.00 15.02     0.025 A 
HETATM   13 CL16   D T 302       4.559  -0.461  -6.044  1.00 16.61    -0.080 Cl
HETATM   14  C11   D T 302       4.061   3.320  -4.889  1.00 14.88     0.059 A 
HETATM   15  C12   D T 302       5.248   3.925  -5.254  1.00 14.38     0.013 A 
HETATM   16 CL15   D T 302       2.778   4.270  -4.119  1.00 17.32    -0.082 Cl
HETATM   17  C13   D T 302       6.257   3.204  -5.861  1.00 13.78     0.026 A 
ENDBRANCH   1  10
TORSDOF 2
ENDMDL
MODEL 2
REMARK VINA RESULT:    -7.634      1.522      6.002
REMARK INTER + INTRA:          -9.045
REMARK INTER:                  -8.505
REMARK INTRA:                  -0.540
REMARK UNBOUND:                -0.519
REMARK  2 active torsions:
REMARK  status: ('A' for Active; 'I' for Inactive)
REMARK    1  A    between atoms: C5_4  and  O7_13 
REMARK    2  A    between atoms: C8_10  and  O7_13 
ROOT
HETATM    1  O7    D T 302       6.913   1.046  -6.592  1.00 12.29    -0.304 OA
ENDROOT
BRANCH   1   2
HETATM    2  C5    D T 302       5.956   1.800  -5.991  1.00 11.31     0.125 A 
HETATM    3  C6    D T 302       4.749   1.125  -5.500  1.00 10.91     0.154 A 
HETATM    4  C1    D T 302       3.771   1.892  -4.894  1.00 11.11     0.041 A 
HETATM    5  O17   D T 302       4.623  -0.216  -5.636  1.00 10.71    -0.188 OA
HETATM    6  C2    D T 302       3.955   3.273  -4.795  1.00 11.31     0.060 A 
HETATM    7  C3    D T 302       5.086   3.910  -5.262  1.00 11.21     0.014 A 
HETATM    8 CL14   D T 302       2.707   4.275  -4.027  1.00 12.38    -0.082 Cl
HETATM    9  C4    D T 302       6.096   3.173  -5.871  1.00 11.12     0.028 A 
ENDBRANCH   1   2
BRANCH   1  10
HETATM   10  C8    D T 302       7.094   1.227  -7.928  1.00 13.41     0.111 A 
HETATM   11  C9    D T 302       8.300   1.921  -8.391  1.00 14.42     0.081 A 
HETATM   12  C10   D T 302       8.522   2.158  -9.725  1.00 15.02     0.025 A 
HETATM   13 CL16   D T 302       9.448   2.474  -7.189  1.00 16.61    -0.080 Cl
HETATM   14  C11   D T 302       7.577   1.713 -10.623  1.00 14.88     0.059 A 
HETATM   15  C12   D T 302       6.430   1.055 -10.223  1.00 14.38     0.013 A 
HETATM   16 CL15   D T 302       7.869   2.028 -12.343  1.00 17.32    -0.082 Cl
HETATM   17  C13   D T 302       6.181   0.806  -8.888  1.00 13.78     0.026 A 
ENDBRANCH   1  10
TORSDOF 2
ENDMDL
MODEL 3
REMARK VINA RESULT:    -7.296      2.204      5.955
REMARK INTER + INTRA:          -8.668
REMARK INTER:                  -8.176
REMARK INTRA:                  -0.492
REMARK UNBOUND:                -0.519
REMARK  2 active torsions:
REMARK  status: ('A' for Active; 'I' for Inactive)
REMARK    1  A    between atoms: C5_4  and  O7_13 
REMARK    2  A    between atoms: C8_10  and  O7_13 
ROOT
HETATM    1  O7    D T 302       6.733   3.514  -6.822  1.00 12.29    -0.304 OA
ENDROOT
BRANCH   1   2
HETATM    2  C5    D T 302       6.003   2.684  -6.033  1.00 11.31     0.125 A 
HETATM    3  C6    D T 302       4.740   3.187  -5.480  1.00 10.91     0.154 A 
HETATM    4  C1    D T 302       3.999   2.345  -4.670  1.00 11.11     0.041 A 
HETATM    5  O17   D T 302       4.325   4.440  -5.778  1.00 10.71    -0.188 OA
HETATM    6  C2    D T 302       4.488   1.067  -4.391  1.00 11.31     0.060 A 
HETATM    7  C3    D T 302       5.678   0.595  -4.904  1.00 11.21     0.014 A 
HETATM    8 CL14   D T 302       3.554  -0.024  -3.347  1.00 12.38    -0.082 Cl
HETATM    9  C4    D T 302       6.449   1.408  -5.728  1.00 11.12     0.028 A 
ENDBRANCH   1   2
BRANCH   1  10
HETATM   10  C8    D T 302       6.863   3.166  -8.131  1.00 13.41     0.111 A 
HETATM   11  C9    D T 302       8.135   2.597  -8.588  1.00 14.42     0.081 A 
HETATM   12  C10   D T 302       8.335   2.255  -9.903  1.00 15.02     0.025 A 
HETATM   13 CL16   D T 302       9.418   2.390  -7.414  1.00 16.61    -0.080 Cl
HETATM   14  C11   D T 302       7.295   2.455 -10.785  1.00 14.88     0.059 A 
HETATM   15  C12   D T 302       6.083   2.988 -10.389  1.00 14.38     0.013 A 
HETATM   16 CL15   D T 302       7.562   2.016 -12.481  1.00 17.32    -0.082 Cl
HETATM   17  C13   D T 302       5.857   3.342  -9.073  1.00 13.78     0.026 A 
ENDBRANCH   1  10
TORSDOF 2
ENDMDL
MODEL 4
REMARK VINA RESULT:    -7.206      2.032      2.249
REMARK INTER + INTRA:          -8.567
REMARK INTER:                  -8.051
REMARK INTRA:                  -0.516
REMARK UNBOUND:                -0.519
REMARK  2 active torsions:
REMARK  status: ('A' for Active; 'I' for Inactive)
REMARK    1  A    between atoms: C5_4  and  O7_13 
REMARK    2  A    between atoms: C8_10  and  O7_13 
ROOT
HETATM    1  O7    D T 302       4.281   1.937  -7.622  1.00 12.29    -0.304 OA
ENDROOT
BRANCH   1   2
HETATM    2  C5    D T 302       5.258   1.789  -8.555  1.00 11.31     0.125 A 
HETATM    3  C6    D T 302       5.429   2.852  -9.552  1.00 10.91     0.154 A 
HETATM    4  C1    D T 302       6.419   2.700 -10.506  1.00 11.11     0.041 A 
HETATM    5  O17   D T 302       4.638   3.949  -9.512  1.00 10.71    -0.188 OA
HETATM    6  C2    D T 302       7.195   1.539 -10.502  1.00 11.31     0.060 A 
HETATM    7  C3    D T 302       7.030   0.536  -9.569  1.00 11.21     0.014 A 
HETATM    8 CL14   D T 302       8.464   1.323 -11.724  1.00 12.38    -0.082 Cl
HETATM    9  C4    D T 302       6.051   0.654  -8.588  1.00 11.12     0.028 A 
ENDBRANCH   1   2
BRANCH   1  10
HETATM   10  C8    D T 302       4.674   2.279  -6.365  1.00 13.41     0.111 A 
HETATM   11  C9    D T 302       4.580   1.276  -5.298  1.00 14.42     0.081 A 
HETATM   12  C10   D T 302       4.933   1.573  -4.005  1.00 15.02     0.025 A 
HETATM   13 CL16   D T 302       3.971  -0.314  -5.709  1.00 16.61    -0.080 Cl
HETATM   14  C11   D T 302       5.390   2.845  -3.738  1.00 14.88     0.059 A 
HETATM   15  C12   D T 302       5.493   3.813  -4.719  1.00 14.38     0.013 A 
HETATM   16 CL15   D T 302       5.839   3.221  -2.066  1.00 17.32    -0.082 Cl
HETATM   17  C13   D T 302       5.142   3.543  -6.027  1.00 13.78     0.026 A 
ENDBRANCH   1  10
TORSDOF 2
ENDMDL
MODEL 5
REMARK VINA RESULT:    -7.205      0.986      1.843
REMARK INTER + INTRA:          -8.566
REMARK INTER:                  -8.300
REMARK INTRA:                  -0.266
REMARK UNBOUND:                -0.519
REMARK  2 active torsions:
REMARK  status: ('A' for Active; 'I' for Inactive)
REMARK    1  A    between atoms: C5_4  and  O7_13 
REMARK    2  A    between atoms: C8_10  and  O7_13 
ROOT
HETATM    1  O7    D T 302       6.335   0.792  -7.013  1.00 12.29    -0.304 OA
ENDROOT
BRANCH   1   2
HETATM    2  C5    D T 302       6.664   1.138  -8.284  1.00 11.31     0.125 A 
HETATM    3  C6    D T 302       5.670   0.922  -9.341  1.00 10.91     0.154 A 
HETATM    4  C1    D T 302       6.006   1.268 -10.637  1.00 11.11     0.041 A 
HETATM    5  O17   D T 302       4.456   0.409  -9.031  1.00 10.71    -0.188 OA
HETATM    6  C2    D T 302       7.279   1.782 -10.894  1.00 11.31     0.060 A 
HETATM    7  C3    D T 302       8.218   1.979  -9.903  1.00 11.21     0.014 A 
HETATM    8 CL14   D T 302       7.732   2.224 -12.553  1.00 12.38    -0.082 Cl
HETATM    9  C4    D T 302       7.916   1.651  -8.586  1.00 11.12     0.028 A 
ENDBRANCH   1   2
BRANCH   1  10
HETATM   10  C8    D T 302       5.583   1.678  -6.305  1.00 13.41     0.111 A 
HETATM   11  C9    D T 302       4.386   1.193  -5.611  1.00 14.42     0.081 A 
HETATM   12  C10   D T 302       3.573   2.046  -4.907  1.00 15.02     0.025 A 
HETATM   13 CL16   D T 302       3.995  -0.510  -5.728  1.00 16.61    -0.080 Cl
HETATM   14  C11   D T 302       3.922   3.378  -4.862  1.00 14.88     0.059 A 
HETATM   15  C12   D T 302       5.043   3.870  -5.503  1.00 14.38     0.013 A 
HETATM   16 CL15   D T 302       2.864   4.473  -3.955  1.00 17.32    -0.082 Cl
HETATM   17  C13   D T 302       5.877   3.034  -6.221  1.00 13.78     0.026 A 
ENDBRANCH   1  10
TORSDOF 2
ENDMDL
MODEL 6
REMARK VINA RESULT:    -7.114      1.765      2.659
REMARK INTER + INTRA:          -8.464
REMARK INTER:                  -8.298
REMARK INTRA:                  -0.166
REMARK UNBOUND:                -0.519
REMARK  2 active torsions:
REMARK  status: ('A' for Active; 'I' for Inactive)
REMARK    1  A    between atoms: C5_4  and  O7_13 
REMARK    2  A    between atoms: C8_10  and  O7_13 
ROOT
HETATM    1  O7    D T 302       4.766   3.278  -7.283  1.00 12.29    -0.304 OA
ENDROOT
BRANCH   1   2
HETATM    2  C5    D T 302       5.611   2.783  -8.225  1.00 11.31     0.125 A 
HETATM    3  C6    D T 302       7.054   2.867  -7.974  1.00 10.91     0.154 A 
HETATM    4  C1    D T 302       7.915   2.369  -8.935  1.00 11.11     0.041 A 
HETATM    5  O17   D T 302       7.508   3.410  -6.821  1.00 10.71    -0.188 OA
HETATM    6  C2    D T 302       7.384   1.832 -10.110  1.00 11.31     0.060 A 
HETATM    7  C3    D T 302       6.028   1.757 -10.350  1.00 11.21     0.014 A 
HETATM    8 CL14   D T 302       8.475   1.194 -11.358  1.00 12.38    -0.082 Cl
HETATM    9  C4    D T 302       5.129   2.241  -9.406  1.00 11.12     0.028 A 
ENDBRANCH   1   2
BRANCH   1  10
HETATM   10  C8    D T 302       4.415   2.445  -6.267  1.00 13.41     0.111 A 
HETATM   11  C9    D T 302       4.023   3.027  -4.979  1.00 14.42     0.081 A 
HETATM   12  C10   D T 302       3.688   2.236  -3.909  1.00 15.02     0.025 A 
HETATM   13 CL16   D T 302       4.023   4.772  -4.826  1.00 16.61    -0.080 Cl
HETATM   14  C11   D T 302       3.720   0.869  -4.083  1.00 14.88     0.059 A 
HETATM   15  C12   D T 302       4.083   0.286  -5.283  1.00 14.38     0.013 A 
HETATM   16 CL15   D T 302       3.291  -0.145  -2.695  1.00 17.32    -0.082 Cl
HETATM   17  C13   D T 302       4.428   1.059  -6.374  1.00 13.78     0.026 A 
ENDBRANCH   1  10
TORSDOF 2
ENDMDL
MODEL 7
REMARK VINA RESULT:    -6.649      2.490      6.298
REMARK INTER + INTRA:          -7.945
REMARK INTER:                  -7.392
REMARK INTRA:                  -0.552
REMARK UNBOUND:                -0.519
REMARK  2 active torsions:
REMARK  status: ('A' for Active; 'I' for Inactive)
REMARK    1  A    between atoms: C5_4  and  O7_13 
REMARK    2  A    between atoms: C8_10  and  O7_13 
ROOT
HETATM    1  O7    D T 302       4.852   2.122  -4.615  1.00 12.29    -0.304 OA
ENDROOT
BRANCH   1   2
HETATM    2  C5    D T 302       4.498   3.232  -3.917  1.00 11.31     0.125 A 
HETATM    3  C6    D T 302       5.317   3.614  -2.761  1.00 10.91     0.154 A 
HETATM    4  C1    D T 302       4.954   4.741  -2.045  1.00 11.11     0.041 A 
HETATM    5  O17   D T 302       6.403   2.877  -2.430  1.00 10.71    -0.188 OA
HETATM    6  C2    D T 302       3.816   5.452  -2.431  1.00 11.31     0.060 A 
HETATM    7  C3    D T 302       3.041   5.091  -3.513  1.00 11.21     0.014 A 
HETATM    8 CL14   D T 302       3.330   6.896  -1.519  1.00 12.38    -0.082 Cl
HETATM    9  C4    D T 302       3.377   3.969  -4.263  1.00 11.12     0.028 A 
ENDBRANCH   1   2
BRANCH   1  10
HETATM   10  C8    D T 302       5.322   2.309  -5.878  1.00 13.41     0.111 A 
HETATM   11  C9    D T 302       4.591   1.710  -7.000  1.00 14.42     0.081 A 
HETATM   12  C10   D T 302       5.034   1.840  -8.293  1.00 15.02     0.025 A 
HETATM   13 CL16   D T 302       3.144   0.788  -6.646  1.00 16.61    -0.080 Cl
HETATM   14  C11   D T 302       6.186   2.563  -8.509  1.00 14.88     0.059 A 
HETATM   15  C12   D T 302       6.899   3.143  -7.477  1.00 14.38     0.013 A 
HETATM   16 CL15   D T 302       6.753   2.722 -10.181  1.00 17.32    -0.082 Cl
HETATM   17  C13   D T 302       6.478   3.025  -6.167  1.00 13.78     0.026 A 
ENDBRANCH   1  10
TORSDOF 2
ENDMDL
MODEL 8
REMARK VINA RESULT:    -6.648      2.493      3.404
REMARK INTER + INTRA:          -7.944
REMARK INTER:                  -7.396
REMARK INTRA:                  -0.547
REMARK UNBOUND:                -0.519
REMARK  2 active torsions:
REMARK  status: ('A' for Active; 'I' for Inactive)
REMARK    1  A    between atoms: C5_4  and  O7_13 
REMARK    2  A    between atoms: C8_10  and  O7_13 
ROOT
HETATM    1  O7    D T 302       4.146   2.590  -6.303  1.00 12.29    -0.304 OA
ENDROOT
BRANCH   1   2
HETATM    2  C5    D T 302       5.034   2.303  -7.290  1.00 11.31     0.125 A 
HETATM    3  C6    D T 302       5.076   0.931  -7.807  1.00 10.91     0.154 A 
HETATM    4  C1    D T 302       5.985   0.637  -8.808  1.00 11.11     0.041 A 
HETATM    5  O17   D T 302       4.231  -0.003  -7.312  1.00 10.71    -0.188 OA
HETATM    6  C2    D T 302       6.837   1.642  -9.268  1.00 11.31     0.060 A 
HETATM    7  C3    D T 302       6.803   2.931  -8.779  1.00 11.21     0.014 A 
HETATM    8 CL14   D T 302       8.015   1.280 -10.547  1.00 12.38    -0.082 Cl
HETATM    9  C4    D T 302       5.899   3.270  -7.778  1.00 11.12     0.028 A 
ENDBRANCH   1   2
BRANCH   1  10
HETATM   10  C8    D T 302       4.654   2.821  -5.062  1.00 13.41     0.111 A 
HETATM   11  C9    D T 302       4.478   4.149  -4.463  1.00 14.42     0.081 A 
HETATM   12  C10   D T 302       4.994   4.450  -3.227  1.00 15.02     0.025 A 
HETATM   13 CL16   D T 302       3.613   5.363  -5.382  1.00 16.61    -0.080 Cl
HETATM   14  C11   D T 302       5.679   3.460  -2.557  1.00 14.88     0.059 A 
HETATM   15  C12   D T 302       5.862   2.198  -3.090  1.00 14.38     0.013 A 
HETATM   16 CL15   D T 302       6.346   3.858  -0.964  1.00 17.32    -0.082 Cl
HETATM   17  C13   D T 302       5.356   1.870  -4.333  1.00 13.78     0.026 A 
ENDBRANCH   1  10
TORSDOF 2
ENDMDL
MODEL 9
REMARK VINA RESULT:    -6.620      8.839     10.782
REMARK INTER + INTRA:          -7.913
REMARK INTER:                  -7.667
REMARK INTRA:                  -0.246
REMARK UNBOUND:                -0.519
REMARK  2 active torsions:
REMARK  status: ('A' for Active; 'I' for Inactive)
REMARK    1  A    between atoms: C5_4  and  O7_13 
REMARK    2  A    between atoms: C8_10  and  O7_13 
ROOT
HETATM    1  O7    D T 302       7.137   6.521   2.939  1.00 12.29    -0.304 OA
ENDROOT
BRANCH   1   2
HETATM    2  C5    D T 302       6.787   6.659   1.634  1.00 11.31     0.125 A 
HETATM    3  C6    D T 302       7.307   7.816   0.897  1.00 10.91     0.154 A 
HETATM    4  C1    D T 302       6.946   7.962  -0.431  1.00 11.11     0.041 A 
HETATM    5  O17   D T 302       8.128   8.697   1.515  1.00 10.71    -0.188 OA
HETATM    6  C2    D T 302       6.087   7.025  -1.008  1.00 11.31     0.060 A 
HETATM    7  C3    D T 302       5.591   5.940  -0.314  1.00 11.21     0.014 A 
HETATM    8 CL14   D T 302       5.607   7.200  -2.708  1.00 12.38    -0.082 Cl
HETATM    9  C4    D T 302       5.936   5.754   1.020  1.00 11.12     0.028 A 
ENDBRANCH   1   2
BRANCH   1  10
HETATM   10  C8    D T 302       7.328   5.254   3.397  1.00 13.41     0.111 A 
HETATM   11  C9    D T 302       8.640   4.625   3.206  1.00 14.42     0.081 A 
HETATM   12  C10   D T 302       8.883   3.338   3.620  1.00 15.02     0.025 A 
HETATM   13 CL16   D T 302       9.892   5.548   2.402  1.00 16.61    -0.080 Cl
HETATM   14  C11   D T 302       7.856   2.655   4.233  1.00 14.88     0.059 A 
HETATM   15  C12   D T 302       6.609   3.216   4.431  1.00 14.38     0.013 A 
HETATM   16 CL15   D T 302       8.176   0.993   4.761  1.00 17.32    -0.082 Cl
HETATM   17  C13   D T 302       6.336   4.507   4.021  1.00 13.78     0.026 A 
ENDBRANCH   1  10
TORSDOF 2
ENDMDL
