MODEL 1
REMARK VINA RESULT:    -7.956      0.000      0.000
REMARK INTER + INTRA:          -9.062
REMARK INTER:                  -8.886
REMARK INTRA:                  -0.176
REMARK UNBOUND:                -0.176
REMARK  2 active torsions:
REMARK  status: ('A' for Active; 'I' for Inactive)
REMARK    1  A    between atoms: C5_4  and  O7_13 
REMARK    2  A    between atoms: C8_10  and  O7_13 
ROOT
HETATM    1  O7    D T 302      34.811 -26.678   3.757  1.00 12.29    -0.304 OA
ENDROOT
BRANCH   1   2
HETATM    2  C5    D T 302      34.912 -27.127   2.479  1.00 11.31     0.125 A 
HETATM    3  C6    D T 302      34.014 -28.204   2.050  1.00 10.91     0.154 A 
HETATM    4  C1    D T 302      34.119 -28.665   0.750  1.00 11.11     0.041 A 
HETATM    5  O17   D T 302      33.104 -28.710   2.915  1.00 10.71    -0.188 OA
HETATM    6  C2    D T 302      35.087 -28.112  -0.091  1.00 11.31     0.060 A 
HETATM    7  C3    D T 302      35.937 -27.103   0.313  1.00 11.21     0.014 A 
HETATM    8 CL14   D T 302      35.242 -28.697  -1.760  1.00 12.38    -0.082 Cl
HETATM    9  C4    D T 302      35.857 -26.605   1.610  1.00 11.12     0.028 A 
ENDBRANCH   1   2
BRANCH   1  10
HETATM   10  C8    D T 302      35.967 -26.315   4.377  1.00 13.41     0.111 A 
HETATM   11  C9    D T 302      36.894 -27.365   4.814  1.00 14.42     0.081 A 
HETATM   12  C10   D T 302      38.061 -27.061   5.470  1.00 15.02     0.025 A 
HETATM   13 CL16   D T 302      36.461 -29.033   4.503  1.00 16.61    -0.080 Cl
HETATM   14  C11   D T 302      38.342 -25.732   5.701  1.00 14.88     0.059 A 
HETATM   15  C12   D T 302      37.492 -24.718   5.303  1.00 14.38     0.013 A 
HETATM   16 CL15   D T 302      39.848 -25.348   6.554  1.00 17.32    -0.082 Cl
HETATM   17  C13   D T 302      36.312 -24.995   4.643  1.00 13.78     0.026 A 
ENDBRANCH   1  10
TORSDOF 2
ENDMDL
MODEL 2
REMARK VINA RESULT:    -7.841      1.146      5.672
REMARK INTER + INTRA:          -8.934
REMARK INTER:                  -8.749
REMARK INTRA:                  -0.185
REMARK UNBOUND:                -0.176
REMARK  2 active torsions:
REMARK  status: ('A' for Active; 'I' for Inactive)
REMARK    1  A    between atoms: C5_4  and  O7_13 
REMARK    2  A    between atoms: C8_10  and  O7_13 
ROOT
HETATM    1  O7    D T 302      35.088 -26.690   3.790  1.00 12.29    -0.304 OA
ENDROOT
BRANCH   1   2
HETATM    2  C5    D T 302      36.222 -26.379   4.471  1.00 11.31     0.125 A 
HETATM    3  C6    D T 302      37.152 -27.463   4.802  1.00 10.91     0.154 A 
HETATM    4  C1    D T 302      38.303 -27.148   5.500  1.00 11.11     0.041 A 
HETATM    5  O17   D T 302      36.877 -28.731   4.412  1.00 10.71    -0.188 OA
HETATM    6  C2    D T 302      38.522 -25.824   5.886  1.00 11.31     0.060 A 
HETATM    7  C3    D T 302      37.645 -24.803   5.581  1.00 11.21     0.014 A 
HETATM    8 CL14   D T 302      39.991 -25.401   6.790  1.00 12.38    -0.082 Cl
HETATM    9  C4    D T 302      36.480 -25.078   4.872  1.00 11.12     0.028 A 
ENDBRANCH   1   2
BRANCH   1  10
HETATM   10  C8    D T 302      35.224 -26.995   2.470  1.00 13.41     0.111 A 
HETATM   11  C9    D T 302      34.484 -28.141   1.930  1.00 14.42     0.081 A 
HETATM   12  C10   D T 302      34.604 -28.514   0.614  1.00 15.02     0.025 A 
HETATM   13 CL16   D T 302      33.458 -29.050   3.019  1.00 16.61    -0.080 Cl
HETATM   14  C11   D T 302      35.439 -27.770  -0.191  1.00 14.88     0.059 A 
HETATM   15  C12   D T 302      36.150 -26.685   0.284  1.00 14.38     0.013 A 
HETATM   16 CL15   D T 302      35.593 -28.262  -1.888  1.00 17.32    -0.082 Cl
HETATM   17  C13   D T 302      36.049 -26.289   1.603  1.00 13.78     0.026 A 
ENDBRANCH   1  10
TORSDOF 2
ENDMDL
MODEL 3
REMARK VINA RESULT:    -7.707      3.448      3.919
REMARK INTER + INTRA:          -8.784
REMARK INTER:                  -8.301
REMARK INTRA:                  -0.483
REMARK UNBOUND:                -0.176
REMARK  2 active torsions:
REMARK  status: ('A' for Active; 'I' for Inactive)
REMARK    1  A    between atoms: C5_4  and  O7_13 
REMARK    2  A    between atoms: C8_10  and  O7_13 
ROOT
HETATM    1  O7    D T 302      35.874 -25.585   2.674  1.00 12.29    -0.304 OA
ENDROOT
BRANCH   1   2
HETATM    2  C5    D T 302      35.212 -24.425   2.421  1.00 11.31     0.125 A 
HETATM    3  C6    D T 302      33.746 -24.441   2.458  1.00 10.91     0.154 A 
HETATM    4  C1    D T 302      33.072 -23.263   2.196  1.00 11.11     0.041 A 
HETATM    5  O17   D T 302      33.091 -25.588   2.757  1.00 10.71    -0.188 OA
HETATM    6  C2    D T 302      33.805 -22.116   1.881  1.00 11.31     0.060 A 
HETATM    7  C3    D T 302      35.184 -22.100   1.840  1.00 11.21     0.014 A 
HETATM    8 CL14   D T 302      32.956 -20.596   1.534  1.00 12.38    -0.082 Cl
HETATM    9  C4    D T 302      35.899 -23.263   2.106  1.00 11.12     0.028 A 
ENDBRANCH   1   2
BRANCH   1  10
HETATM   10  C8    D T 302      36.790 -25.567   3.680  1.00 13.41     0.111 A 
HETATM   11  C9    D T 302      38.172 -25.960   3.384  1.00 14.42     0.081 A 
HETATM   12  C10   D T 302      39.133 -25.990   4.364  1.00 15.02     0.025 A 
HETATM   13 CL16   D T 302      38.566 -26.424   1.742  1.00 16.61    -0.080 Cl
HETATM   14  C11   D T 302      38.761 -25.630   5.640  1.00 14.88     0.059 A 
HETATM   15  C12   D T 302      37.469 -25.254   5.955  1.00 14.38     0.013 A 
HETATM   16 CL15   D T 302      40.006 -25.677   6.902  1.00 17.32    -0.082 Cl
HETATM   17  C13   D T 302      36.483 -25.217   4.989  1.00 13.78     0.026 A 
ENDBRANCH   1  10
TORSDOF 2
ENDMDL
MODEL 4
REMARK VINA RESULT:    -7.535      4.069      6.153
REMARK INTER + INTRA:          -8.592
REMARK INTER:                  -8.393
REMARK INTRA:                  -0.200
REMARK UNBOUND:                -0.176
REMARK  2 active torsions:
REMARK  status: ('A' for Active; 'I' for Inactive)
REMARK    1  A    between atoms: C5_4  and  O7_13 
REMARK    2  A    between atoms: C8_10  and  O7_13 
ROOT
HETATM    1  O7    D T 302      34.664 -24.799   2.288  1.00 12.29    -0.304 OA
ENDROOT
BRANCH   1   2
HETATM    2  C5    D T 302      35.676 -24.961   3.179  1.00 11.31     0.125 A 
HETATM    3  C6    D T 302      35.454 -25.845   4.328  1.00 10.91     0.154 A 
HETATM    4  C1    D T 302      36.482 -26.005   5.239  1.00 11.11     0.041 A 
HETATM    5  O17   D T 302      34.270 -26.487   4.467  1.00 10.71    -0.188 OA
HETATM    6  C2    D T 302      37.675 -25.305   5.048  1.00 11.31     0.060 A 
HETATM    7  C3    D T 302      37.884 -24.468   3.970  1.00 11.21     0.014 A 
HETATM    8 CL14   D T 302      39.003 -25.492   6.211  1.00 12.38    -0.082 Cl
HETATM    9  C4    D T 302      36.877 -24.286   3.028  1.00 11.12     0.028 A 
ENDBRANCH   1   2
BRANCH   1  10
HETATM   10  C8    D T 302      34.076 -23.573   2.235  1.00 13.41     0.111 A 
HETATM   11  C9    D T 302      33.403 -23.165   0.997  1.00 14.42     0.081 A 
HETATM   12  C10   D T 302      32.819 -21.929   0.875  1.00 15.02     0.025 A 
HETATM   13 CL16   D T 302      33.386 -24.290  -0.345  1.00 16.61    -0.080 Cl
HETATM   14  C11   D T 302      32.877 -21.080   1.958  1.00 14.88     0.059 A 
HETATM   15  C12   D T 302      33.502 -21.431   3.139  1.00 14.38     0.013 A 
HETATM   16 CL15   D T 302      32.125 -19.483   1.790  1.00 17.32    -0.082 Cl
HETATM   17  C13   D T 302      34.099 -22.667   3.288  1.00 13.78     0.026 A 
ENDBRANCH   1  10
TORSDOF 2
ENDMDL
MODEL 5
REMARK VINA RESULT:    -7.523      2.310      2.715
REMARK INTER + INTRA:          -8.579
REMARK INTER:                  -8.027
REMARK INTRA:                  -0.552
REMARK UNBOUND:                -0.176
REMARK  2 active torsions:
REMARK  status: ('A' for Active; 'I' for Inactive)
REMARK    1  A    between atoms: C5_4  and  O7_13 
REMARK    2  A    between atoms: C8_10  and  O7_13 
ROOT
HETATM    1  O7    D T 302      36.696 -27.947   1.962  1.00 12.29    -0.304 OA
ENDROOT
BRANCH   1   2
HETATM    2  C5    D T 302      35.851 -27.147   1.261  1.00 11.31     0.125 A 
HETATM    3  C6    D T 302      36.113 -26.944  -0.168  1.00 10.91     0.154 A 
HETATM    4  C1    D T 302      35.257 -26.126  -0.881  1.00 11.11     0.041 A 
HETATM    5  O17   D T 302      37.164 -27.564  -0.756  1.00 10.71    -0.188 OA
HETATM    6  C2    D T 302      34.199 -25.505  -0.214  1.00 11.31     0.060 A 
HETATM    7  C3    D T 302      33.954 -25.689   1.131  1.00 11.21     0.014 A 
HETATM    8 CL14   D T 302      33.094 -24.444  -1.111  1.00 12.38    -0.082 Cl
HETATM    9  C4    D T 302      34.787 -26.512   1.882  1.00 11.12     0.028 A 
ENDBRANCH   1   2
BRANCH   1  10
HETATM   10  C8    D T 302      37.449 -27.355   2.929  1.00 13.41     0.111 A 
HETATM   11  C9    D T 302      37.254 -27.763   4.324  1.00 14.42     0.081 A 
HETATM   12  C10   D T 302      37.962 -27.180   5.346  1.00 15.02     0.025 A 
HETATM   13 CL16   D T 302      36.064 -29.002   4.666  1.00 16.61    -0.080 Cl
HETATM   14  C11   D T 302      38.874 -26.200   5.019  1.00 14.88     0.059 A 
HETATM   15  C12   D T 302      39.083 -25.791   3.716  1.00 14.38     0.013 A 
HETATM   16 CL15   D T 302      39.780 -25.448   6.344  1.00 17.32    -0.082 Cl
HETATM   17  C13   D T 302      38.382 -26.359   2.670  1.00 13.78     0.026 A 
ENDBRANCH   1  10
TORSDOF 2
ENDMDL
MODEL 6
REMARK VINA RESULT:    -7.475      4.014      4.649
REMARK INTER + INTRA:          -8.526
REMARK INTER:                  -8.392
REMARK INTRA:                  -0.133
REMARK UNBOUND:                -0.176
REMARK  2 active torsions:
REMARK  status: ('A' for Active; 'I' for Inactive)
REMARK    1  A    between atoms: C5_4  and  O7_13 
REMARK    2  A    between atoms: C8_10  and  O7_13 
ROOT
HETATM    1  O7    D T 302      34.960 -24.857   2.251  1.00 12.29    -0.304 OA
ENDROOT
BRANCH   1   2
HETATM    2  C5    D T 302      34.314 -23.662   2.205  1.00 11.31     0.125 A 
HETATM    3  C6    D T 302      33.532 -23.343   1.006  1.00 10.91     0.154 A 
HETATM    4  C1    D T 302      32.879 -22.125   0.956  1.00 11.11     0.041 A 
HETATM    5  O17   D T 302      33.452 -24.238  -0.006  1.00 10.71    -0.188 OA
HETATM    6  C2    D T 302      33.010 -21.239   2.028  1.00 11.31     0.060 A 
HETATM    7  C3    D T 302      33.751 -21.535   3.154  1.00 11.21     0.014 A 
HETATM    8 CL14   D T 302      32.186 -19.667   1.978  1.00 12.38    -0.082 Cl
HETATM    9  C4    D T 302      34.416 -22.753   3.247  1.00 11.12     0.028 A 
ENDBRANCH   1   2
BRANCH   1  10
HETATM   10  C8    D T 302      35.965 -24.981   3.161  1.00 13.41     0.111 A 
HETATM   11  C9    D T 302      35.768 -25.868   4.313  1.00 14.42     0.081 A 
HETATM   12  C10   D T 302      36.734 -26.011   5.278  1.00 15.02     0.025 A 
HETATM   13 CL16   D T 302      34.247 -26.725   4.447  1.00 16.61    -0.080 Cl
HETATM   14  C11   D T 302      37.904 -25.299   5.128  1.00 14.88     0.059 A 
HETATM   15  C12   D T 302      38.123 -24.456   4.055  1.00 14.38     0.013 A 
HETATM   16 CL15   D T 302      39.144 -25.485   6.382  1.00 17.32    -0.082 Cl
HETATM   17  C13   D T 302      37.168 -24.292   3.072  1.00 13.78     0.026 A 
ENDBRANCH   1  10
TORSDOF 2
ENDMDL
MODEL 7
REMARK VINA RESULT:    -7.408      2.341      6.112
REMARK INTER + INTRA:          -8.451
REMARK INTER:                  -7.974
REMARK INTRA:                  -0.477
REMARK UNBOUND:                -0.176
REMARK  2 active torsions:
REMARK  status: ('A' for Active; 'I' for Inactive)
REMARK    1  A    between atoms: C5_4  and  O7_13 
REMARK    2  A    between atoms: C8_10  and  O7_13 
ROOT
HETATM    1  O7    D T 302      36.684 -25.714   0.881  1.00 12.29    -0.304 OA
ENDROOT
BRANCH   1   2
HETATM    2  C5    D T 302      37.286 -25.740   2.099  1.00 11.31     0.125 A 
HETATM    3  C6    D T 302      37.208 -24.539   2.936  1.00 10.91     0.154 A 
HETATM    4  C1    D T 302      37.826 -24.562   4.173  1.00 11.11     0.041 A 
HETATM    5  O17   D T 302      36.532 -23.451   2.496  1.00 10.71    -0.188 OA
HETATM    6  C2    D T 302      38.518 -25.710   4.565  1.00 11.31     0.060 A 
HETATM    7  C3    D T 302      38.599 -26.839   3.776  1.00 11.21     0.014 A 
HETATM    8 CL14   D T 302      39.324 -25.755   6.146  1.00 12.38    -0.082 Cl
HETATM    9  C4    D T 302      37.984 -26.858   2.528  1.00 11.12     0.028 A 
ENDBRANCH   1   2
BRANCH   1  10
HETATM   10  C8    D T 302      35.489 -26.355   0.769  1.00 13.41     0.111 A 
HETATM   11  C9    D T 302      35.369 -27.463  -0.185  1.00 14.42     0.081 A 
HETATM   12  C10   D T 302      34.181 -28.128  -0.363  1.00 15.02     0.025 A 
HETATM   13 CL16   D T 302      36.780 -27.904  -1.124  1.00 16.61    -0.080 Cl
HETATM   14  C11   D T 302      33.100 -27.727   0.391  1.00 14.88     0.059 A 
HETATM   15  C12   D T 302      33.178 -26.689   1.299  1.00 14.38     0.013 A 
HETATM   16 CL15   D T 302      31.568 -28.587   0.151  1.00 17.32    -0.082 Cl
HETATM   17  C13   D T 302      34.359 -26.002   1.496  1.00 13.78     0.026 A 
ENDBRANCH   1  10
TORSDOF 2
ENDMDL
MODEL 8
REMARK VINA RESULT:    -7.338      1.843      6.061
REMARK INTER + INTRA:          -8.372
REMARK INTER:                  -7.994
REMARK INTRA:                  -0.378
REMARK UNBOUND:                -0.176
REMARK  2 active torsions:
REMARK  status: ('A' for Active; 'I' for Inactive)
REMARK    1  A    between atoms: C5_4  and  O7_13 
REMARK    2  A    between atoms: C8_10  and  O7_13 
ROOT
HETATM    1  O7    D T 302      34.026 -28.069   2.163  1.00 12.29    -0.304 OA
ENDROOT
BRANCH   1   2
HETATM    2  C5    D T 302      34.775 -27.329   3.022  1.00 11.31     0.125 A 
HETATM    3  C6    D T 302      35.691 -28.032   3.926  1.00 10.91     0.154 A 
HETATM    4  C1    D T 302      36.450 -27.279   4.804  1.00 11.11     0.041 A 
HETATM    5  O17   D T 302      35.785 -29.382   3.877  1.00 10.71    -0.188 OA
HETATM    6  C2    D T 302      36.298 -25.891   4.815  1.00 11.31     0.060 A 
HETATM    7  C3    D T 302      35.432 -25.228   3.969  1.00 11.21     0.014 A 
HETATM    8 CL14   D T 302      37.258 -24.909   5.940  1.00 12.38    -0.082 Cl
HETATM    9  C4    D T 302      34.657 -25.949   3.066  1.00 11.12     0.028 A 
ENDBRANCH   1   2
BRANCH   1  10
HETATM   10  C8    D T 302      34.378 -28.037   0.849  1.00 13.41     0.111 A 
HETATM   11  C9    D T 302      33.320 -28.071  -0.166  1.00 14.42     0.081 A 
HETATM   12  C10   D T 302      33.616 -28.071  -1.507  1.00 15.02     0.025 A 
HETATM   13 CL16   D T 302      31.656 -28.143   0.374  1.00 16.61    -0.080 Cl
HETATM   14  C11   D T 302      34.943 -28.030  -1.873  1.00 14.88     0.059 A 
HETATM   15  C12   D T 302      35.965 -27.997  -0.943  1.00 14.38     0.013 A 
HETATM   16 CL15   D T 302      35.317 -28.036  -3.606  1.00 17.32    -0.082 Cl
HETATM   17  C13   D T 302      35.696 -27.998   0.411  1.00 13.78     0.026 A 
ENDBRANCH   1  10
TORSDOF 2
ENDMDL
MODEL 9
REMARK VINA RESULT:    -7.300      2.084      2.303
REMARK INTER + INTRA:          -8.329
REMARK INTER:                  -7.821
REMARK INTRA:                  -0.508
REMARK UNBOUND:                -0.176
REMARK  2 active torsions:
REMARK  status: ('A' for Active; 'I' for Inactive)
REMARK    1  A    between atoms: C5_4  and  O7_13 
REMARK    2  A    between atoms: C8_10  and  O7_13 
ROOT
HETATM    1  O7    D T 302      35.757 -27.989   1.846  1.00 12.29    -0.304 OA
ENDROOT
BRANCH   1   2
HETATM    2  C5    D T 302      35.131 -27.387   0.800  1.00 11.31     0.125 A 
HETATM    3  C6    D T 302      33.688 -27.595   0.642  1.00 10.91     0.154 A 
HETATM    4  C1    D T 302      33.053 -26.988  -0.425  1.00 11.11     0.041 A 
HETATM    5  O17   D T 302      33.014 -28.354   1.538  1.00 10.71    -0.188 OA
HETATM    6  C2    D T 302      33.806 -26.228  -1.322  1.00 11.31     0.060 A 
HETATM    7  C3    D T 302      35.166 -26.036  -1.179  1.00 11.21     0.014 A 
HETATM    8 CL14   D T 302      33.009 -25.447  -2.703  1.00 12.38    -0.082 Cl
HETATM    9  C4    D T 302      35.840 -26.623  -0.113  1.00 11.12     0.028 A 
ENDBRANCH   1   2
BRANCH   1  10
HETATM   10  C8    D T 302      36.125 -27.192   2.887  1.00 13.41     0.111 A 
HETATM   11  C9    D T 302      37.544 -26.863   3.055  1.00 14.42     0.081 A 
HETATM   12  C10   D T 302      37.979 -26.088   4.102  1.00 15.02     0.025 A 
HETATM   13 CL16   D T 302      38.687 -27.509   1.896  1.00 16.61    -0.080 Cl
HETATM   14  C11   D T 302      37.037 -25.621   4.991  1.00 14.88     0.059 A 
HETATM   15  C12   D T 302      35.692 -25.911   4.862  1.00 14.38     0.013 A 
HETATM   16 CL15   D T 302      37.607 -24.627   6.344  1.00 17.32    -0.082 Cl
HETATM   17  C13   D T 302      35.228 -26.689   3.820  1.00 13.78     0.026 A 
ENDBRANCH   1  10
TORSDOF 2
ENDMDL
