MODEL 1
REMARK VINA RESULT:    -7.399      0.000      0.000
REMARK INTER + INTRA:          -8.761
REMARK INTER:                  -8.264
REMARK INTRA:                  -0.497
REMARK UNBOUND:                -0.497
REMARK  2 active torsions:
REMARK  status: ('A' for Active; 'I' for Inactive)
REMARK    1  A    between atoms: C5_4  and  O7_13 
REMARK    2  A    between atoms: C8_10  and  O7_13 
ROOT
HETATM    1  O7    D T 302       5.919   1.517  -7.645  1.00 12.29    -0.304 OA
ENDROOT
BRANCH   1   2
HETATM    2  C5    D T 302       5.913   1.631  -8.999  1.00 11.31     0.125 A 
HETATM    3  C6    D T 302       6.821   2.603  -9.617  1.00 10.91     0.154 A 
HETATM    4  C1    D T 302       6.811   2.724 -10.994  1.00 11.11     0.041 A 
HETATM    5  O17   D T 302       7.648   3.342  -8.841  1.00 10.71    -0.188 OA
HETATM    6  C2    D T 302       5.925   1.941 -11.739  1.00 11.31     0.060 A 
HETATM    7  C3    D T 302       5.066   1.031 -11.160  1.00 11.21     0.014 A 
HETATM    8 CL14   D T 302       5.893   2.089 -13.508  1.00 12.38    -0.082 Cl
HETATM    9  C4    D T 302       5.051   0.874  -9.777  1.00 11.12     0.028 A 
ENDBRANCH   1   2
BRANCH   1  10
HETATM   10  C8    D T 302       4.892   2.103  -6.971  1.00 13.41     0.111 A 
HETATM   11  C9    D T 302       3.842   1.250  -6.404  1.00 14.42     0.081 A 
HETATM   12  C10   D T 302       2.767   1.785  -5.739  1.00 15.02     0.025 A 
HETATM   13 CL16   D T 302       3.975  -0.483  -6.622  1.00 16.61    -0.080 Cl
HETATM   14  C11   D T 302       2.707   3.156  -5.613  1.00 14.88     0.059 A 
HETATM   15  C12   D T 302       3.678   3.990  -6.133  1.00 14.38     0.013 A 
HETATM   16 CL15   D T 302       1.312   3.840  -4.758  1.00 17.32    -0.082 Cl
HETATM   17  C13   D T 302       4.769   3.477  -6.807  1.00 13.78     0.026 A 
ENDBRANCH   1  10
TORSDOF 2
ENDMDL
MODEL 2
REMARK VINA RESULT:    -7.378      1.604      6.011
REMARK INTER + INTRA:          -8.737
REMARK INTER:                  -8.201
REMARK INTRA:                  -0.536
REMARK UNBOUND:                -0.497
REMARK  2 active torsions:
REMARK  status: ('A' for Active; 'I' for Inactive)
REMARK    1  A    between atoms: C5_4  and  O7_13 
REMARK    2  A    between atoms: C8_10  and  O7_13 
ROOT
HETATM    1  O7    D T 302       5.757   1.422  -7.308  1.00 12.29    -0.304 OA
ENDROOT
BRANCH   1   2
HETATM    2  C5    D T 302       4.701   1.969  -6.652  1.00 11.31     0.125 A 
HETATM    3  C6    D T 302       3.732   1.065  -6.022  1.00 10.91     0.154 A 
HETATM    4  C1    D T 302       2.653   1.620  -5.359  1.00 11.11     0.041 A 
HETATM    5  O17   D T 302       3.916  -0.275  -6.089  1.00 10.71    -0.188 OA
HETATM    6  C2    D T 302       2.512   3.010  -5.336  1.00 11.31     0.060 A 
HETATM    7  C3    D T 302       3.419   3.862  -5.933  1.00 11.21     0.014 A 
HETATM    8 CL14   D T 302       1.129   3.741  -4.496  1.00 12.38    -0.082 Cl
HETATM    9  C4    D T 302       4.521   3.343  -6.603  1.00 11.12     0.028 A 
ENDBRANCH   1   2
BRANCH   1  10
HETATM   10  C8    D T 302       5.750   1.502  -8.667  1.00 13.41     0.111 A 
HETATM   11  C9    D T 302       6.681   2.427  -9.323  1.00 14.42     0.081 A 
HETATM   12  C10   D T 302       6.699   2.573 -10.688  1.00 15.02     0.025 A 
HETATM   13 CL16   D T 302       7.758   3.371  -8.317  1.00 16.61    -0.080 Cl
HETATM   14  C11   D T 302       5.817   1.815 -11.428  1.00 14.88     0.059 A 
HETATM   15  C12   D T 302       4.928   0.934 -10.843  1.00 14.38     0.013 A 
HETATM   16 CL15   D T 302       5.843   2.014 -13.189  1.00 17.32    -0.082 Cl
HETATM   17  C13   D T 302       4.888   0.769  -9.472  1.00 13.78     0.026 A 
ENDBRANCH   1  10
TORSDOF 2
ENDMDL
MODEL 3
REMARK VINA RESULT:    -7.253      1.637      5.961
REMARK INTER + INTRA:          -8.597
REMARK INTER:                  -8.409
REMARK INTRA:                  -0.189
REMARK UNBOUND:                -0.497
REMARK  2 active torsions:
REMARK  status: ('A' for Active; 'I' for Inactive)
REMARK    1  A    between atoms: C5_4  and  O7_13 
REMARK    2  A    between atoms: C8_10  and  O7_13 
ROOT
HETATM    1  O7    D T 302       4.482   0.577  -7.886  1.00 12.29    -0.304 OA
ENDROOT
BRANCH   1   2
HETATM    2  C5    D T 302       3.778   1.455  -7.125  1.00 11.31     0.125 A 
HETATM    3  C6    D T 302       2.909   0.919  -6.073  1.00 10.91     0.154 A 
HETATM    4  C1    D T 302       2.187   1.811  -5.302  1.00 11.11     0.041 A 
HETATM    5  O17   D T 302       2.840  -0.418  -5.870  1.00 10.71    -0.188 OA
HETATM    6  C2    D T 302       2.291   3.179  -5.568  1.00 11.31     0.060 A 
HETATM    7  C3    D T 302       3.104   3.685  -6.562  1.00 11.21     0.014 A 
HETATM    8 CL14   D T 302       1.366   4.339  -4.594  1.00 12.38    -0.082 Cl
HETATM    9  C4    D T 302       3.852   2.820  -7.354  1.00 11.12     0.028 A 
ENDBRANCH   1   2
BRANCH   1  10
HETATM   10  C8    D T 302       4.806   0.974  -9.148  1.00 13.41     0.111 A 
HETATM   11  C9    D T 302       3.800   0.846 -10.207  1.00 14.42     0.081 A 
HETATM   12  C10   D T 302       4.078   1.202 -11.504  1.00 15.02     0.025 A 
HETATM   13 CL16   D T 302       2.230   0.195  -9.784  1.00 16.61    -0.080 Cl
HETATM   14  C11   D T 302       5.335   1.693 -11.780  1.00 14.88     0.059 A 
HETATM   15  C12   D T 302       6.307   1.827 -10.807  1.00 14.38     0.013 A 
HETATM   16 CL15   D T 302       5.688   2.144 -13.458  1.00 17.32    -0.082 Cl
HETATM   17  C13   D T 302       6.054   1.476  -9.496  1.00 13.78     0.026 A 
ENDBRANCH   1  10
TORSDOF 2
ENDMDL
MODEL 4
REMARK VINA RESULT:    -7.101      2.144      2.378
REMARK INTER + INTRA:          -8.428
REMARK INTER:                  -7.923
REMARK INTRA:                  -0.505
REMARK UNBOUND:                -0.497
REMARK  2 active torsions:
REMARK  status: ('A' for Active; 'I' for Inactive)
REMARK    1  A    between atoms: C5_4  and  O7_13 
REMARK    2  A    between atoms: C8_10  and  O7_13 
ROOT
HETATM    1  O7    D T 302       2.743   1.796  -7.835  1.00 12.29    -0.304 OA
ENDROOT
BRANCH   1   2
HETATM    2  C5    D T 302       3.622   1.676  -8.864  1.00 11.31     0.125 A 
HETATM    3  C6    D T 302       3.546   2.648  -9.959  1.00 10.91     0.154 A 
HETATM    4  C1    D T 302       4.436   2.522 -11.009  1.00 11.11     0.041 A 
HETATM    5  O17   D T 302       2.628   3.642  -9.916  1.00 10.71    -0.188 OA
HETATM    6  C2    D T 302       5.352   1.467 -11.002  1.00 11.31     0.060 A 
HETATM    7  C3    D T 302       5.422   0.548  -9.976  1.00 11.21     0.014 A 
HETATM    8 CL14   D T 302       6.497   1.286 -12.346  1.00 12.38    -0.082 Cl
HETATM    9  C4    D T 302       4.548   0.644  -8.897  1.00 11.12     0.028 A 
ENDBRANCH   1   2
BRANCH   1  10
HETATM   10  C8    D T 302       3.219   2.325  -6.674  1.00 13.41     0.111 A 
HETATM   11  C9    D T 302       3.380   1.444  -5.512  1.00 14.42     0.081 A 
HETATM   12  C10   D T 302       3.827   1.926  -4.307  1.00 15.02     0.025 A 
HETATM   13 CL16   D T 302       2.956  -0.245  -5.689  1.00 16.61    -0.080 Cl
HETATM   14  C11   D T 302       4.130   3.268  -4.223  1.00 14.88     0.059 A 
HETATM   15  C12   D T 302       3.991   4.126  -5.298  1.00 14.38     0.013 A 
HETATM   16 CL15   D T 302       4.701   3.883  -2.662  1.00 17.32    -0.082 Cl
HETATM   17  C13   D T 302       3.542   3.667  -6.520  1.00 13.78     0.026 A 
ENDBRANCH   1  10
TORSDOF 2
ENDMDL
MODEL 5
REMARK VINA RESULT:    -7.027      2.434      6.014
REMARK INTER + INTRA:          -8.345
REMARK INTER:                  -8.064
REMARK INTRA:                  -0.281
REMARK UNBOUND:                -0.497
REMARK  2 active torsions:
REMARK  status: ('A' for Active; 'I' for Inactive)
REMARK    1  A    between atoms: C5_4  and  O7_13 
REMARK    2  A    between atoms: C8_10  and  O7_13 
ROOT
HETATM    1  O7    D T 302       3.195   3.690  -7.851  1.00 12.29    -0.304 OA
ENDROOT
BRANCH   1   2
HETATM    2  C5    D T 302       3.064   2.859  -6.784  1.00 11.31     0.125 A 
HETATM    3  C6    D T 302       3.369   3.388  -5.451  1.00 10.91     0.154 A 
HETATM    4  C1    D T 302       3.243   2.541  -4.366  1.00 11.11     0.041 A 
HETATM    5  O17   D T 302       3.750   4.680  -5.309  1.00 10.71    -0.188 OA
HETATM    6  C2    D T 302       2.858   1.216  -4.579  1.00 11.31     0.060 A 
HETATM    7  C3    D T 302       2.577   0.713  -5.833  1.00 11.21     0.014 A 
HETATM    8 CL14   D T 302       2.698   0.111  -3.198  1.00 12.38    -0.082 Cl
HETATM    9  C4    D T 302       2.685   1.536  -6.950  1.00 11.12     0.028 A 
ENDBRANCH   1   2
BRANCH   1  10
HETATM   10  C8    D T 302       3.787   3.178  -8.965  1.00 13.41     0.111 A 
HETATM   11  C9    D T 302       5.252   3.144  -9.033  1.00 14.42     0.081 A 
HETATM   12  C10   D T 302       5.906   2.667 -10.142  1.00 15.02     0.025 A 
HETATM   13 CL16   D T 302       6.158   3.761  -7.667  1.00 16.61    -0.080 Cl
HETATM   14  C11   D T 302       5.140   2.210 -11.192  1.00 14.88     0.059 A 
HETATM   15  C12   D T 302       3.758   2.226 -11.162  1.00 14.38     0.013 A 
HETATM   16 CL15   D T 302       5.991   1.601 -12.623  1.00 17.32    -0.082 Cl
HETATM   17  C13   D T 302       3.077   2.702 -10.060  1.00 13.78     0.026 A 
ENDBRANCH   1  10
TORSDOF 2
ENDMDL
MODEL 6
REMARK VINA RESULT:    -7.017      1.530      2.295
REMARK INTER + INTRA:          -8.334
REMARK INTER:                  -7.813
REMARK INTRA:                  -0.521
REMARK UNBOUND:                -0.497
REMARK  2 active torsions:
REMARK  status: ('A' for Active; 'I' for Inactive)
REMARK    1  A    between atoms: C5_4  and  O7_13 
REMARK    2  A    between atoms: C8_10  and  O7_13 
ROOT
HETATM    1  O7    D T 302       4.960   3.684  -7.882  1.00 12.29    -0.304 OA
ENDROOT
BRANCH   1   2
HETATM    2  C5    D T 302       5.083   3.237  -9.159  1.00 11.31     0.125 A 
HETATM    3  C6    D T 302       6.432   2.976  -9.674  1.00 10.91     0.154 A 
HETATM    4  C1    D T 302       6.559   2.527 -10.976  1.00 11.11     0.041 A 
HETATM    5  O17   D T 302       7.508   3.164  -8.875  1.00 10.71    -0.188 OA
HETATM    6  C2    D T 302       5.410   2.364 -11.754  1.00 11.31     0.060 A 
HETATM    7  C3    D T 302       4.142   2.615 -11.273  1.00 11.21     0.014 A 
HETATM    8 CL14   D T 302       5.555   1.796 -13.430  1.00 12.38    -0.082 Cl
HETATM    9  C4    D T 302       3.971   3.061  -9.967  1.00 11.12     0.028 A 
ENDBRANCH   1   2
BRANCH   1  10
HETATM   10  C8    D T 302       4.521   2.790  -6.954  1.00 13.41     0.111 A 
HETATM   11  C9    D T 302       3.226   3.024  -6.305  1.00 14.42     0.081 A 
HETATM   12  C10   D T 302       2.746   2.174  -5.341  1.00 15.02     0.025 A 
HETATM   13 CL16   D T 302       2.312   4.444  -6.770  1.00 16.61    -0.080 Cl
HETATM   14  C11   D T 302       3.516   1.082  -5.004  1.00 14.88     0.059 A 
HETATM   15  C12   D T 302       4.739   0.830  -5.595  1.00 14.38     0.013 A 
HETATM   16 CL15   D T 302       2.891  -0.008  -3.754  1.00 17.32    -0.082 Cl
HETATM   17  C13   D T 302       5.247   1.670  -6.566  1.00 13.78     0.026 A 
ENDBRANCH   1  10
TORSDOF 2
ENDMDL
MODEL 7
REMARK VINA RESULT:    -6.983      2.802      3.645
REMARK INTER + INTRA:          -8.297
REMARK INTER:                  -7.839
REMARK INTRA:                  -0.457
REMARK UNBOUND:                -0.497
REMARK  2 active torsions:
REMARK  status: ('A' for Active; 'I' for Inactive)
REMARK    1  A    between atoms: C5_4  and  O7_13 
REMARK    2  A    between atoms: C8_10  and  O7_13 
ROOT
HETATM    1  O7    D T 302       5.219   2.270  -8.080  1.00 12.29    -0.304 OA
ENDROOT
BRANCH   1   2
HETATM    2  C5    D T 302       5.259   2.152  -9.433  1.00 11.31     0.125 A 
HETATM    3  C6    D T 302       4.474   3.096 -10.236  1.00 10.91     0.154 A 
HETATM    4  C1    D T 302       4.510   2.973 -11.612  1.00 11.11     0.041 A 
HETATM    5  O17   D T 302       3.751   4.063  -9.624  1.00 10.71    -0.188 OA
HETATM    6  C2    D T 302       5.265   1.946 -12.184  1.00 11.31     0.060 A 
HETATM    7  C3    D T 302       6.000   1.053 -11.431  1.00 11.21     0.014 A 
HETATM    8 CL14   D T 302       5.317   1.768 -13.949  1.00 12.38    -0.082 Cl
HETATM    9  C4    D T 302       5.996   1.148 -10.043  1.00 11.12     0.028 A 
ENDBRANCH   1   2
BRANCH   1  10
HETATM   10  C8    D T 302       6.411   2.388  -7.434  1.00 13.41     0.111 A 
HETATM   11  C9    D T 302       6.724   1.445  -6.355  1.00 14.42     0.081 A 
HETATM   12  C10   D T 302       7.898   1.532  -5.648  1.00 15.02     0.025 A 
HETATM   13 CL16   D T 302       5.544   0.212  -5.964  1.00 16.61    -0.080 Cl
HETATM   14  C11   D T 302       8.781   2.533  -5.990  1.00 14.88     0.059 A 
HETATM   15  C12   D T 302       8.519   3.437  -7.001  1.00 14.38     0.013 A 
HETATM   16 CL15   D T 302      10.292   2.643  -5.067  1.00 17.32    -0.082 Cl
HETATM   17  C13   D T 302       7.346   3.372  -7.726  1.00 13.78     0.026 A 
ENDBRANCH   1  10
TORSDOF 2
ENDMDL
MODEL 8
REMARK VINA RESULT:    -6.887      2.611      6.281
REMARK INTER + INTRA:          -8.189
REMARK INTER:                  -7.751
REMARK INTRA:                  -0.438
REMARK UNBOUND:                -0.497
REMARK  2 active torsions:
REMARK  status: ('A' for Active; 'I' for Inactive)
REMARK    1  A    between atoms: C5_4  and  O7_13 
REMARK    2  A    between atoms: C8_10  and  O7_13 
ROOT
HETATM    1  O7    D T 302       2.696   1.929  -7.310  1.00 12.29    -0.304 OA
ENDROOT
BRANCH   1   2
HETATM    2  C5    D T 302       3.193   2.422  -6.145  1.00 11.31     0.125 A 
HETATM    3  C6    D T 302       3.320   1.509  -5.004  1.00 10.91     0.154 A 
HETATM    4  C1    D T 302       3.820   2.011  -3.817  1.00 11.11     0.041 A 
HETATM    5  O17   D T 302       2.963   0.210  -5.136  1.00 10.71    -0.188 OA
HETATM    6  C2    D T 302       4.159   3.364  -3.740  1.00 11.31     0.060 A 
HETATM    7  C3    D T 302       4.035   4.226  -4.811  1.00 11.21     0.014 A 
HETATM    8 CL14   D T 302       4.796   4.028  -2.222  1.00 12.38    -0.082 Cl
HETATM    9  C4    D T 302       3.543   3.758  -6.025  1.00 11.12     0.028 A 
ENDBRANCH   1   2
BRANCH   1  10
HETATM   10  C8    D T 302       3.583   1.715  -8.319  1.00 13.41     0.111 A 
HETATM   11  C9    D T 302       3.666   2.698  -9.406  1.00 14.42     0.081 A 
HETATM   12  C10   D T 302       4.520   2.522 -10.465  1.00 15.02     0.025 A 
HETATM   13 CL16   D T 302       2.618   4.099  -9.335  1.00 16.61    -0.080 Cl
HETATM   14  C11   D T 302       5.309   1.392 -10.474  1.00 14.88     0.059 A 
HETATM   15  C12   D T 302       5.258   0.446  -9.468  1.00 14.38     0.013 A 
HETATM   16 CL15   D T 302       6.406   1.169 -11.850  1.00 17.32    -0.082 Cl
HETATM   17  C13   D T 302       4.406   0.599  -8.392  1.00 13.78     0.026 A 
ENDBRANCH   1  10
TORSDOF 2
ENDMDL
MODEL 9
REMARK VINA RESULT:    -6.763      1.848      5.844
REMARK INTER + INTRA:          -8.050
REMARK INTER:                  -7.502
REMARK INTRA:                  -0.549
REMARK UNBOUND:                -0.497
REMARK  2 active torsions:
REMARK  status: ('A' for Active; 'I' for Inactive)
REMARK    1  A    between atoms: C5_4  and  O7_13 
REMARK    2  A    between atoms: C8_10  and  O7_13 
ROOT
HETATM    1  O7    D T 302       4.870   1.294  -5.788  1.00 12.29    -0.304 OA
ENDROOT
BRANCH   1   2
HETATM    2  C5    D T 302       4.000   2.211  -5.288  1.00 11.31     0.125 A 
HETATM    3  C6    D T 302       4.507   3.195  -4.326  1.00 10.91     0.154 A 
HETATM    4  C1    D T 302       3.621   4.124  -3.812  1.00 11.11     0.041 A 
HETATM    5  O17   D T 302       5.814   3.184  -3.974  1.00 10.71    -0.188 OA
HETATM    6  C2    D T 302       2.282   4.076  -4.205  1.00 11.31     0.060 A 
HETATM    7  C3    D T 302       1.801   3.147  -5.106  1.00 11.21     0.014 A 
HETATM    8 CL14   D T 302       1.128   5.256  -3.550  1.00 12.38    -0.082 Cl
HETATM    9  C4    D T 302       2.662   2.200  -5.651  1.00 11.12     0.028 A 
ENDBRANCH   1   2
BRANCH   1  10
HETATM   10  C8    D T 302       5.149   1.368  -7.118  1.00 13.41     0.111 A 
HETATM   11  C9    D T 302       4.643   0.313  -8.004  1.00 14.42     0.081 A 
HETATM   12  C10   D T 302       4.917   0.318  -9.350  1.00 15.02     0.025 A 
HETATM   13 CL16   D T 302       3.700  -0.981  -7.296  1.00 16.61    -0.080 Cl
HETATM   14  C11   D T 302       5.677   1.353  -9.847  1.00 14.88     0.059 A 
HETATM   15  C12   D T 302       6.169   2.363  -9.042  1.00 14.38     0.013 A 
HETATM   16 CL15   D T 302       6.031   1.348 -11.585  1.00 17.32    -0.082 Cl
HETATM   17  C13   D T 302       5.910   2.381  -7.687  1.00 13.78     0.026 A 
ENDBRANCH   1  10
TORSDOF 2
ENDMDL
