MODEL 1
REMARK VINA RESULT:    -7.472      0.000      0.000
REMARK INTER + INTRA:         -12.866
REMARK INTER:                 -11.404
REMARK INTRA:                  -1.462
REMARK UNBOUND:                -1.462
REMARK  9 active torsions:
REMARK  status: ('A' for Active; 'I' for Inactive)
REMARK    1  A    between atoms: O02_2  and  CAX_24 
REMARK    2  A    between atoms: CAC_3  and  CAM_13 
REMARK    3  A    between atoms: CAC_3  and  NBH_34 
REMARK    4  A    between atoms: CAM_13  and  CAN_14 
REMARK    5  A    between atoms: CAN_14  and  OAW_23 
REMARK    6  A    between atoms: NAU_21  and  CBB_28 
REMARK    7  A    between atoms: NAU_21  and  CBE_31 
REMARK    8  A    between atoms: OAV_22  and  CBC_29 
REMARK    9  A    between atoms: OAW_23  and  CBD_30 
ROOT
HETATM    1  NAD   D T 601      -2.992  -2.087  -8.065  1.00 28.99    -0.191 NA
HETATM    2  CAG   D T 601      -4.045  -1.707  -7.854  1.00 27.03     0.100 C 
HETATM    3  CAH   D T 601      -6.144  -0.396  -8.586  1.00 28.35     0.163 A 
HETATM    4  CAK   D T 601      -9.677   0.151  -7.056  1.00 33.01     0.098 A 
HETATM    5  CAL   D T 601      -8.364  -1.436  -4.878  1.00 31.90     0.082 A 
HETATM    6  NAT   D T 601      -7.469   0.090  -8.368  1.00 30.45    -0.269 NA
HETATM    7  CBA   D T 601      -5.424  -1.210  -7.560  1.00 26.47     0.088 A 
HETATM    8  CBC   D T 601      -9.818  -1.082  -4.797  1.00 33.79     0.095 A 
HETATM    9  CBD   D T 601     -10.473  -0.298  -5.863  1.00 33.97     0.096 A 
HETATM   10  CBE   D T 601      -6.131  -1.526  -6.260  1.00 30.40     0.086 A 
HETATM   11  CBF   D T 601      -8.194  -0.176  -7.154  1.00 31.90     0.059 A 
HETATM   12  CBG   D T 601      -7.546  -0.984  -6.055  1.00 31.93     0.016 A 
ENDROOT
BRANCH  10  13
HETATM   13  NAU   D T 601      -5.560  -2.414  -5.250  1.00 32.72    -0.249 NA
BRANCH  13  14
HETATM   14  CBB   D T 601      -5.313  -3.797  -5.602  1.00 32.22     0.072 A 
HETATM   15  CAJ   D T 601      -6.426  -4.643  -6.143  1.00 30.11     0.098 A 
HETATM   16  CAX   D T 601      -6.144  -6.065  -6.489  1.00 35.35     0.085 A 
HETATM   17  CAY   D T 601      -4.781  -6.637  -6.299  1.00 37.92     0.059 A 
HETATM   18 CL1    D T 601      -4.483  -8.280  -6.709  1.00 48.49    -0.085 Cl
HETATM   19  CAI   D T 601      -3.680  -5.794  -5.764  1.00 37.15     0.079 A 
HETATM   20  CAZ   D T 601      -3.955  -4.376  -5.414  1.00 32.75     0.055 A 
HETATM   21 CL2    D T 601      -2.691  -3.383  -4.783  1.00 34.14    -0.085 Cl
BRANCH  16  22
HETATM   22  O02   D T 601      -7.153  -6.837  -6.984  1.00 37.60    -0.331 OA
HETATM   23  C01   D T 601      -8.048  -6.205  -7.834  1.00 39.30     0.181 C 
ENDBRANCH  16  22
ENDBRANCH  13  14
ENDBRANCH  10  13
BRANCH   8  24
HETATM   24  OAV   D T 601     -10.536  -1.504  -3.705  1.00 41.17    -0.330 OA
HETATM   25  CAA   D T 601     -10.973  -2.821  -3.714  1.00 35.24     0.181 C 
ENDBRANCH   8  24
BRANCH   9  26
HETATM   26  OAW   D T 601     -11.832   0.017  -5.757  1.00 30.65    -0.333 OA
BRANCH  26  27
HETATM   27  CAN   D T 601     -12.248   0.944  -4.793  1.00 31.03     0.150 C 
BRANCH  27  28
HETATM   28  CAM   D T 601     -11.740   2.345  -5.156  1.00 38.93     0.056 C 
BRANCH  28  29
HETATM   29  CAC   D T 601     -11.004   2.934  -3.965  1.00 41.72     0.100 C 
BRANCH  29  30
HETATM   30  NBH   D T 601     -10.024   3.954  -4.464  1.00 46.45    -0.365 N 
HETATM   31  CAP   D T 601     -10.302   5.391  -4.433  1.00 43.76     0.121 C 
HETATM   32  CAR   D T 601      -8.980   6.165  -4.590  1.00 49.42     0.121 C 
HETATM   33  NBI   D T 601      -8.338   5.772  -5.815  1.00 58.88    -0.364 N 
HETATM   34  CAO   D T 601      -7.376   6.717  -6.369  1.00 56.16     0.121 C 
HETATM   35  CAS   D T 601      -8.083   4.360  -5.826  1.00 59.74     0.121 C 
HETATM   36  CAQ   D T 601      -9.366   3.597  -5.697  1.00 48.54     0.121 C 
ENDBRANCH  29  30
ENDBRANCH  28  29
ENDBRANCH  27  28
ENDBRANCH  26  27
ENDBRANCH   9  26
TORSDOF 9
ENDMDL
MODEL 2
REMARK VINA RESULT:    -6.943      4.933     11.234
REMARK INTER + INTRA:         -12.059
REMARK INTER:                 -10.721
REMARK INTRA:                  -1.338
REMARK UNBOUND:                -1.462
REMARK  9 active torsions:
REMARK  status: ('A' for Active; 'I' for Inactive)
REMARK    1  A    between atoms: O02_2  and  CAX_24 
REMARK    2  A    between atoms: CAC_3  and  CAM_13 
REMARK    3  A    between atoms: CAC_3  and  NBH_34 
REMARK    4  A    between atoms: CAM_13  and  CAN_14 
REMARK    5  A    between atoms: CAN_14  and  OAW_23 
REMARK    6  A    between atoms: NAU_21  and  CBB_28 
REMARK    7  A    between atoms: NAU_21  and  CBE_31 
REMARK    8  A    between atoms: OAV_22  and  CBC_29 
REMARK    9  A    between atoms: OAW_23  and  CBD_30 
ROOT
HETATM    1  NAD   D T 601      -4.236  -0.386  -5.638  1.00 28.99    -0.191 NA
HETATM    2  CAG   D T 601      -4.411  -1.502  -5.785  1.00 27.03     0.100 C 
HETATM    3  CAH   D T 601      -3.754  -3.955  -5.324  1.00 28.35     0.163 A 
HETATM    4  CAK   D T 601      -5.324  -7.401  -6.209  1.00 33.01     0.098 A 
HETATM    5  CAL   D T 601      -7.190  -5.550  -7.651  1.00 31.90     0.082 A 
HETATM    6  NAT   D T 601      -3.945  -5.363  -5.471  1.00 30.45    -0.269 NA
HETATM    7  CBA   D T 601      -4.650  -2.963  -5.993  1.00 26.47     0.088 A 
HETATM    8  CBC   D T 601      -7.464  -7.022  -7.595  1.00 33.79     0.095 A 
HETATM    9  CBD   D T 601      -6.550  -7.942  -6.890  1.00 33.97     0.096 A 
HETATM   10  CBE   D T 601      -5.790  -3.477  -6.846  1.00 30.40     0.086 A 
HETATM   11  CBF   D T 601      -5.010  -5.913  -6.267  1.00 31.90     0.059 A 
HETATM   12  CBG   D T 601      -5.962  -4.990  -6.989  1.00 31.93     0.016 A 
ENDROOT
BRANCH  10  13
HETATM   13  NAU   D T 601      -6.789  -2.592  -7.439  1.00 32.72    -0.249 NA
BRANCH  13  14
HETATM   14  CBB   D T 601      -7.750  -1.947  -6.567  1.00 32.22     0.072 A 
HETATM   15  CAJ   D T 601      -8.461  -2.744  -5.515  1.00 30.11     0.098 A 
HETATM   16  CAX   D T 601      -9.450  -2.055  -4.638  1.00 35.35     0.085 A 
HETATM   17  CAY   D T 601      -9.729  -0.601  -4.805  1.00 37.92     0.059 A 
HETATM   18 CL1    D T 601     -10.872   0.170  -3.778  1.00 48.49    -0.085 Cl
HETATM   19  CAI   D T 601      -9.019   0.186  -5.848  1.00 37.15     0.079 A 
HETATM   20  CAZ   D T 601      -8.035  -0.495  -6.728  1.00 32.75     0.055 A 
HETATM   21 CL2    D T 601      -7.208   0.400  -7.950  1.00 34.14    -0.085 Cl
BRANCH  16  22
HETATM   22  O02   D T 601     -10.096  -2.776  -3.679  1.00 37.60    -0.331 OA
HETATM   23  C01   D T 601     -10.727  -3.936  -4.104  1.00 39.30     0.181 C 
ENDBRANCH  16  22
ENDBRANCH  13  14
ENDBRANCH  10  13
BRANCH   8  24
HETATM   24  OAV   D T 601      -8.590  -7.504  -8.215  1.00 41.17    -0.330 OA
HETATM   25  CAA   D T 601      -9.774  -6.818  -7.983  1.00 35.24     0.181 C 
ENDBRANCH   8  24
BRANCH   9  26
HETATM   26  OAW   D T 601      -6.834  -9.312  -6.856  1.00 30.65    -0.333 OA
BRANCH  26  27
HETATM   27  CAN   D T 601      -6.473 -10.114  -7.946  1.00 31.03     0.150 C 
BRANCH  27  28
HETATM   28  CAM   D T 601      -5.106 -10.762  -7.693  1.00 38.93     0.056 C 
BRANCH  28  29
HETATM   29  CAC   D T 601      -4.996 -12.034  -8.515  1.00 41.72     0.100 C 
BRANCH  29  30
HETATM   30  NBH   D T 601      -5.299 -13.206  -7.630  1.00 46.45    -0.365 N 
HETATM   31  CAP   D T 601      -6.601 -13.876  -7.633  1.00 43.76     0.121 C 
HETATM   32  CAR   D T 601      -6.459 -15.259  -6.972  1.00 49.42     0.121 C 
HETATM   33  NBI   D T 601      -5.943 -15.101  -5.639  1.00 58.88    -0.364 N 
HETATM   34  CAO   D T 601      -6.206 -16.198  -4.715  1.00 56.16     0.121 C 
HETATM   35  CAS   D T 601      -4.672 -14.437  -5.660  1.00 59.74     0.121 C 
HETATM   36  CAQ   D T 601      -4.804 -13.080  -6.281  1.00 48.54     0.121 C 
ENDBRANCH  29  30
ENDBRANCH  28  29
ENDBRANCH  27  28
ENDBRANCH  26  27
ENDBRANCH   9  26
TORSDOF 9
ENDMDL
MODEL 3
REMARK VINA RESULT:    -6.773      3.539      5.408
REMARK INTER + INTRA:         -11.798
REMARK INTER:                 -10.329
REMARK INTRA:                  -1.470
REMARK UNBOUND:                -1.462
REMARK  9 active torsions:
REMARK  status: ('A' for Active; 'I' for Inactive)
REMARK    1  A    between atoms: O02_2  and  CAX_24 
REMARK    2  A    between atoms: CAC_3  and  CAM_13 
REMARK    3  A    between atoms: CAC_3  and  NBH_34 
REMARK    4  A    between atoms: CAM_13  and  CAN_14 
REMARK    5  A    between atoms: CAN_14  and  OAW_23 
REMARK    6  A    between atoms: NAU_21  and  CBB_28 
REMARK    7  A    between atoms: NAU_21  and  CBE_31 
REMARK    8  A    between atoms: OAV_22  and  CBC_29 
REMARK    9  A    between atoms: OAW_23  and  CBD_30 
ROOT
HETATM    1  NAD   D T 601     -11.189  -2.911  -7.423  1.00 28.99    -0.191 NA
HETATM    2  CAG   D T 601     -11.374  -1.808  -7.207  1.00 27.03     0.100 C 
HETATM    3  CAH   D T 601     -12.721   0.358  -7.598  1.00 28.35     0.163 A 
HETATM    4  CAK   D T 601     -12.683   3.907  -6.008  1.00 33.01     0.098 A 
HETATM    5  CAL   D T 601     -10.372   2.632  -4.586  1.00 31.90     0.082 A 
HETATM    6  NAT   D T 601     -12.997   1.737  -7.347  1.00 30.45    -0.269 NA
HETATM    7  CBA   D T 601     -11.600  -0.359  -6.918  1.00 26.47     0.088 A 
HETATM    8  CBC   D T 601     -10.839   4.005  -4.210  1.00 33.79     0.095 A 
HETATM    9  CBD   D T 601     -11.974   4.643  -4.906  1.00 33.97     0.096 A 
HETATM   10  CBE   D T 601     -10.741   0.407  -5.935  1.00 30.40     0.086 A 
HETATM   11  CBF   D T 601     -12.217   2.519  -6.425  1.00 31.90     0.059 A 
HETATM   12  CBG   D T 601     -11.058   1.884  -5.695  1.00 31.93     0.016 A 
ENDROOT
BRANCH  10  13
HETATM   13  NAU   D T 601      -9.704  -0.234  -5.131  1.00 32.72    -0.249 NA
BRANCH  13  14
HETATM   14  CBB   D T 601      -8.457  -0.601  -5.772  1.00 32.22     0.072 A 
HETATM   15  CAJ   D T 601      -8.126  -0.063  -7.131  1.00 30.11     0.098 A 
HETATM   16  CAX   D T 601      -6.840  -0.465  -7.769  1.00 35.35     0.085 A 
HETATM   17  CAY   D T 601      -5.902  -1.387  -7.069  1.00 37.92     0.059 A 
HETATM   18 CL1    D T 601      -4.424  -1.832  -7.826  1.00 48.49    -0.085 Cl
HETATM   19  CAI   D T 601      -6.233  -1.917  -5.720  1.00 37.15     0.079 A 
HETATM   20  CAZ   D T 601      -7.515  -1.523  -5.080  1.00 32.75     0.055 A 
HETATM   21 CL2    D T 601      -7.922  -2.134  -3.519  1.00 34.14    -0.085 Cl
BRANCH  16  22
HETATM   22  O02   D T 601      -6.534   0.025  -9.004  1.00 37.60    -0.331 OA
HETATM   23  C01   D T 601      -7.465  -0.211 -10.004  1.00 39.30     0.181 C 
ENDBRANCH  16  22
ENDBRANCH  13  14
ENDBRANCH  10  13
BRANCH   8  24
HETATM   24  OAV   D T 601     -10.187   4.665  -3.198  1.00 41.17    -0.330 OA
HETATM   25  CAA   D T 601      -8.802   4.716  -3.273  1.00 35.24     0.181 C 
ENDBRANCH   8  24
BRANCH   9  26
HETATM   26  OAW   D T 601     -12.385   5.927  -4.531  1.00 30.65    -0.333 OA
BRANCH  26  27
HETATM   27  CAN   D T 601     -12.045   7.019  -5.339  1.00 31.03     0.150 C 
BRANCH  27  28
HETATM   28  CAM   D T 601     -10.709   6.756  -6.046  1.00 38.93     0.056 C 
BRANCH  28  29
HETATM   29  CAC   D T 601      -9.611   7.539  -5.349  1.00 41.72     0.100 C 
BRANCH  29  30
HETATM   30  NBH   D T 601      -8.300   7.207  -5.995  1.00 46.45    -0.365 N 
HETATM   31  CAP   D T 601      -7.429   8.229  -6.578  1.00 43.76     0.121 C 
HETATM   32  CAR   D T 601      -6.014   7.648  -6.753  1.00 49.42     0.121 C 
HETATM   33  NBI   D T 601      -6.080   6.471  -7.577  1.00 58.88    -0.364 N 
HETATM   34  CAO   D T 601      -4.843   6.087  -8.247  1.00 56.16     0.121 C 
HETATM   35  CAS   D T 601      -6.943   5.487  -6.991  1.00 59.74     0.121 C 
HETATM   36  CAQ   D T 601      -8.329   6.035  -6.837  1.00 48.54     0.121 C 
ENDBRANCH  29  30
ENDBRANCH  28  29
ENDBRANCH  27  28
ENDBRANCH  26  27
ENDBRANCH   9  26
TORSDOF 9
ENDMDL
MODEL 4
REMARK VINA RESULT:    -6.689      3.764      9.048
REMARK INTER + INTRA:         -11.671
REMARK INTER:                  -9.440
REMARK INTRA:                  -2.231
REMARK UNBOUND:                -1.462
REMARK  9 active torsions:
REMARK  status: ('A' for Active; 'I' for Inactive)
REMARK    1  A    between atoms: O02_2  and  CAX_24 
REMARK    2  A    between atoms: CAC_3  and  CAM_13 
REMARK    3  A    between atoms: CAC_3  and  NBH_34 
REMARK    4  A    between atoms: CAM_13  and  CAN_14 
REMARK    5  A    between atoms: CAN_14  and  OAW_23 
REMARK    6  A    between atoms: NAU_21  and  CBB_28 
REMARK    7  A    between atoms: NAU_21  and  CBE_31 
REMARK    8  A    between atoms: OAV_22  and  CBC_29 
REMARK    9  A    between atoms: OAW_23  and  CBD_30 
ROOT
HETATM    1  NAD   D T 601     -14.099   0.477  -4.520  1.00 28.99    -0.191 NA
HETATM    2  CAG   D T 601     -13.054   0.022  -4.508  1.00 27.03     0.100 C 
HETATM    3  CAH   D T 601     -11.393  -1.757  -3.649  1.00 28.35     0.163 A 
HETATM    4  CAK   D T 601      -7.716  -2.682  -4.510  1.00 33.01     0.098 A 
HETATM    5  CAL   D T 601      -8.103  -0.265  -6.239  1.00 31.90     0.082 A 
HETATM    6  NAT   D T 601     -10.103  -2.367  -3.613  1.00 30.45    -0.269 NA
HETATM    7  CBA   D T 601     -11.677  -0.561  -4.497  1.00 26.47     0.088 A 
HETATM    8  CBC   D T 601      -6.842  -1.070  -6.320  1.00 33.79     0.095 A 
HETATM    9  CBD   D T 601      -6.640  -2.260  -5.470  1.00 33.97     0.096 A 
HETATM   10  CBE   D T 601     -10.558   0.010  -5.342  1.00 30.40     0.086 A 
HETATM   11  CBF   D T 601      -8.999  -1.872  -4.391  1.00 31.90     0.059 A 
HETATM   12  CBG   D T 601      -9.186  -0.661  -5.274  1.00 31.93     0.016 A 
ENDROOT
BRANCH  10  13
HETATM   13  NAU   D T 601     -10.768   1.098  -6.293  1.00 32.72    -0.249 NA
BRANCH  13  14
HETATM   14  CBB   D T 601     -10.406   2.445  -5.899  1.00 32.22     0.072 A 
HETATM   15  CAJ   D T 601     -10.958   3.029  -4.634  1.00 30.11     0.098 A 
HETATM   16  CAX   D T 601     -10.574   4.420  -4.258  1.00 35.35     0.085 A 
HETATM   17  CAY   D T 601      -9.660   5.215  -5.125  1.00 37.92     0.059 A 
HETATM   18 CL1    D T 601      -9.231   6.816  -4.667  1.00 48.49    -0.085 Cl
HETATM   19  CAI   D T 601      -9.113   4.631  -6.378  1.00 37.15     0.079 A 
HETATM   20  CAZ   D T 601      -9.494   3.246  -6.760  1.00 32.75     0.055 A 
HETATM   21 CL2    D T 601      -8.876   2.553  -8.215  1.00 34.14    -0.085 Cl
BRANCH  16  22
HETATM   22  O02   D T 601     -11.072   4.954  -3.108  1.00 37.60    -0.331 OA
HETATM   23  C01   D T 601     -12.449   5.111  -3.050  1.00 39.30     0.181 C 
ENDBRANCH  16  22
ENDBRANCH  13  14
ENDBRANCH  10  13
BRANCH   8  24
HETATM   24  OAV   D T 601      -5.870  -0.677  -7.206  1.00 41.17    -0.330 OA
HETATM   25  CAA   D T 601      -6.264  -0.479  -8.522  1.00 35.24     0.181 C 
ENDBRANCH   8  24
BRANCH   9  26
HETATM   26  OAW   D T 601      -5.451  -2.989  -5.570  1.00 30.65    -0.333 OA
BRANCH  26  27
HETATM   27  CAN   D T 601      -5.499  -4.327  -5.980  1.00 31.03     0.150 C 
BRANCH  27  28
HETATM   28  CAM   D T 601      -6.249  -4.443  -7.313  1.00 38.93     0.056 C 
BRANCH  28  29
HETATM   29  CAC   D T 601      -7.361  -5.468  -7.175  1.00 41.72     0.100 C 
BRANCH  29  30
HETATM   30  NBH   D T 601      -8.657  -4.827  -7.573  1.00 46.45    -0.365 N 
HETATM   31  CAP   D T 601      -9.814  -5.605  -8.019  1.00 43.76     0.121 C 
HETATM   32  CAR   D T 601     -11.077  -4.729  -7.929  1.00 49.42     0.121 C 
HETATM   33  NBI   D T 601     -10.894  -3.543  -8.722  1.00 58.88    -0.364 N 
HETATM   34  CAO   D T 601     -12.110  -2.866  -9.155  1.00 56.16     0.121 C 
HETATM   35  CAS   D T 601      -9.752  -2.802  -8.272  1.00 59.74     0.121 C 
HETATM   36  CAQ   D T 601      -8.513  -3.637  -8.377  1.00 48.54     0.121 C 
ENDBRANCH  29  30
ENDBRANCH  28  29
ENDBRANCH  27  28
ENDBRANCH  26  27
ENDBRANCH   9  26
TORSDOF 9
ENDMDL
MODEL 5
REMARK VINA RESULT:    -6.415      2.053      2.859
REMARK INTER + INTRA:         -11.252
REMARK INTER:                 -10.675
REMARK INTRA:                  -0.577
REMARK UNBOUND:                -1.462
REMARK  9 active torsions:
REMARK  status: ('A' for Active; 'I' for Inactive)
REMARK    1  A    between atoms: O02_2  and  CAX_24 
REMARK    2  A    between atoms: CAC_3  and  CAM_13 
REMARK    3  A    between atoms: CAC_3  and  NBH_34 
REMARK    4  A    between atoms: CAM_13  and  CAN_14 
REMARK    5  A    between atoms: CAN_14  and  OAW_23 
REMARK    6  A    between atoms: NAU_21  and  CBB_28 
REMARK    7  A    between atoms: NAU_21  and  CBE_31 
REMARK    8  A    between atoms: OAV_22  and  CBC_29 
REMARK    9  A    between atoms: OAW_23  and  CBD_30 
ROOT
HETATM    1  NAD   D T 601      -4.506  -3.857  -7.357  1.00 28.99    -0.191 NA
HETATM    2  CAG   D T 601      -5.232  -2.992  -7.206  1.00 27.03     0.100 C 
HETATM    3  CAH   D T 601      -6.044  -0.616  -7.803  1.00 28.35     0.163 A 
HETATM    4  CAK   D T 601      -9.100   1.552  -6.765  1.00 33.01     0.098 A 
HETATM    5  CAL   D T 601      -9.513  -0.860  -5.034  1.00 31.90     0.082 A 
HETATM    6  NAT   D T 601      -6.939   0.487  -7.656  1.00 30.45    -0.269 NA
HETATM    7  CBA   D T 601      -6.189  -1.863  -6.993  1.00 26.47     0.088 A 
HETATM    8  CBC   D T 601     -10.535   0.234  -5.078  1.00 33.79     0.095 A 
HETATM    9  CBD   D T 601     -10.340   1.428  -5.924  1.00 33.97     0.096 A 
HETATM   10  CBE   D T 601      -7.323  -1.950  -5.995  1.00 30.40     0.086 A 
HETATM   11  CBF   D T 601      -8.036   0.465  -6.725  1.00 31.90     0.059 A 
HETATM   12  CBG   D T 601      -8.259  -0.749  -5.856  1.00 31.93     0.016 A 
ENDROOT
BRANCH  10  13
HETATM   13  NAU   D T 601      -7.621  -3.169  -5.247  1.00 32.72    -0.249 NA
BRANCH  13  14
HETATM   14  CBB   D T 601      -7.686  -4.426  -5.966  1.00 32.22     0.072 A 
HETATM   15  CAJ   D T 601      -6.758  -5.546  -5.603  1.00 30.11     0.098 A 
HETATM   16  CAX   D T 601      -6.843  -6.824  -6.365  1.00 35.35     0.085 A 
HETATM   17  CAY   D T 601      -7.831  -6.985  -7.469  1.00 37.92     0.059 A 
HETATM   18 CL1    D T 601      -7.910  -8.472  -8.329  1.00 48.49    -0.085 Cl
HETATM   19  CAI   D T 601      -8.751  -5.873  -7.824  1.00 37.15     0.079 A 
HETATM   20  CAZ   D T 601      -8.669  -4.594  -7.070  1.00 32.75     0.055 A 
HETATM   21 CL2    D T 601      -9.723  -3.288  -7.473  1.00 34.14    -0.085 Cl
BRANCH  16  22
HETATM   22  O02   D T 601      -6.004  -7.846  -6.036  1.00 37.60    -0.331 OA
HETATM   23  C01   D T 601      -4.681  -7.702  -6.429  1.00 39.30     0.181 C 
ENDBRANCH  16  22
ENDBRANCH  13  14
ENDBRANCH  10  13
BRANCH   8  24
HETATM   24  OAV   D T 601     -11.666   0.106  -4.310  1.00 41.17    -0.330 OA
HETATM   25  CAA   D T 601     -11.907  -1.142  -3.753  1.00 35.24     0.181 C 
ENDBRANCH   8  24
BRANCH   9  26
HETATM   26  OAW   D T 601     -11.313   2.433  -5.942  1.00 30.65    -0.333 OA
BRANCH  26  27
HETATM   27  CAN   D T 601     -11.176   3.536  -5.090  1.00 31.03     0.150 C 
BRANCH  27  28
HETATM   28  CAM   D T 601     -10.785   4.780  -5.897  1.00 38.93     0.056 C 
BRANCH  28  29
HETATM   29  CAC   D T 601      -9.726   5.558  -5.137  1.00 41.72     0.100 C 
BRANCH  29  30
HETATM   30  NBH   D T 601      -8.585   5.847  -6.065  1.00 46.45    -0.365 N 
HETATM   31  CAP   D T 601      -8.039   7.194  -6.244  1.00 43.76     0.121 C 
HETATM   32  CAR   D T 601      -6.646   7.093  -6.891  1.00 49.42     0.121 C 
HETATM   33  NBI   D T 601      -6.750   6.390  -8.142  1.00 58.88    -0.364 N 
HETATM   34  CAO   D T 601      -5.679   6.626  -9.102  1.00 56.16     0.121 C 
HETATM   35  CAS   D T 601      -7.293   5.077  -7.944  1.00 59.74     0.121 C 
HETATM   36  CAQ   D T 601      -8.659   5.165  -7.335  1.00 48.54     0.121 C 
ENDBRANCH  29  30
ENDBRANCH  28  29
ENDBRANCH  27  28
ENDBRANCH  26  27
ENDBRANCH   9  26
TORSDOF 9
ENDMDL
MODEL 6
REMARK VINA RESULT:    -6.302      2.918      4.202
REMARK INTER + INTRA:         -11.080
REMARK INTER:                  -9.765
REMARK INTRA:                  -1.314
REMARK UNBOUND:                -1.462
REMARK  9 active torsions:
REMARK  status: ('A' for Active; 'I' for Inactive)
REMARK    1  A    between atoms: O02_2  and  CAX_24 
REMARK    2  A    between atoms: CAC_3  and  CAM_13 
REMARK    3  A    between atoms: CAC_3  and  NBH_34 
REMARK    4  A    between atoms: CAM_13  and  CAN_14 
REMARK    5  A    between atoms: CAN_14  and  OAW_23 
REMARK    6  A    between atoms: NAU_21  and  CBB_28 
REMARK    7  A    between atoms: NAU_21  and  CBE_31 
REMARK    8  A    between atoms: OAV_22  and  CBC_29 
REMARK    9  A    between atoms: OAW_23  and  CBD_30 
ROOT
HETATM    1  NAD   D T 601      -5.138  -4.228  -6.990  1.00 28.99    -0.191 NA
HETATM    2  CAG   D T 601      -5.731  -3.258  -7.061  1.00 27.03     0.100 C 
HETATM    3  CAH   D T 601      -6.165  -0.972  -8.177  1.00 28.35     0.163 A 
HETATM    4  CAK   D T 601      -8.890   1.774  -7.778  1.00 33.01     0.098 A 
HETATM    5  CAL   D T 601      -9.700  -0.136  -5.615  1.00 31.90     0.082 A 
HETATM    6  NAT   D T 601      -6.890   0.252  -8.310  1.00 30.45    -0.269 NA
HETATM    7  CBA   D T 601      -6.515  -1.987  -7.138  1.00 26.47     0.088 A 
HETATM    8  CBC   D T 601     -10.547   1.057  -5.939  1.00 33.79     0.095 A 
HETATM    9  CBD   D T 601     -10.155   2.005  -7.000  1.00 33.97     0.096 A 
HETATM   10  CBE   D T 601      -7.674  -1.701  -6.207  1.00 30.40     0.086 A 
HETATM   11  CBF   D T 601      -8.000   0.582  -7.457  1.00 31.90     0.059 A 
HETATM   12  CBG   D T 601      -8.424  -0.378  -6.370  1.00 31.93     0.016 A 
ENDROOT
BRANCH  10  13
HETATM   13  NAU   D T 601      -8.168  -2.680  -5.243  1.00 32.72    -0.249 NA
BRANCH  13  14
HETATM   14  CBB   D T 601      -9.330  -3.472  -5.592  1.00 32.22     0.072 A 
HETATM   15  CAJ   D T 601      -9.315  -4.323  -6.826  1.00 30.11     0.098 A 
HETATM   16  CAX   D T 601     -10.528  -5.120  -7.164  1.00 35.35     0.085 A 
HETATM   17  CAY   D T 601     -11.735  -5.072  -6.292  1.00 37.92     0.059 A 
HETATM   18 CL1    D T 601     -13.120  -6.004  -6.703  1.00 48.49    -0.085 Cl
HETATM   19  CAI   D T 601     -11.745  -4.229  -5.067  1.00 37.15     0.079 A 
HETATM   20  CAZ   D T 601     -10.540  -3.428  -4.727  1.00 32.75     0.055 A 
HETATM   21 CL2    D T 601     -10.536  -2.436  -3.314  1.00 34.14    -0.085 Cl
BRANCH  16  22
HETATM   22  O02   D T 601     -10.517  -5.897  -8.284  1.00 37.60    -0.331 OA
HETATM   23  C01   D T 601     -10.033  -7.188  -8.130  1.00 39.30     0.181 C 
ENDBRANCH  16  22
ENDBRANCH  13  14
ENDBRANCH  10  13
BRANCH   8  24
HETATM   24  OAV   D T 601     -11.703   1.254  -5.225  1.00 41.17    -0.330 OA
HETATM   25  CAA   D T 601     -12.786   0.451  -5.553  1.00 35.24     0.181 C 
ENDBRANCH   8  24
BRANCH   9  26
HETATM   26  OAW   D T 601     -10.967   3.110  -7.277  1.00 30.65    -0.333 OA
BRANCH  26  27
HETATM   27  CAN   D T 601     -10.871   4.251  -6.472  1.00 31.03     0.150 C 
BRANCH  27  28
HETATM   28  CAM   D T 601     -10.438   5.457  -7.315  1.00 38.93     0.056 C 
BRANCH  28  29
HETATM   29  CAC   D T 601      -9.567   6.371  -6.472  1.00 41.72     0.100 C 
BRANCH  29  30
HETATM   30  NBH   D T 601      -8.203   6.439  -7.092  1.00 46.45    -0.365 N 
HETATM   31  CAP   D T 601      -7.611   5.312  -7.814  1.00 43.76     0.121 C 
HETATM   32  CAR   D T 601      -6.443   5.823  -8.679  1.00 49.42     0.121 C 
HETATM   33  NBI   D T 601      -5.480   6.483  -7.839  1.00 58.88    -0.364 N 
HETATM   34  CAO   D T 601      -4.126   6.582  -8.370  1.00 56.16     0.121 C 
HETATM   35  CAS   D T 601      -6.084   7.578  -7.136  1.00 59.74     0.121 C 
HETATM   36  CAQ   D T 601      -7.207   7.089  -6.274  1.00 48.54     0.121 C 
ENDBRANCH  29  30
ENDBRANCH  28  29
ENDBRANCH  27  28
ENDBRANCH  26  27
ENDBRANCH   9  26
TORSDOF 9
ENDMDL
MODEL 7
REMARK VINA RESULT:    -6.244      5.494     11.855
REMARK INTER + INTRA:         -10.992
REMARK INTER:                 -10.437
REMARK INTRA:                  -0.555
REMARK UNBOUND:                -1.462
REMARK  9 active torsions:
REMARK  status: ('A' for Active; 'I' for Inactive)
REMARK    1  A    between atoms: O02_2  and  CAX_24 
REMARK    2  A    between atoms: CAC_3  and  CAM_13 
REMARK    3  A    between atoms: CAC_3  and  NBH_34 
REMARK    4  A    between atoms: CAM_13  and  CAN_14 
REMARK    5  A    between atoms: CAN_14  and  OAW_23 
REMARK    6  A    between atoms: NAU_21  and  CBB_28 
REMARK    7  A    between atoms: NAU_21  and  CBE_31 
REMARK    8  A    between atoms: OAV_22  and  CBC_29 
REMARK    9  A    between atoms: OAW_23  and  CBD_30 
ROOT
HETATM    1  NAD   D T 601      -4.895  -1.601  -4.510  1.00 28.99    -0.191 NA
HETATM    2  CAG   D T 601      -4.810  -2.664  -4.912  1.00 27.03     0.100 C 
HETATM    3  CAH   D T 601      -3.385  -4.739  -5.482  1.00 28.35     0.163 A 
HETATM    4  CAK   D T 601      -4.193  -8.333  -6.726  1.00 33.01     0.098 A 
HETATM    5  CAL   D T 601      -6.926  -7.102  -6.761  1.00 31.90     0.082 A 
HETATM    6  NAT   D T 601      -3.235  -6.074  -5.965  1.00 30.45    -0.269 NA
HETATM    7  CBA   D T 601      -4.714  -4.056  -5.448  1.00 26.47     0.088 A 
HETATM    8  CBC   D T 601      -6.740  -8.559  -7.054  1.00 33.79     0.095 A 
HETATM    9  CBD   D T 601      -5.398  -9.174  -7.042  1.00 33.97     0.096 A 
HETATM   10  CBE   D T 601      -5.929  -4.814  -5.938  1.00 30.40     0.086 A 
HETATM   11  CBF   D T 601      -4.351  -6.845  -6.445  1.00 31.90     0.059 A 
HETATM   12  CBG   D T 601      -5.733  -6.239  -6.457  1.00 31.93     0.016 A 
ENDROOT
BRANCH  10  13
HETATM   13  NAU   D T 601      -7.284  -4.280  -5.830  1.00 32.72    -0.249 NA
BRANCH  13  14
HETATM   14  CBB   D T 601      -7.520  -2.901  -6.211  1.00 32.22     0.072 A 
HETATM   15  CAJ   D T 601      -7.119  -2.421  -7.573  1.00 30.11     0.098 A 
HETATM   16  CAX   D T 601      -7.367  -0.996  -7.933  1.00 35.35     0.085 A 
HETATM   17  CAY   D T 601      -7.999  -0.065  -6.956  1.00 37.92     0.059 A 
HETATM   18 CL1    D T 601      -8.276   1.573  -7.399  1.00 48.49    -0.085 Cl
HETATM   19  CAI   D T 601      -8.397  -0.547  -5.607  1.00 37.15     0.079 A 
HETATM   20  CAZ   D T 601      -8.150  -1.965  -5.240  1.00 32.75     0.055 A 
HETATM   21 CL2    D T 601      -8.597  -2.541  -3.676  1.00 34.14    -0.085 Cl
BRANCH  16  22
HETATM   22  O02   D T 601      -7.006  -0.556  -9.171  1.00 37.60    -0.331 OA
HETATM   23  C01   D T 601      -7.990  -0.602 -10.149  1.00 39.30     0.181 C 
ENDBRANCH  16  22
ENDBRANCH  13  14
ENDBRANCH  10  13
BRANCH   8  24
HETATM   24  OAV   D T 601      -7.848  -9.318  -7.336  1.00 41.17    -0.330 OA
HETATM   25  CAA   D T 601      -8.388 -10.051  -6.288  1.00 35.24     0.181 C 
ENDBRANCH   8  24
BRANCH   9  26
HETATM   26  OAW   D T 601      -5.258 -10.538  -7.321  1.00 30.65    -0.333 OA
BRANCH  26  27
HETATM   27  CAN   D T 601      -4.835 -10.938  -8.595  1.00 31.03     0.150 C 
BRANCH  27  28
HETATM   28  CAM   D T 601      -5.254 -12.390  -8.858  1.00 38.93     0.056 C 
BRANCH  28  29
HETATM   29  CAC   D T 601      -6.614 -12.640  -8.232  1.00 41.72     0.100 C 
BRANCH  29  30
HETATM   30  NBH   D T 601      -6.490 -13.763  -7.248  1.00 46.45    -0.365 N 
HETATM   31  CAP   D T 601      -5.204 -14.176  -6.684  1.00 43.76     0.121 C 
HETATM   32  CAR   D T 601      -5.452 -15.021  -5.421  1.00 49.42     0.121 C 
HETATM   33  NBI   D T 601      -6.274 -16.152  -5.757  1.00 58.88    -0.364 N 
HETATM   34  CAO   D T 601      -6.202 -17.291  -4.850  1.00 56.16     0.121 C 
HETATM   35  CAS   D T 601      -7.525 -15.725  -6.314  1.00 59.74     0.121 C 
HETATM   36  CAQ   D T 601      -7.295 -14.920  -7.556  1.00 48.54     0.121 C 
ENDBRANCH  29  30
ENDBRANCH  28  29
ENDBRANCH  27  28
ENDBRANCH  26  27
ENDBRANCH   9  26
TORSDOF 9
ENDMDL
MODEL 8
REMARK VINA RESULT:    -6.232      4.629     10.090
REMARK INTER + INTRA:         -10.973
REMARK INTER:                  -9.392
REMARK INTRA:                  -1.582
REMARK UNBOUND:                -1.462
REMARK  9 active torsions:
REMARK  status: ('A' for Active; 'I' for Inactive)
REMARK    1  A    between atoms: O02_2  and  CAX_24 
REMARK    2  A    between atoms: CAC_3  and  CAM_13 
REMARK    3  A    between atoms: CAC_3  and  NBH_34 
REMARK    4  A    between atoms: CAM_13  and  CAN_14 
REMARK    5  A    between atoms: CAN_14  and  OAW_23 
REMARK    6  A    between atoms: NAU_21  and  CBB_28 
REMARK    7  A    between atoms: NAU_21  and  CBE_31 
REMARK    8  A    between atoms: OAV_22  and  CBC_29 
REMARK    9  A    between atoms: OAW_23  and  CBD_30 
ROOT
HETATM    1  NAD   D T 601      -4.314  -0.646  -5.841  1.00 28.99    -0.191 NA
HETATM    2  CAG   D T 601      -4.524  -1.758  -5.973  1.00 27.03     0.100 C 
HETATM    3  CAH   D T 601      -3.923  -4.224  -5.509  1.00 28.35     0.163 A 
HETATM    4  CAK   D T 601      -5.612  -7.632  -6.317  1.00 33.01     0.098 A 
HETATM    5  CAL   D T 601      -7.466  -5.742  -7.722  1.00 31.90     0.082 A 
HETATM    6  NAT   D T 601      -4.157  -5.627  -5.637  1.00 30.45    -0.269 NA
HETATM    7  CBA   D T 601      -4.809  -3.214  -6.161  1.00 26.47     0.088 A 
HETATM    8  CBC   D T 601      -7.779  -7.205  -7.645  1.00 33.79     0.095 A 
HETATM    9  CBD   D T 601      -6.871  -8.145  -6.958  1.00 33.97     0.096 A 
HETATM   10  CBE   D T 601      -5.987  -3.702  -6.976  1.00 30.40     0.086 A 
HETATM   11  CBF   D T 601      -5.258  -6.154  -6.398  1.00 31.90     0.059 A 
HETATM   12  CBG   D T 601      -6.205  -5.211  -7.101  1.00 31.93     0.016 A 
ENDROOT
BRANCH  10  13
HETATM   13  NAU   D T 601      -6.978  -2.794  -7.548  1.00 32.72    -0.249 NA
BRANCH  13  14
HETATM   14  CBB   D T 601      -7.910  -2.133  -6.658  1.00 32.22     0.072 A 
HETATM   15  CAJ   D T 601      -8.634  -2.924  -5.610  1.00 30.11     0.098 A 
HETATM   16  CAX   D T 601      -9.593  -2.218  -4.713  1.00 35.35     0.085 A 
HETATM   17  CAY   D T 601      -9.830  -0.754  -4.857  1.00 37.92     0.059 A 
HETATM   18 CL1    D T 601     -10.939   0.036  -3.807  1.00 48.49    -0.085 Cl
HETATM   19  CAI   D T 601      -9.108   0.026  -5.896  1.00 37.15     0.079 A 
HETATM   20  CAZ   D T 601      -8.153  -0.671  -6.796  1.00 32.75     0.055 A 
HETATM   21 CL2    D T 601      -7.311   0.216  -8.014  1.00 34.14    -0.085 Cl
BRANCH  16  22
HETATM   22  O02   D T 601     -10.252  -2.933  -3.758  1.00 37.60    -0.331 OA
HETATM   23  C01   D T 601     -10.887  -4.089  -4.186  1.00 39.30     0.181 C 
ENDBRANCH  16  22
ENDBRANCH  13  14
ENDBRANCH  10  13
BRANCH   8  24
HETATM   24  OAV   D T 601      -8.936  -7.660  -8.229  1.00 41.17    -0.330 OA
HETATM   25  CAA   D T 601     -10.103  -6.973  -7.926  1.00 35.24     0.181 C 
ENDBRANCH   8  24
BRANCH   9  26
HETATM   26  OAW   D T 601      -7.192  -9.505  -6.904  1.00 30.65    -0.333 OA
BRANCH  26  27
HETATM   27  CAN   D T 601      -7.437 -10.103  -5.662  1.00 31.03     0.150 C 
BRANCH  27  28
HETATM   28  CAM   D T 601      -8.590 -11.108  -5.779  1.00 38.93     0.056 C 
BRANCH  28  29
HETATM   29  CAC   D T 601      -9.142 -11.075  -7.192  1.00 41.72     0.100 C 
BRANCH  29  30
HETATM   30  NBH   D T 601     -10.624 -11.294  -7.134  1.00 46.45    -0.365 N 
HETATM   31  CAP   D T 601     -11.384 -11.834  -8.263  1.00 43.76     0.121 C 
HETATM   32  CAR   D T 601     -12.749 -12.339  -7.759  1.00 49.42     0.121 C 
HETATM   33  NBI   D T 601     -13.448 -11.261  -7.113  1.00 58.88    -0.364 N 
HETATM   34  CAO   D T 601     -14.897 -11.396  -7.025  1.00 56.16     0.121 C 
HETATM   35  CAS   D T 601     -12.683 -10.742  -6.016  1.00 59.74     0.121 C 
HETATM   36  CAQ   D T 601     -11.362 -10.228  -6.499  1.00 48.54     0.121 C 
ENDBRANCH  29  30
ENDBRANCH  28  29
ENDBRANCH  27  28
ENDBRANCH  26  27
ENDBRANCH   9  26
TORSDOF 9
ENDMDL
MODEL 9
REMARK VINA RESULT:    -6.143      2.411      3.568
REMARK INTER + INTRA:         -10.837
REMARK INTER:                 -10.673
REMARK INTRA:                  -0.165
REMARK UNBOUND:                -1.462
REMARK  9 active torsions:
REMARK  status: ('A' for Active; 'I' for Inactive)
REMARK    1  A    between atoms: O02_2  and  CAX_24 
REMARK    2  A    between atoms: CAC_3  and  CAM_13 
REMARK    3  A    between atoms: CAC_3  and  NBH_34 
REMARK    4  A    between atoms: CAM_13  and  CAN_14 
REMARK    5  A    between atoms: CAN_14  and  OAW_23 
REMARK    6  A    between atoms: NAU_21  and  CBB_28 
REMARK    7  A    between atoms: NAU_21  and  CBE_31 
REMARK    8  A    between atoms: OAV_22  and  CBC_29 
REMARK    9  A    between atoms: OAW_23  and  CBD_30 
ROOT
HETATM    1  NAD   D T 601      -3.644  -6.351  -6.334  1.00 28.99    -0.191 NA
HETATM    2  CAG   D T 601      -4.167  -5.339  -6.360  1.00 27.03     0.100 C 
HETATM    3  CAH   D T 601      -4.190  -2.843  -7.016  1.00 28.35     0.163 A 
HETATM    4  CAK   D T 601      -6.848  -0.010  -6.840  1.00 33.01     0.098 A 
HETATM    5  CAL   D T 601      -8.323  -2.246  -5.494  1.00 31.90     0.082 A 
HETATM    6  NAT   D T 601      -4.813  -1.560  -7.082  1.00 30.45    -0.269 NA
HETATM    7  CBA   D T 601      -4.862  -4.015  -6.380  1.00 26.47     0.088 A 
HETATM    8  CBC   D T 601      -9.004  -0.942  -5.780  1.00 33.79     0.095 A 
HETATM    9  CBD   D T 601      -8.285   0.166  -6.439  1.00 33.97     0.096 A 
HETATM   10  CBE   D T 601      -6.245  -3.827  -5.794  1.00 30.40     0.086 A 
HETATM   11  CBF   D T 601      -6.124  -1.316  -6.543  1.00 31.90     0.059 A 
HETATM   12  CBG   D T 601      -6.881  -2.438  -5.873  1.00 31.93     0.016 A 
ENDROOT
BRANCH  10  13
HETATM   13  NAU   D T 601      -7.032  -4.936  -5.262  1.00 32.72    -0.249 NA
BRANCH  13  14
HETATM   14  CBB   D T 601      -7.291  -6.076  -6.118  1.00 32.22     0.072 A 
HETATM   15  CAJ   D T 601      -6.823  -7.441  -5.712  1.00 30.11     0.098 A 
HETATM   16  CAX   D T 601      -7.097  -8.593  -6.616  1.00 35.35     0.085 A 
HETATM   17  CAY   D T 601      -7.822  -8.393  -7.902  1.00 37.92     0.059 A 
HETATM   18 CL1    D T 601      -8.128  -9.740  -8.925  1.00 48.49    -0.085 Cl
HETATM   19  CAI   D T 601      -8.287  -7.038  -8.300  1.00 37.15     0.079 A 
HETATM   20  CAZ   D T 601      -8.014  -5.884  -7.405  1.00 32.75     0.055 A 
HETATM   21 CL2    D T 601      -8.539  -4.302  -7.854  1.00 34.14    -0.085 Cl
BRANCH  16  22
HETATM   22  O02   D T 601      -6.675  -9.836  -6.249  1.00 37.60    -0.331 OA
HETATM   23  C01   D T 601      -7.591 -10.615  -5.557  1.00 39.30     0.181 C 
ENDBRANCH  16  22
ENDBRANCH  13  14
ENDBRANCH  10  13
BRANCH   8  24
HETATM   24  OAV   D T 601     -10.319  -0.796  -5.414  1.00 41.17    -0.330 OA
HETATM   25  CAA   D T 601     -10.564  -0.274  -4.152  1.00 35.24     0.181 C 
ENDBRANCH   8  24
BRANCH   9  26
HETATM   26  OAW   D T 601      -8.950   1.371  -6.691  1.00 30.65    -0.333 OA
BRANCH  26  27
HETATM   27  CAN   D T 601      -8.264   2.412  -7.329  1.00 31.03     0.150 C 
BRANCH  27  28
HETATM   28  CAM   D T 601      -7.996   3.551  -6.337  1.00 38.93     0.056 C 
BRANCH  28  29
HETATM   29  CAC   D T 601      -7.867   4.858  -7.099  1.00 41.72     0.100 C 
BRANCH  29  30
HETATM   30  NBH   D T 601      -8.858   5.837  -6.545  1.00 46.45    -0.365 N 
HETATM   31  CAP   D T 601      -8.552   6.706  -5.408  1.00 43.76     0.121 C 
HETATM   32  CAR   D T 601      -9.570   7.861  -5.366  1.00 49.42     0.121 C 
HETATM   33  NBI   D T 601     -10.901   7.323  -5.283  1.00 58.88    -0.364 N 
HETATM   34  CAO   D T 601     -11.922   8.214  -4.745  1.00 56.16     0.121 C 
HETATM   35  CAS   D T 601     -11.175   6.470  -6.403  1.00 59.74     0.121 C 
HETATM   36  CAQ   D T 601     -10.205   5.330  -6.440  1.00 48.54     0.121 C 
ENDBRANCH  29  30
ENDBRANCH  28  29
ENDBRANCH  27  28
ENDBRANCH  26  27
ENDBRANCH   9  26
TORSDOF 9
ENDMDL
