MODEL 1
REMARK VINA RESULT:    -7.446      0.000      0.000
REMARK INTER + INTRA:         -13.311
REMARK INTER:                 -11.364
REMARK INTRA:                  -1.947
REMARK UNBOUND:                -1.947
REMARK  9 active torsions:
REMARK  status: ('A' for Active; 'I' for Inactive)
REMARK    1  A    between atoms: O02_2  and  CAX_24 
REMARK    2  A    between atoms: CAC_3  and  CAM_13 
REMARK    3  A    between atoms: CAC_3  and  NBH_34 
REMARK    4  A    between atoms: CAM_13  and  CAN_14 
REMARK    5  A    between atoms: CAN_14  and  OAW_23 
REMARK    6  A    between atoms: NAU_21  and  CBB_28 
REMARK    7  A    between atoms: NAU_21  and  CBE_31 
REMARK    8  A    between atoms: OAV_22  and  CBC_29 
REMARK    9  A    between atoms: OAW_23  and  CBD_30 
ROOT
HETATM    1  NAD   D T 601       1.839  19.537  -2.251  1.00 28.99    -0.191 NA
HETATM    2  CAG   D T 601       2.564  19.045  -2.980  1.00 27.03     0.100 C 
HETATM    3  CAH   D T 601       3.444  18.707  -5.383  1.00 28.35     0.163 A 
HETATM    4  CAK   D T 601       6.445  16.779  -6.933  1.00 33.01     0.098 A 
HETATM    5  CAL   D T 601       6.706  15.997  -4.051  1.00 31.90     0.082 A 
HETATM    6  NAT   D T 601       4.339  18.122  -6.329  1.00 30.45    -0.269 NA
HETATM    7  CBA   D T 601       3.516  18.386  -3.925  1.00 26.47     0.088 A 
HETATM    8  CBC   D T 601       7.741  15.586  -5.052  1.00 33.79     0.095 A 
HETATM    9  CBD   D T 601       7.620  15.964  -6.475  1.00 33.97     0.096 A 
HETATM   10  CBE   D T 601       4.577  17.415  -3.450  1.00 30.40     0.086 A 
HETATM   11  CBF   D T 601       5.367  17.194  -5.940  1.00 31.90     0.059 A 
HETATM   12  CBG   D T 601       5.514  16.801  -4.490  1.00 31.93     0.016 A 
ENDROOT
BRANCH  10  13
HETATM   13  NAU   D T 601       4.806  17.133  -2.036  1.00 32.72    -0.249 NA
BRANCH  13  14
HETATM   14  CBB   D T 601       4.365  15.860  -1.500  1.00 32.22     0.072 A 
HETATM   15  CAJ   D T 601       2.967  15.384  -1.754  1.00 30.11     0.098 A 
HETATM   16  CAX   D T 601       2.539  14.076  -1.183  1.00 35.35     0.085 A 
HETATM   17  CAY   D T 601       3.483  13.258  -0.372  1.00 37.92     0.059 A 
HETATM   18 CL1    D T 601       2.964  11.750   0.273  1.00 48.49    -0.085 Cl
HETATM   19  CAI   D T 601       4.870  13.732  -0.123  1.00 37.15     0.079 A 
HETATM   20  CAZ   D T 601       5.302  15.037  -0.687  1.00 32.75     0.055 A 
HETATM   21 CL2    D T 601       6.905  15.610  -0.402  1.00 34.14    -0.085 Cl
BRANCH  16  22
HETATM   22  O02   D T 601       1.269  13.638  -1.415  1.00 37.60    -0.331 OA
HETATM   23  C01   D T 601       0.332  13.927  -0.435  1.00 39.30     0.181 C 
ENDBRANCH  16  22
ENDBRANCH  13  14
ENDBRANCH  10  13
BRANCH   8  24
HETATM   24  OAV   D T 601       8.814  14.845  -4.620  1.00 41.17    -0.330 OA
HETATM   25  CAA   D T 601       9.777  15.512  -3.876  1.00 35.24     0.181 C 
ENDBRANCH   8  24
BRANCH   9  26
HETATM   26  OAW   D T 601       8.604  15.563  -7.384  1.00 30.65    -0.333 OA
BRANCH  26  27
HETATM   27  CAN   D T 601       9.205  16.521  -8.211  1.00 31.03     0.150 C 
BRANCH  27  28
HETATM   28  CAM   D T 601      10.732  16.424  -8.106  1.00 38.93     0.056 C 
BRANCH  28  29
HETATM   29  CAC   D T 601      11.198  17.165  -6.865  1.00 41.72     0.100 C 
BRANCH  29  30
HETATM   30  NBH   D T 601      10.398  18.426  -6.732  1.00 46.45    -0.365 N 
HETATM   31  CAP   D T 601      10.820  19.692  -7.332  1.00 43.76     0.121 C 
HETATM   32  CAR   D T 601       9.617  20.650  -7.394  1.00 49.42     0.121 C 
HETATM   33  NBI   D T 601       9.089  20.839  -6.071  1.00 58.88    -0.364 N 
HETATM   34  CAO   D T 601       8.305  22.051  -5.859  1.00 56.16     0.121 C 
HETATM   35  CAS   D T 601       8.687  19.586  -5.499  1.00 59.74     0.121 C 
HETATM   36  CAQ   D T 601       9.857  18.655  -5.412  1.00 48.54     0.121 C 
ENDBRANCH  29  30
ENDBRANCH  28  29
ENDBRANCH  27  28
ENDBRANCH  26  27
ENDBRANCH   9  26
TORSDOF 9
ENDMDL
MODEL 2
REMARK VINA RESULT:    -7.232      6.024      9.929
REMARK INTER + INTRA:         -12.983
REMARK INTER:                 -11.618
REMARK INTRA:                  -1.365
REMARK UNBOUND:                -1.947
REMARK  9 active torsions:
REMARK  status: ('A' for Active; 'I' for Inactive)
REMARK    1  A    between atoms: O02_2  and  CAX_24 
REMARK    2  A    between atoms: CAC_3  and  CAM_13 
REMARK    3  A    between atoms: CAC_3  and  NBH_34 
REMARK    4  A    between atoms: CAM_13  and  CAN_14 
REMARK    5  A    between atoms: CAN_14  and  OAW_23 
REMARK    6  A    between atoms: NAU_21  and  CBB_28 
REMARK    7  A    between atoms: NAU_21  and  CBE_31 
REMARK    8  A    between atoms: OAV_22  and  CBC_29 
REMARK    9  A    between atoms: OAW_23  and  CBD_30 
ROOT
HETATM    1  NAD   D T 601      -1.101  13.251  -1.062  1.00 28.99    -0.191 NA
HETATM    2  CAG   D T 601      -0.181  13.125  -0.403  1.00 27.03     0.100 C 
HETATM    3  CAH   D T 601       0.879  12.756   1.922  1.00 28.35     0.163 A 
HETATM    4  CAK   D T 601       4.507  12.172   3.194  1.00 33.01     0.098 A 
HETATM    5  CAL   D T 601       5.004  12.622   0.273  1.00 31.90     0.082 A 
HETATM    6  NAT   D T 601       2.004  12.582   2.784  1.00 30.45    -0.269 NA
HETATM    7  CBA   D T 601       1.036  12.968   0.451  1.00 26.47     0.088 A 
HETATM    8  CBC   D T 601       6.123  12.225   1.187  1.00 33.79     0.095 A 
HETATM    9  CBD   D T 601       5.888  12.003   2.629  1.00 33.97     0.096 A 
HETATM   10  CBE   D T 601       2.435  12.992  -0.130  1.00 30.40     0.086 A 
HETATM   11  CBF   D T 601       3.355  12.595   2.292  1.00 31.90     0.059 A 
HETATM   12  CBG   D T 601       3.617  12.811   0.821  1.00 31.93     0.016 A 
ENDROOT
BRANCH  10  13
HETATM   13  NAU   D T 601       2.686  13.070  -1.567  1.00 32.72    -0.249 NA
BRANCH  13  14
HETATM   14  CBB   D T 601       3.182  14.314  -2.120  1.00 32.22     0.072 A 
HETATM   15  CAJ   D T 601       2.465  15.599  -1.837  1.00 30.11     0.098 A 
HETATM   16  CAX   D T 601       2.993  16.861  -2.426  1.00 35.35     0.085 A 
HETATM   17  CAY   D T 601       4.210  16.846  -3.283  1.00 37.92     0.059 A 
HETATM   18 CL1    D T 601       4.801  18.318  -3.949  1.00 48.49    -0.085 Cl
HETATM   19  CAI   D T 601       4.921  15.570  -3.562  1.00 37.15     0.079 A 
HETATM   20  CAZ   D T 601       4.398  14.307  -2.979  1.00 32.75     0.055 A 
HETATM   21 CL2    D T 601       5.202  12.814  -3.298  1.00 34.14    -0.085 Cl
BRANCH  16  22
HETATM   22  O02   D T 601       2.346  18.033  -2.167  1.00 37.60    -0.331 OA
HETATM   23  C01   D T 601       2.747  18.718  -1.029  1.00 39.30     0.181 C 
ENDBRANCH  16  22
ENDBRANCH  13  14
ENDBRANCH  10  13
BRANCH   8  24
HETATM   24  OAV   D T 601       7.379  12.068   0.657  1.00 41.17    -0.330 OA
HETATM   25  CAA   D T 601       8.262  13.127   0.816  1.00 35.24     0.181 C 
ENDBRANCH   8  24
BRANCH   9  26
HETATM   26  OAW   D T 601       6.954  11.634   3.455  1.00 30.65    -0.333 OA
BRANCH  26  27
HETATM   27  CAN   D T 601       7.085  10.295   3.847  1.00 31.03     0.150 C 
BRANCH  27  28
HETATM   28  CAM   D T 601       8.567   9.904   3.898  1.00 38.93     0.056 C 
BRANCH  28  29
HETATM   29  CAC   D T 601       9.417  11.162   3.918  1.00 41.72     0.100 C 
BRANCH  29  30
HETATM   30  NBH   D T 601      10.652  10.894   4.724  1.00 46.45    -0.365 N 
HETATM   31  CAP   D T 601      11.980  11.342   4.302  1.00 43.76     0.121 C 
HETATM   32  CAR   D T 601      12.935  11.307   5.509  1.00 49.42     0.121 C 
HETATM   33  NBI   D T 601      12.971   9.975   6.050  1.00 58.88    -0.364 N 
HETATM   34  CAO   D T 601      14.147   9.634   6.841  1.00 56.16     0.121 C 
HETATM   35  CAS   D T 601      11.659   9.553   6.451  1.00 59.74     0.121 C 
HETATM   36  CAQ   D T 601      10.728   9.562   5.278  1.00 48.54     0.121 C 
ENDBRANCH  29  30
ENDBRANCH  28  29
ENDBRANCH  27  28
ENDBRANCH  26  27
ENDBRANCH   9  26
TORSDOF 9
ENDMDL
MODEL 3
REMARK VINA RESULT:    -7.122      1.797      2.644
REMARK INTER + INTRA:         -12.816
REMARK INTER:                 -10.983
REMARK INTRA:                  -1.833
REMARK UNBOUND:                -1.947
REMARK  9 active torsions:
REMARK  status: ('A' for Active; 'I' for Inactive)
REMARK    1  A    between atoms: O02_2  and  CAX_24 
REMARK    2  A    between atoms: CAC_3  and  CAM_13 
REMARK    3  A    between atoms: CAC_3  and  NBH_34 
REMARK    4  A    between atoms: CAM_13  and  CAN_14 
REMARK    5  A    between atoms: CAN_14  and  OAW_23 
REMARK    6  A    between atoms: NAU_21  and  CBB_28 
REMARK    7  A    between atoms: NAU_21  and  CBE_31 
REMARK    8  A    between atoms: OAV_22  and  CBC_29 
REMARK    9  A    between atoms: OAW_23  and  CBD_30 
ROOT
HETATM    1  NAD   D T 601       1.821  19.577  -1.944  1.00 28.99    -0.191 NA
HETATM    2  CAG   D T 601       2.497  19.130  -2.744  1.00 27.03     0.100 C 
HETATM    3  CAH   D T 601       3.188  18.895  -5.220  1.00 28.35     0.163 A 
HETATM    4  CAK   D T 601       6.106  17.109  -7.070  1.00 33.01     0.098 A 
HETATM    5  CAL   D T 601       6.622  16.245  -4.247  1.00 31.90     0.082 A 
HETATM    6  NAT   D T 601       4.020  18.367  -6.254  1.00 30.45    -0.269 NA
HETATM    7  CBA   D T 601       3.388  18.531  -3.784  1.00 26.47     0.088 A 
HETATM    8  CBC   D T 601       7.584  15.897  -5.340  1.00 33.79     0.095 A 
HETATM    9  CBD   D T 601       7.337  16.316  -6.736  1.00 33.97     0.096 A 
HETATM   10  CBE   D T 601       4.510  17.578  -3.429  1.00 30.40     0.086 A 
HETATM   11  CBF   D T 601       5.101  17.460  -5.981  1.00 31.90     0.059 A 
HETATM   12  CBG   D T 601       5.376  17.026  -4.561  1.00 31.93     0.016 A 
ENDROOT
BRANCH  10  13
HETATM   13  NAU   D T 601       4.862  17.259  -2.048  1.00 32.72    -0.249 NA
BRANCH  13  14
HETATM   14  CBB   D T 601       4.495  15.961  -1.519  1.00 32.22     0.072 A 
HETATM   15  CAJ   D T 601       3.134  15.397  -1.794  1.00 30.11     0.098 A 
HETATM   16  CAX   D T 601       2.782  14.064  -1.230  1.00 35.35     0.085 A 
HETATM   17  CAY   D T 601       3.763  13.306  -0.406  1.00 37.92     0.059 A 
HETATM   18 CL1    D T 601       3.332  11.767   0.231  1.00 48.49    -0.085 Cl
HETATM   19  CAI   D T 601       5.113  13.867  -0.136  1.00 37.15     0.079 A 
HETATM   20  CAZ   D T 601       5.471  15.198  -0.693  1.00 32.75     0.055 A 
HETATM   21 CL2    D T 601       7.029  15.871  -0.384  1.00 34.14    -0.085 Cl
BRANCH  16  22
HETATM   22  O02   D T 601       1.545  13.546  -1.481  1.00 37.60    -0.331 OA
HETATM   23  C01   D T 601       0.511  14.014  -0.684  1.00 39.30     0.181 C 
ENDBRANCH  16  22
ENDBRANCH  13  14
ENDBRANCH  10  13
BRANCH   8  24
HETATM   24  OAV   D T 601       8.708  15.177  -5.021  1.00 41.17    -0.330 OA
HETATM   25  CAA   D T 601       9.203  15.326  -3.734  1.00 35.24     0.181 C 
ENDBRANCH   8  24
BRANCH   9  26
HETATM   26  OAW   D T 601       8.255  15.973  -7.734  1.00 30.65    -0.333 OA
BRANCH  26  27
HETATM   27  CAN   D T 601       8.907  16.990  -8.443  1.00 31.03     0.150 C 
BRANCH  27  28
HETATM   28  CAM   D T 601      10.302  17.233  -7.852  1.00 38.93     0.056 C 
BRANCH  28  29
HETATM   29  CAC   D T 601      11.072  15.925  -7.833  1.00 41.72     0.100 C 
BRANCH  29  30
HETATM   30  NBH   D T 601      11.949  15.903  -6.617  1.00 46.45    -0.365 N 
HETATM   31  CAP   D T 601      12.173  14.689  -5.830  1.00 43.76     0.121 C 
HETATM   32  CAR   D T 601      13.420  14.880  -4.948  1.00 49.42     0.121 C 
HETATM   33  NBI   D T 601      13.240  16.032  -4.108  1.00 58.88    -0.364 N 
HETATM   34  CAO   D T 601      14.054  16.080  -2.899  1.00 56.16     0.121 C 
HETATM   35  CAS   D T 601      13.016  17.208  -4.899  1.00 59.74     0.121 C 
HETATM   36  CAQ   D T 601      11.790  17.042  -5.744  1.00 48.54     0.121 C 
ENDBRANCH  29  30
ENDBRANCH  28  29
ENDBRANCH  27  28
ENDBRANCH  26  27
ENDBRANCH   9  26
TORSDOF 9
ENDMDL
MODEL 4
REMARK VINA RESULT:    -7.090      3.685      5.750
REMARK INTER + INTRA:         -12.768
REMARK INTER:                 -11.616
REMARK INTRA:                  -1.152
REMARK UNBOUND:                -1.947
REMARK  9 active torsions:
REMARK  status: ('A' for Active; 'I' for Inactive)
REMARK    1  A    between atoms: O02_2  and  CAX_24 
REMARK    2  A    between atoms: CAC_3  and  CAM_13 
REMARK    3  A    between atoms: CAC_3  and  NBH_34 
REMARK    4  A    between atoms: CAM_13  and  CAN_14 
REMARK    5  A    between atoms: CAN_14  and  OAW_23 
REMARK    6  A    between atoms: NAU_21  and  CBB_28 
REMARK    7  A    between atoms: NAU_21  and  CBE_31 
REMARK    8  A    between atoms: OAV_22  and  CBC_29 
REMARK    9  A    between atoms: OAW_23  and  CBD_30 
ROOT
HETATM    1  NAD   D T 601       2.507  11.717   0.762  1.00 28.99    -0.191 NA
HETATM    2  CAG   D T 601       3.324  12.212   0.141  1.00 27.03     0.100 C 
HETATM    3  CAH   D T 601       4.312  12.867  -2.152  1.00 28.35     0.163 A 
HETATM    4  CAK   D T 601       7.365  14.991  -3.290  1.00 33.01     0.098 A 
HETATM    5  CAL   D T 601       7.730  15.037  -0.315  1.00 31.90     0.082 A 
HETATM    6  NAT   D T 601       5.307  13.486  -2.968  1.00 30.45    -0.269 NA
HETATM    7  CBA   D T 601       4.407  12.859  -0.660  1.00 26.47     0.088 A 
HETATM    8  CBC   D T 601       8.620  15.846  -1.207  1.00 33.79     0.095 A 
HETATM    9  CBD   D T 601       8.451  15.828  -2.675  1.00 33.97     0.096 A 
HETATM   10  CBE   D T 601       5.595  13.536  -0.008  1.00 30.40     0.086 A 
HETATM   11  CBF   D T 601       6.458  14.143  -2.408  1.00 31.90     0.059 A 
HETATM   12  CBG   D T 601       6.646  14.182  -0.911  1.00 31.93     0.016 A 
ENDROOT
BRANCH  10  13
HETATM   13  NAU   D T 601       5.714  13.688   1.439  1.00 32.72    -0.249 NA
BRANCH  13  14
HETATM   14  CBB   D T 601       6.552  12.758   2.170  1.00 32.22     0.072 A 
HETATM   15  CAJ   D T 601       8.033  12.743   1.941  1.00 30.11     0.098 A 
HETATM   16  CAX   D T 601       8.867  11.771   2.701  1.00 35.35     0.085 A 
HETATM   17  CAY   D T 601       8.241  10.828   3.668  1.00 37.92     0.059 A 
HETATM   18 CL1    D T 601       9.228   9.716   4.534  1.00 48.49    -0.085 Cl
HETATM   19  CAI   D T 601       6.771  10.845   3.895  1.00 37.15     0.079 A 
HETATM   20  CAZ   D T 601       5.932  11.811   3.138  1.00 32.75     0.055 A 
HETATM   21 CL2    D T 601       4.224  11.842   3.380  1.00 34.14    -0.085 Cl
BRANCH  16  22
HETATM   22  O02   D T 601      10.215  11.757   2.498  1.00 37.60    -0.331 OA
HETATM   23  C01   D T 601      10.677  10.906   1.504  1.00 39.30     0.181 C 
ENDBRANCH  16  22
ENDBRANCH  13  14
ENDBRANCH  10  13
BRANCH   8  24
HETATM   24  OAV   D T 601       9.605  16.610  -0.633  1.00 41.17    -0.330 OA
HETATM   25  CAA   D T 601      10.758  15.949  -0.233  1.00 35.24     0.181 C 
ENDBRANCH   8  24
BRANCH   9  26
HETATM   26  OAW   D T 601       9.300  16.593  -3.479  1.00 30.65    -0.333 OA
BRANCH  26  27
HETATM   27  CAN   D T 601       9.840  16.025  -4.641  1.00 31.03     0.150 C 
BRANCH  27  28
HETATM   28  CAM   D T 601       9.545  16.920  -5.851  1.00 38.93     0.056 C 
BRANCH  28  29
HETATM   29  CAC   D T 601       8.486  16.259  -6.717  1.00 41.72     0.100 C 
BRANCH  29  30
HETATM   30  NBH   D T 601       7.219  17.055  -6.615  1.00 46.45    -0.365 N 
HETATM   31  CAP   D T 601       7.105  18.248  -5.775  1.00 43.76     0.121 C 
HETATM   32  CAR   D T 601       5.873  19.060  -6.215  1.00 49.42     0.121 C 
HETATM   33  NBI   D T 601       4.701  18.234  -6.126  1.00 58.88    -0.364 N 
HETATM   34  CAO   D T 601       3.427  18.936  -6.017  1.00 56.16     0.121 C 
HETATM   35  CAS   D T 601       4.836  17.068  -6.951  1.00 59.74     0.121 C 
HETATM   36  CAQ   D T 601       6.019  16.258  -6.517  1.00 48.54     0.121 C 
ENDBRANCH  29  30
ENDBRANCH  28  29
ENDBRANCH  27  28
ENDBRANCH  26  27
ENDBRANCH   9  26
TORSDOF 9
ENDMDL
MODEL 5
REMARK VINA RESULT:    -6.994      3.076      8.982
REMARK INTER + INTRA:         -12.621
REMARK INTER:                 -11.452
REMARK INTRA:                  -1.169
REMARK UNBOUND:                -1.947
REMARK  9 active torsions:
REMARK  status: ('A' for Active; 'I' for Inactive)
REMARK    1  A    between atoms: O02_2  and  CAX_24 
REMARK    2  A    between atoms: CAC_3  and  CAM_13 
REMARK    3  A    between atoms: CAC_3  and  NBH_34 
REMARK    4  A    between atoms: CAM_13  and  CAN_14 
REMARK    5  A    between atoms: CAN_14  and  OAW_23 
REMARK    6  A    between atoms: NAU_21  and  CBB_28 
REMARK    7  A    between atoms: NAU_21  and  CBE_31 
REMARK    8  A    between atoms: OAV_22  and  CBC_29 
REMARK    9  A    between atoms: OAW_23  and  CBD_30 
ROOT
HETATM    1  NAD   D T 601       7.758  19.619  -7.664  1.00 28.99    -0.191 NA
HETATM    2  CAG   D T 601       7.359  18.998  -6.796  1.00 27.03     0.100 C 
HETATM    3  CAH   D T 601       5.434  17.702  -5.665  1.00 28.35     0.163 A 
HETATM    4  CAK   D T 601       5.149  15.498  -2.474  1.00 33.01     0.098 A 
HETATM    5  CAL   D T 601       7.992  16.421  -2.262  1.00 31.90     0.082 A 
HETATM    6  NAT   D T 601       4.897  16.912  -4.604  1.00 30.45    -0.269 NA
HETATM    7  CBA   D T 601       6.848  18.190  -5.648  1.00 26.47     0.088 A 
HETATM    8  CBC   D T 601       7.440  15.421  -1.295  1.00 33.79     0.095 A 
HETATM    9  CBD   D T 601       6.038  14.961  -1.389  1.00 33.97     0.096 A 
HETATM   10  CBE   D T 601       7.725  17.823  -4.469  1.00 30.40     0.086 A 
HETATM   11  CBF   D T 601       5.679  16.531  -3.459  1.00 31.90     0.059 A 
HETATM   12  CBG   D T 601       7.115  16.982  -3.347  1.00 31.93     0.016 A 
ENDROOT
BRANCH  10  13
HETATM   13  NAU   D T 601       9.148  18.146  -4.419  1.00 32.72    -0.249 NA
BRANCH  13  14
HETATM   14  CBB   D T 601      10.088  17.251  -5.065  1.00 32.22     0.072 A 
HETATM   15  CAJ   D T 601       9.893  16.870  -6.502  1.00 30.11     0.098 A 
HETATM   16  CAX   D T 601      10.870  15.942  -7.137  1.00 35.35     0.085 A 
HETATM   17  CAY   D T 601      12.018  15.401  -6.358  1.00 37.92     0.059 A 
HETATM   18 CL1    D T 601      13.133  14.333  -7.117  1.00 48.49    -0.085 Cl
HETATM   19  CAI   D T 601      12.210  15.782  -4.934  1.00 37.15     0.079 A 
HETATM   20  CAZ   D T 601      11.237  16.705  -4.293  1.00 32.75     0.055 A 
HETATM   21 CL2    D T 601      11.436  17.153  -2.638  1.00 34.14    -0.085 Cl
BRANCH  16  22
HETATM   22  O02   D T 601      10.698  15.596  -8.444  1.00 37.60    -0.331 OA
HETATM   23  C01   D T 601       9.423  15.768  -8.962  1.00 39.30     0.181 C 
ENDBRANCH  16  22
ENDBRANCH  13  14
ENDBRANCH  10  13
BRANCH   8  24
HETATM   24  OAV   D T 601       8.264  14.934  -0.311  1.00 41.17    -0.330 OA
HETATM   25  CAA   D T 601       9.545  15.464  -0.249  1.00 35.24     0.181 C 
ENDBRANCH   8  24
BRANCH   9  26
HETATM   26  OAW   D T 601       5.553  14.027  -0.468  1.00 30.65    -0.333 OA
BRANCH  26  27
HETATM   27  CAN   D T 601       5.359  12.701  -0.876  1.00 31.03     0.150 C 
BRANCH  27  28
HETATM   28  CAM   D T 601       4.017  12.179  -0.349  1.00 38.93     0.056 C 
BRANCH  28  29
HETATM   29  CAC   D T 601       3.551  13.060   0.796  1.00 41.72     0.100 C 
BRANCH  29  30
HETATM   30  NBH   D T 601       2.072  13.272   0.667  1.00 46.45    -0.365 N 
HETATM   31  CAP   D T 601       1.129  12.901   1.723  1.00 43.76     0.121 C 
HETATM   32  CAR   D T 601      -0.208  13.625   1.485  1.00 49.42     0.121 C 
HETATM   33  NBI   D T 601      -0.710  13.284   0.182  1.00 58.88    -0.364 N 
HETATM   34  CAO   D T 601      -2.144  13.455  -0.020  1.00 56.16     0.121 C 
HETATM   35  CAS   D T 601       0.231  13.650  -0.837  1.00 59.74     0.121 C 
HETATM   36  CAQ   D T 601       1.530  12.933  -0.628  1.00 48.54     0.121 C 
ENDBRANCH  29  30
ENDBRANCH  28  29
ENDBRANCH  27  28
ENDBRANCH  26  27
ENDBRANCH   9  26
TORSDOF 9
ENDMDL
MODEL 6
REMARK VINA RESULT:    -6.985      3.368      5.204
REMARK INTER + INTRA:         -12.607
REMARK INTER:                 -11.880
REMARK INTRA:                  -0.726
REMARK UNBOUND:                -1.947
REMARK  9 active torsions:
REMARK  status: ('A' for Active; 'I' for Inactive)
REMARK    1  A    between atoms: O02_2  and  CAX_24 
REMARK    2  A    between atoms: CAC_3  and  CAM_13 
REMARK    3  A    between atoms: CAC_3  and  NBH_34 
REMARK    4  A    between atoms: CAM_13  and  CAN_14 
REMARK    5  A    between atoms: CAN_14  and  OAW_23 
REMARK    6  A    between atoms: NAU_21  and  CBB_28 
REMARK    7  A    between atoms: NAU_21  and  CBE_31 
REMARK    8  A    between atoms: OAV_22  and  CBC_29 
REMARK    9  A    between atoms: OAW_23  and  CBD_30 
ROOT
HETATM    1  NAD   D T 601       2.213  12.183   2.298  1.00 28.99    -0.191 NA
HETATM    2  CAG   D T 601       2.689  12.584   1.344  1.00 27.03     0.100 C 
HETATM    3  CAH   D T 601       2.629  12.945  -1.211  1.00 28.35     0.163 A 
HETATM    4  CAK   D T 601       4.885  14.854  -3.740  1.00 33.01     0.098 A 
HETATM    5  CAL   D T 601       6.438  15.237  -1.205  1.00 31.90     0.082 A 
HETATM    6  NAT   D T 601       3.184  13.443  -2.429  1.00 30.45    -0.269 NA
HETATM    7  CBA   D T 601       3.329  13.109   0.100  1.00 26.47     0.088 A 
HETATM    8  CBC   D T 601       6.861  15.917  -2.471  1.00 33.79     0.095 A 
HETATM    9  CBD   D T 601       6.104  15.732  -3.726  1.00 33.97     0.096 A 
HETATM   10  CBE   D T 601       4.661  13.830   0.123  1.00 30.40     0.086 A 
HETATM   11  CBF   D T 601       4.444  14.135  -2.472  1.00 31.90     0.059 A 
HETATM   12  CBG   D T 601       5.230  14.343  -1.200  1.00 31.93     0.016 A 
ENDROOT
BRANCH  10  13
HETATM   13  NAU   D T 601       5.360  14.147   1.365  1.00 32.72    -0.249 NA
BRANCH  13  14
HETATM   14  CBB   D T 601       6.182  13.124   1.982  1.00 32.22     0.072 A 
HETATM   15  CAJ   D T 601       5.546  12.054   2.816  1.00 30.11     0.098 A 
HETATM   16  CAX   D T 601       6.416  11.021   3.444  1.00 35.35     0.085 A 
HETATM   17  CAY   D T 601       7.892  11.053   3.249  1.00 37.92     0.059 A 
HETATM   18 CL1    D T 601       8.874   9.847   3.983  1.00 48.49    -0.085 Cl
HETATM   19  CAI   D T 601       8.520  12.116   2.420  1.00 37.15     0.079 A 
HETATM   20  CAZ   D T 601       7.658  13.151   1.792  1.00 32.75     0.055 A 
HETATM   21 CL2    D T 601       8.367  14.398   0.834  1.00 34.14    -0.085 Cl
BRANCH  16  22
HETATM   22  O02   D T 601       5.841  10.043   4.200  1.00 37.60    -0.331 OA
HETATM   23  C01   D T 601       4.456   9.977   4.168  1.00 39.30     0.181 C 
ENDBRANCH  16  22
ENDBRANCH  13  14
ENDBRANCH  10  13
BRANCH   8  24
HETATM   24  OAV   D T 601       7.973  16.721  -2.444  1.00 41.17    -0.330 OA
HETATM   25  CAA   D T 601       9.200  16.098  -2.618  1.00 35.24     0.181 C 
ENDBRANCH   8  24
BRANCH   9  26
HETATM   26  OAW   D T 601       6.526  16.381  -4.891  1.00 30.65    -0.333 OA
BRANCH  26  27
HETATM   27  CAN   D T 601       5.890  17.565  -5.285  1.00 31.03     0.150 C 
BRANCH  27  28
HETATM   28  CAM   D T 601       6.767  18.325  -6.288  1.00 38.93     0.056 C 
BRANCH  28  29
HETATM   29  CAC   D T 601       6.952  17.478  -7.534  1.00 41.72     0.100 C 
BRANCH  29  30
HETATM   30  NBH   D T 601       8.419  17.256  -7.749  1.00 46.45    -0.365 N 
HETATM   31  CAP   D T 601       9.018  15.920  -7.773  1.00 43.76     0.121 C 
HETATM   32  CAR   D T 601      10.407  16.000  -8.432  1.00 49.42     0.121 C 
HETATM   33  NBI   D T 601      11.225  16.935  -7.710  1.00 58.88    -0.364 N 
HETATM   34  CAO   D T 601      12.667  16.779  -7.862  1.00 56.16     0.121 C 
HETATM   35  CAS   D T 601      10.617  18.235  -7.694  1.00 59.74     0.121 C 
HETATM   36  CAQ   D T 601       9.274  18.173  -7.033  1.00 48.54     0.121 C 
ENDBRANCH  29  30
ENDBRANCH  28  29
ENDBRANCH  27  28
ENDBRANCH  26  27
ENDBRANCH   9  26
TORSDOF 9
ENDMDL
MODEL 7
REMARK VINA RESULT:    -6.978      3.647      6.147
REMARK INTER + INTRA:         -12.596
REMARK INTER:                 -11.756
REMARK INTRA:                  -0.840
REMARK UNBOUND:                -1.947
REMARK  9 active torsions:
REMARK  status: ('A' for Active; 'I' for Inactive)
REMARK    1  A    between atoms: O02_2  and  CAX_24 
REMARK    2  A    between atoms: CAC_3  and  CAM_13 
REMARK    3  A    between atoms: CAC_3  and  NBH_34 
REMARK    4  A    between atoms: CAM_13  and  CAN_14 
REMARK    5  A    between atoms: CAN_14  and  OAW_23 
REMARK    6  A    between atoms: NAU_21  and  CBB_28 
REMARK    7  A    between atoms: NAU_21  and  CBE_31 
REMARK    8  A    between atoms: OAV_22  and  CBC_29 
REMARK    9  A    between atoms: OAW_23  and  CBD_30 
ROOT
HETATM    1  NAD   D T 601       1.961  10.788   2.636  1.00 28.99    -0.191 NA
HETATM    2  CAG   D T 601       2.367  11.445   1.799  1.00 27.03     0.100 C 
HETATM    3  CAH   D T 601       2.198  12.380  -0.601  1.00 28.35     0.163 A 
HETATM    4  CAK   D T 601       4.185  15.038  -2.629  1.00 33.01     0.098 A 
HETATM    5  CAL   D T 601       5.768  14.978  -0.085  1.00 31.90     0.082 A 
HETATM    6  NAT   D T 601       2.666  13.199  -1.673  1.00 30.45    -0.269 NA
HETATM    7  CBA   D T 601       2.917  12.305   0.707  1.00 26.47     0.088 A 
HETATM    8  CBC   D T 601       6.086  15.971  -1.159  1.00 33.79     0.095 A 
HETATM    9  CBD   D T 601       5.314  16.007  -2.418  1.00 33.97     0.096 A 
HETATM   10  CBE   D T 601       4.174  13.131   0.890  1.00 30.40     0.086 A 
HETATM   11  CBF   D T 601       3.852  14.005  -1.561  1.00 31.90     0.059 A 
HETATM   12  CBG   D T 601       4.652  13.990  -0.280  1.00 31.93     0.016 A 
ENDROOT
BRANCH  10  13
HETATM   13  NAU   D T 601       4.875  13.220   2.168  1.00 32.72    -0.249 NA
BRANCH  13  14
HETATM   14  CBB   D T 601       6.064  12.415   2.366  1.00 32.22     0.072 A 
HETATM   15  CAJ   D T 601       7.305  12.703   1.577  1.00 30.11     0.098 A 
HETATM   16  CAX   D T 601       8.509  11.854   1.796  1.00 35.35     0.085 A 
HETATM   17  CAY   D T 601       8.479  10.736   2.780  1.00 37.92     0.059 A 
HETATM   18 CL1    D T 601       9.884   9.773   3.016  1.00 48.49    -0.085 Cl
HETATM   19  CAI   D T 601       7.248  10.453   3.563  1.00 37.15     0.079 A 
HETATM   20  CAZ   D T 601       6.042  11.295   3.348  1.00 32.75     0.055 A 
HETATM   21 CL2    D T 601       4.599  10.978   4.239  1.00 34.14    -0.085 Cl
BRANCH  16  22
HETATM   22  O02   D T 601       9.641  12.115   1.083  1.00 37.60    -0.331 OA
HETATM   23  C01   D T 601      10.100  13.424   1.117  1.00 39.30     0.181 C 
ENDBRANCH  16  22
ENDBRANCH  13  14
ENDBRANCH  10  13
BRANCH   8  24
HETATM   24  OAV   D T 601       7.116  16.854  -0.953  1.00 41.17    -0.330 OA
HETATM   25  CAA   D T 601       8.401  16.382  -1.181  1.00 35.24     0.181 C 
ENDBRANCH   8  24
BRANCH   9  26
HETATM   26  OAW   D T 601       5.637  16.946  -3.403  1.00 30.65    -0.333 OA
BRANCH  26  27
HETATM   27  CAN   D T 601       4.611  17.523  -4.163  1.00 31.03     0.150 C 
BRANCH  27  28
HETATM   28  CAM   D T 601       5.048  17.649  -5.628  1.00 38.93     0.056 C 
BRANCH  28  29
HETATM   29  CAC   D T 601       5.605  16.318  -6.100  1.00 41.72     0.100 C 
BRANCH  29  30
HETATM   30  NBH   D T 601       6.956  16.552  -6.707  1.00 46.45    -0.365 N 
HETATM   31  CAP   D T 601       8.015  15.541  -6.685  1.00 43.76     0.121 C 
HETATM   32  CAR   D T 601       9.080  15.900  -7.736  1.00 49.42     0.121 C 
HETATM   33  NBI   D T 601       9.595  17.214  -7.464  1.00 58.88    -0.364 N 
HETATM   34  CAO   D T 601      10.911  17.516  -8.016  1.00 56.16     0.121 C 
HETATM   35  CAS   D T 601       8.541  18.188  -7.485  1.00 59.74     0.121 C 
HETATM   36  CAQ   D T 601       7.510  17.860  -6.449  1.00 48.54     0.121 C 
ENDBRANCH  29  30
ENDBRANCH  28  29
ENDBRANCH  27  28
ENDBRANCH  26  27
ENDBRANCH   9  26
TORSDOF 9
ENDMDL
MODEL 8
REMARK VINA RESULT:    -6.912      7.623     11.343
REMARK INTER + INTRA:         -12.495
REMARK INTER:                 -11.153
REMARK INTRA:                  -1.342
REMARK UNBOUND:                -1.947
REMARK  9 active torsions:
REMARK  status: ('A' for Active; 'I' for Inactive)
REMARK    1  A    between atoms: O02_2  and  CAX_24 
REMARK    2  A    between atoms: CAC_3  and  CAM_13 
REMARK    3  A    between atoms: CAC_3  and  NBH_34 
REMARK    4  A    between atoms: CAM_13  and  CAN_14 
REMARK    5  A    between atoms: CAN_14  and  OAW_23 
REMARK    6  A    between atoms: NAU_21  and  CBB_28 
REMARK    7  A    between atoms: NAU_21  and  CBE_31 
REMARK    8  A    between atoms: OAV_22  and  CBC_29 
REMARK    9  A    between atoms: OAW_23  and  CBD_30 
ROOT
HETATM    1  NAD   D T 601       2.256  12.852  -0.557  1.00 28.99    -0.191 NA
HETATM    2  CAG   D T 601       3.125  12.611   0.139  1.00 27.03     0.100 C 
HETATM    3  CAH   D T 601       4.030  12.103   2.503  1.00 28.35     0.163 A 
HETATM    4  CAK   D T 601       7.502  11.075   3.920  1.00 33.01     0.098 A 
HETATM    5  CAL   D T 601       8.177  11.480   1.028  1.00 31.90     0.082 A 
HETATM    6  NAT   D T 601       5.088  11.788   3.409  1.00 30.45    -0.269 NA
HETATM    7  CBA   D T 601       4.275  12.303   1.042  1.00 26.47     0.088 A 
HETATM    8  CBC   D T 601       9.198  10.944   1.983  1.00 33.79     0.095 A 
HETATM    9  CBD   D T 601       8.877  10.744   3.412  1.00 33.97     0.096 A 
HETATM   10  CBE   D T 601       5.690  12.160   0.520  1.00 30.40     0.086 A 
HETATM   11  CBF   D T 601       6.451  11.640   2.975  1.00 31.90     0.059 A 
HETATM   12  CBG   D T 601       6.800  11.831   1.519  1.00 31.93     0.016 A 
ENDROOT
BRANCH  10  13
HETATM   13  NAU   D T 601       6.011  12.216  -0.903  1.00 32.72    -0.249 NA
BRANCH  13  14
HETATM   14  CBB   D T 601       6.152  13.513  -1.535  1.00 32.22     0.072 A 
HETATM   15  CAJ   D T 601       7.086  14.532  -0.956  1.00 30.11     0.098 A 
HETATM   16  CAX   D T 601       7.203  15.859  -1.622  1.00 35.35     0.085 A 
HETATM   17  CAY   D T 601       6.404  16.169  -2.840  1.00 37.92     0.059 A 
HETATM   18 CL1    D T 601       6.560  17.708  -3.591  1.00 48.49    -0.085 Cl
HETATM   19  CAI   D T 601       5.479  15.156  -3.413  1.00 37.15     0.079 A 
HETATM   20  CAZ   D T 601       5.355  13.830  -2.752  1.00 32.75     0.055 A 
HETATM   21 CL2    D T 601       4.281  12.643  -3.396  1.00 34.14    -0.085 Cl
BRANCH  16  22
HETATM   22  O02   D T 601       8.054  16.787  -1.100  1.00 37.60    -0.331 OA
HETATM   23  C01   D T 601       9.405  16.582  -1.336  1.00 39.30     0.181 C 
ENDBRANCH  16  22
ENDBRANCH  13  14
ENDBRANCH  10  13
BRANCH   8  24
HETATM   24  OAV   D T 601      10.448  10.639   1.505  1.00 41.17    -0.330 OA
HETATM   25  CAA   D T 601      11.456  11.560   1.756  1.00 35.24     0.181 C 
ENDBRANCH   8  24
BRANCH   9  26
HETATM   26  OAW   D T 601       9.854  10.243   4.278  1.00 30.65    -0.333 OA
BRANCH  26  27
HETATM   27  CAN   D T 601       9.507   9.244   5.197  1.00 31.03     0.150 C 
BRANCH  27  28
HETATM   28  CAM   D T 601      10.523   9.211   6.346  1.00 38.93     0.056 C 
BRANCH  28  29
HETATM   29  CAC   D T 601      11.760   9.994   5.944  1.00 41.72     0.100 C 
BRANCH  29  30
HETATM   30  NBH   D T 601      12.891   9.031   5.740  1.00 46.45    -0.365 N 
HETATM   31  CAP   D T 601      12.837   7.952   4.753  1.00 43.76     0.121 C 
HETATM   32  CAR   D T 601      14.263   7.439   4.484  1.00 49.42     0.121 C 
HETATM   33  NBI   D T 601      14.854   7.001   5.719  1.00 58.88    -0.364 N 
HETATM   34  CAO   D T 601      15.958   6.055   5.603  1.00 56.16     0.121 C 
HETATM   35  CAS   D T 601      14.891   8.071   6.673  1.00 59.74     0.121 C 
HETATM   36  CAQ   D T 601      13.505   8.562   6.960  1.00 48.54     0.121 C 
ENDBRANCH  29  30
ENDBRANCH  28  29
ENDBRANCH  27  28
ENDBRANCH  26  27
ENDBRANCH   9  26
TORSDOF 9
ENDMDL
MODEL 9
REMARK VINA RESULT:    -6.783      3.955      6.170
REMARK INTER + INTRA:         -12.299
REMARK INTER:                 -11.503
REMARK INTRA:                  -0.795
REMARK UNBOUND:                -1.947
REMARK  9 active torsions:
REMARK  status: ('A' for Active; 'I' for Inactive)
REMARK    1  A    between atoms: O02_2  and  CAX_24 
REMARK    2  A    between atoms: CAC_3  and  CAM_13 
REMARK    3  A    between atoms: CAC_3  and  NBH_34 
REMARK    4  A    between atoms: CAM_13  and  CAN_14 
REMARK    5  A    between atoms: CAN_14  and  OAW_23 
REMARK    6  A    between atoms: NAU_21  and  CBB_28 
REMARK    7  A    between atoms: NAU_21  and  CBE_31 
REMARK    8  A    between atoms: OAV_22  and  CBC_29 
REMARK    9  A    between atoms: OAW_23  and  CBD_30 
ROOT
HETATM    1  NAD   D T 601       4.111  11.258   3.617  1.00 28.99    -0.191 NA
HETATM    2  CAG   D T 601       4.135  11.783   2.607  1.00 27.03     0.100 C 
HETATM    3  CAH   D T 601       3.092  12.239   0.290  1.00 28.35     0.163 A 
HETATM    4  CAK   D T 601       3.935  14.647  -2.645  1.00 33.01     0.098 A 
HETATM    5  CAL   D T 601       6.223  15.202  -0.791  1.00 31.90     0.082 A 
HETATM    6  NAT   D T 601       3.077  12.885  -0.983  1.00 30.45    -0.269 NA
HETATM    7  CBA   D T 601       4.185  12.473   1.282  1.00 26.47     0.088 A 
HETATM    8  CBC   D T 601       6.042  16.004  -2.042  1.00 33.79     0.095 A 
HETATM    9  CBD   D T 601       4.919  15.736  -2.965  1.00 33.97     0.096 A 
HETATM   10  CBE   D T 601       5.301  13.430   0.915  1.00 30.40     0.086 A 
HETATM   11  CBF   D T 601       4.107  13.803  -1.389  1.00 31.90     0.059 A 
HETATM   12  CBG   D T 601       5.259  14.098  -0.459  1.00 31.93     0.016 A 
ENDROOT
BRANCH  10  13
HETATM   13  NAU   D T 601       6.345  13.817   1.860  1.00 32.72    -0.249 NA
BRANCH  13  14
HETATM   14  CBB   D T 601       7.537  12.997   1.955  1.00 32.22     0.072 A 
HETATM   15  CAJ   D T 601       7.523  11.747   2.781  1.00 30.11     0.098 A 
HETATM   16  CAX   D T 601       8.765  10.929   2.866  1.00 35.35     0.085 A 
HETATM   17  CAY   D T 601       9.999  11.348   2.147  1.00 37.92     0.059 A 
HETATM   18 CL1    D T 601      11.419  10.384   2.260  1.00 48.49    -0.085 Cl
HETATM   19  CAI   D T 601      10.010  12.588   1.326  1.00 37.15     0.079 A 
HETATM   20  CAZ   D T 601       8.775  13.410   1.239  1.00 32.75     0.055 A 
HETATM   21 CL2    D T 601       8.769  14.858   0.300  1.00 34.14    -0.085 Cl
BRANCH  16  22
HETATM   22  O02   D T 601       8.755   9.789   3.614  1.00 37.60    -0.331 OA
HETATM   23  C01   D T 601       9.133   9.923   4.942  1.00 39.30     0.181 C 
ENDBRANCH  16  22
ENDBRANCH  13  14
ENDBRANCH  10  13
BRANCH   8  24
HETATM   24  OAV   D T 601       6.944  17.001  -2.321  1.00 41.17    -0.330 OA
HETATM   25  CAA   D T 601       8.174  16.608  -2.829  1.00 35.24     0.181 C 
ENDBRANCH   8  24
BRANCH   9  26
HETATM   26  OAW   D T 601       4.778  16.503  -4.126  1.00 30.65    -0.333 OA
BRANCH  26  27
HETATM   27  CAN   D T 601       5.412  16.085  -5.303  1.00 31.03     0.150 C 
BRANCH  27  28
HETATM   28  CAM   D T 601       5.079  17.046  -6.451  1.00 38.93     0.056 C 
BRANCH  28  29
HETATM   29  CAC   D T 601       5.919  18.303  -6.312  1.00 41.72     0.100 C 
BRANCH  29  30
HETATM   30  NBH   D T 601       7.349  17.958  -6.600  1.00 46.45    -0.365 N 
HETATM   31  CAP   D T 601       8.470  18.670  -5.984  1.00 43.76     0.121 C 
HETATM   32  CAR   D T 601       9.748  17.825  -6.129  1.00 49.42     0.121 C 
HETATM   33  NBI   D T 601       9.989  17.559  -7.521  1.00 58.88    -0.364 N 
HETATM   34  CAO   D T 601      11.361  17.223  -7.883  1.00 56.16     0.121 C 
HETATM   35  CAS   D T 601       8.877  16.867  -8.107  1.00 59.74     0.121 C 
HETATM   36  CAQ   D T 601       7.631  17.692  -7.991  1.00 48.54     0.121 C 
ENDBRANCH  29  30
ENDBRANCH  28  29
ENDBRANCH  27  28
ENDBRANCH  26  27
ENDBRANCH   9  26
TORSDOF 9
ENDMDL
