MODEL 1
REMARK VINA RESULT:    -6.261      0.000      0.000
REMARK INTER + INTRA:         -11.415
REMARK INTER:                  -9.555
REMARK INTRA:                  -1.860
REMARK UNBOUND:                -1.860
REMARK  9 active torsions:
REMARK  status: ('A' for Active; 'I' for Inactive)
REMARK    1  A    between atoms: O02_2  and  CAX_24 
REMARK    2  A    between atoms: CAC_3  and  CAM_13 
REMARK    3  A    between atoms: CAC_3  and  NBH_34 
REMARK    4  A    between atoms: CAM_13  and  CAN_14 
REMARK    5  A    between atoms: CAN_14  and  OAW_23 
REMARK    6  A    between atoms: NAU_21  and  CBB_28 
REMARK    7  A    between atoms: NAU_21  and  CBE_31 
REMARK    8  A    between atoms: OAV_22  and  CBC_29 
REMARK    9  A    between atoms: OAW_23  and  CBD_30 
ROOT
HETATM    1  NAD   D T 601      -0.560   7.753 -16.656  1.00 28.99    -0.191 NA
HETATM    2  CAG   D T 601       0.322   8.307 -16.193  1.00 27.03     0.100 C 
HETATM    3  CAH   D T 601       2.614   8.280 -15.006  1.00 28.35     0.163 A 
HETATM    4  CAK   D T 601       5.168  11.020 -13.965  1.00 33.01     0.098 A 
HETATM    5  CAL   D T 601       2.943  12.712 -15.046  1.00 31.90     0.082 A 
HETATM    6  NAT   D T 601       3.744   8.932 -14.428  1.00 30.45    -0.269 NA
HETATM    7  CBA   D T 601       1.469   9.047 -15.584  1.00 26.47     0.088 A 
HETATM    8  CBC   D T 601       4.239  13.332 -14.623  1.00 33.79     0.095 A 
HETATM    9  CBD   D T 601       5.341  12.508 -14.087  1.00 33.97     0.096 A 
HETATM   10  CBE   D T 601       1.523  10.560 -15.554  1.00 30.40     0.086 A 
HETATM   11  CBF   D T 601       3.855  10.365 -14.369  1.00 31.90     0.059 A 
HETATM   12  CBG   D T 601       2.744  11.227 -14.920  1.00 31.93     0.016 A 
ENDROOT
BRANCH  10  13
HETATM   13  NAU   D T 601       0.515  11.395 -16.200  1.00 32.72    -0.249 NA
BRANCH  13  14
HETATM   14  CBB   D T 601       0.687  11.737 -17.598  1.00 32.22     0.072 A 
HETATM   15  CAJ   D T 601       0.880  10.653 -18.615  1.00 30.11     0.098 A 
HETATM   16  CAX   D T 601       1.062  11.034 -20.044  1.00 35.35     0.085 A 
HETATM   17  CAY   D T 601       1.056  12.466 -20.454  1.00 37.92     0.059 A 
HETATM   18 CL1    D T 601       1.266  12.878 -22.110  1.00 48.49    -0.085 Cl
HETATM   19  CAI   D T 601       0.863  13.538 -19.442  1.00 37.15     0.079 A 
HETATM   20  CAZ   D T 601       0.683  13.165 -18.015  1.00 32.75     0.055 A 
HETATM   21 CL2    D T 601       0.466  14.395 -16.823  1.00 34.14    -0.085 Cl
BRANCH  16  22
HETATM   22  O02   D T 601       1.234  10.051 -20.974  1.00 37.60    -0.331 OA
HETATM   23  C01   D T 601       0.890   8.768 -20.578  1.00 39.30     0.181 C 
ENDBRANCH  16  22
ENDBRANCH  13  14
ENDBRANCH  10  13
BRANCH   8  24
HETATM   24  OAV   D T 601       4.385  14.692 -14.744  1.00 41.17    -0.330 OA
HETATM   25  CAA   D T 601       3.783  15.476 -13.771  1.00 35.24     0.181 C 
ENDBRANCH   8  24
BRANCH   9  26
HETATM   26  OAW   D T 601       6.538  13.118 -13.700  1.00 30.65    -0.333 OA
BRANCH  26  27
HETATM   27  CAN   D T 601       6.950  13.033 -12.363  1.00 31.03     0.150 C 
BRANCH  27  28
HETATM   28  CAM   D T 601       5.759  13.269 -11.428  1.00 38.93     0.056 C 
BRANCH  28  29
HETATM   29  CAC   D T 601       5.600  12.073 -10.506  1.00 41.72     0.100 C 
BRANCH  29  30
HETATM   30  NBH   D T 601       4.161  11.652 -10.508  1.00 46.45    -0.365 N 
HETATM   31  CAP   D T 601       3.106  12.462 -11.119  1.00 43.76     0.121 C 
HETATM   32  CAR   D T 601       1.860  11.585 -11.343  1.00 49.42     0.121 C 
HETATM   33  NBI   D T 601       1.442  11.023 -10.087  1.00 58.88    -0.364 N 
HETATM   34  CAO   D T 601       0.048  10.596 -10.008  1.00 56.16     0.121 C 
HETATM   35  CAS   D T 601       2.492  10.240  -9.502  1.00 59.74     0.121 C 
HETATM   36  CAQ   D T 601       3.701  11.090  -9.261  1.00 48.54     0.121 C 
ENDBRANCH  29  30
ENDBRANCH  28  29
ENDBRANCH  27  28
ENDBRANCH  26  27
ENDBRANCH   9  26
TORSDOF 9
ENDMDL
MODEL 2
REMARK VINA RESULT:    -6.258     19.115     22.575
REMARK INTER + INTRA:         -11.411
REMARK INTER:                 -10.027
REMARK INTRA:                  -1.384
REMARK UNBOUND:                -1.860
REMARK  9 active torsions:
REMARK  status: ('A' for Active; 'I' for Inactive)
REMARK    1  A    between atoms: O02_2  and  CAX_24 
REMARK    2  A    between atoms: CAC_3  and  CAM_13 
REMARK    3  A    between atoms: CAC_3  and  NBH_34 
REMARK    4  A    between atoms: CAM_13  and  CAN_14 
REMARK    5  A    between atoms: CAN_14  and  OAW_23 
REMARK    6  A    between atoms: NAU_21  and  CBB_28 
REMARK    7  A    between atoms: NAU_21  and  CBE_31 
REMARK    8  A    between atoms: OAV_22  and  CBC_29 
REMARK    9  A    between atoms: OAW_23  and  CBD_30 
ROOT
HETATM    1  NAD   D T 601      12.874  -6.453   2.650  1.00 28.99    -0.191 NA
HETATM    2  CAG   D T 601      12.307  -5.700   2.010  1.00 27.03     0.100 C 
HETATM    3  CAH   D T 601      11.297  -3.349   1.679  1.00 28.35     0.163 A 
HETATM    4  CAK   D T 601       9.587  -1.519  -1.296  1.00 33.01     0.098 A 
HETATM    5  CAL   D T 601       9.987  -4.246  -2.472  1.00 31.90     0.082 A 
HETATM    6  NAT   D T 601      10.601  -2.371   0.907  1.00 30.45    -0.269 NA
HETATM    7  CBA   D T 601      11.556  -4.726   1.161  1.00 26.47     0.088 A 
HETATM    8  CBC   D T 601       9.457  -3.123  -3.309  1.00 33.79     0.095 A 
HETATM    9  CBD   D T 601       9.254  -1.775  -2.738  1.00 33.97     0.096 A 
HETATM   10  CBE   D T 601      11.064  -5.082  -0.226  1.00 30.40     0.086 A 
HETATM   11  CBF   D T 601      10.110  -2.647  -0.417  1.00 31.90     0.059 A 
HETATM   12  CBG   D T 601      10.315  -4.014  -1.024  1.00 31.93     0.016 A 
ENDROOT
BRANCH  10  13
HETATM   13  NAU   D T 601      11.373  -6.357  -0.865  1.00 32.72    -0.249 NA
BRANCH  13  14
HETATM   14  CBB   D T 601      10.572  -7.518  -0.528  1.00 32.22     0.072 A 
HETATM   15  CAJ   D T 601       9.078  -7.448  -0.615  1.00 30.11     0.098 A 
HETATM   16  CAX   D T 601       8.280  -8.653  -0.254  1.00 35.35     0.085 A 
HETATM   17  CAY   D T 601       8.956  -9.904   0.190  1.00 37.92     0.059 A 
HETATM   18 CL1    D T 601       8.012 -11.282   0.599  1.00 48.49    -0.085 Cl
HETATM   19  CAI   D T 601      10.439  -9.970   0.275  1.00 37.15     0.079 A 
HETATM   20  CAZ   D T 601      11.240  -8.771  -0.082  1.00 32.75     0.055 A 
HETATM   21 CL2    D T 601      12.963  -8.823   0.019  1.00 34.14    -0.085 Cl
BRANCH  16  22
HETATM   22  O02   D T 601       6.921  -8.595  -0.337  1.00 37.60    -0.331 OA
HETATM   23  C01   D T 601       6.374  -8.795  -1.596  1.00 39.30     0.181 C 
ENDBRANCH  16  22
ENDBRANCH  13  14
ENDBRANCH  10  13
BRANCH   8  24
HETATM   24  OAV   D T 601       9.160  -3.369  -4.626  1.00 41.17    -0.330 OA
HETATM   25  CAA   D T 601       9.518  -4.613  -5.127  1.00 35.24     0.181 C 
ENDBRANCH   8  24
BRANCH   9  26
HETATM   26  OAW   D T 601       8.755  -0.749  -3.546  1.00 30.65    -0.333 OA
BRANCH  26  27
HETATM   27  CAN   D T 601       8.790   0.571  -3.077  1.00 31.03     0.150 C 
BRANCH  27  28
HETATM   28  CAM   D T 601       9.876   1.364  -3.814  1.00 38.93     0.056 C 
BRANCH  28  29
HETATM   29  CAC   D T 601      10.129   0.727  -5.169  1.00 41.72     0.100 C 
BRANCH  29  30
HETATM   30  NBH   D T 601       9.035   1.141  -6.106  1.00 46.45    -0.365 N 
HETATM   31  CAP   D T 601       8.117   0.179  -6.719  1.00 43.76     0.121 C 
HETATM   32  CAR   D T 601       6.882   0.927  -7.253  1.00 49.42     0.121 C 
HETATM   33  NBI   D T 601       7.303   1.933  -8.191  1.00 58.88    -0.364 N 
HETATM   34  CAO   D T 601       6.295   2.383  -9.144  1.00 56.16     0.121 C 
HETATM   35  CAS   D T 601       8.207   2.860  -7.573  1.00 59.74     0.121 C 
HETATM   36  CAQ   D T 601       9.422   2.146  -7.069  1.00 48.54     0.121 C 
ENDBRANCH  29  30
ENDBRANCH  28  29
ENDBRANCH  27  28
ENDBRANCH  26  27
ENDBRANCH   9  26
TORSDOF 9
ENDMDL
MODEL 3
REMARK VINA RESULT:    -6.228      3.494      8.835
REMARK INTER + INTRA:         -11.364
REMARK INTER:                 -10.041
REMARK INTRA:                  -1.323
REMARK UNBOUND:                -1.860
REMARK  9 active torsions:
REMARK  status: ('A' for Active; 'I' for Inactive)
REMARK    1  A    between atoms: O02_2  and  CAX_24 
REMARK    2  A    between atoms: CAC_3  and  CAM_13 
REMARK    3  A    between atoms: CAC_3  and  NBH_34 
REMARK    4  A    between atoms: CAM_13  and  CAN_14 
REMARK    5  A    between atoms: CAN_14  and  OAW_23 
REMARK    6  A    between atoms: NAU_21  and  CBB_28 
REMARK    7  A    between atoms: NAU_21  and  CBE_31 
REMARK    8  A    between atoms: OAV_22  and  CBC_29 
REMARK    9  A    between atoms: OAW_23  and  CBD_30 
ROOT
HETATM    1  NAD   D T 601      -0.063  12.871  -9.210  1.00 28.99    -0.191 NA
HETATM    2  CAG   D T 601      -0.118  12.311 -10.201  1.00 27.03     0.100 C 
HETATM    3  CAH   D T 601      -1.366  11.737 -12.386  1.00 28.35     0.163 A 
HETATM    4  CAK   D T 601      -0.479   9.677 -15.563  1.00 33.01     0.098 A 
HETATM    5  CAL   D T 601       1.955   9.190 -13.882  1.00 31.90     0.082 A 
HETATM    6  NAT   D T 601      -1.471  11.065 -13.641  1.00 30.45    -0.269 NA
HETATM    7  CBA   D T 601      -0.179  11.565 -11.495  1.00 26.47     0.088 A 
HETATM    8  CBC   D T 601       1.884   8.685 -15.291  1.00 33.79     0.095 A 
HETATM    9  CBD   D T 601       0.688   8.918 -16.126  1.00 33.97     0.096 A 
HETATM   10  CBE   D T 601       0.940  10.652 -11.949  1.00 30.40     0.086 A 
HETATM   11  CBF   D T 601      -0.442  10.186 -14.128  1.00 31.90     0.059 A 
HETATM   12  CBG   D T 601       0.793   9.941 -13.295  1.00 31.93     0.016 A 
ENDROOT
BRANCH  10  13
HETATM   13  NAU   D T 601       2.191  10.515 -11.209  1.00 32.72    -0.249 NA
BRANCH  13  14
HETATM   14  CBB   D T 601       3.190  11.558 -11.330  1.00 32.22     0.072 A 
HETATM   15  CAJ   D T 601       3.292  12.353 -12.596  1.00 30.11     0.098 A 
HETATM   16  CAX   D T 601       4.334  13.413 -12.696  1.00 35.35     0.085 A 
HETATM   17  CAY   D T 601       5.261  13.674 -11.560  1.00 37.92     0.059 A 
HETATM   18 CL1    D T 601       6.454  14.905 -11.700  1.00 48.49    -0.085 Cl
HETATM   19  CAI   D T 601       5.157  12.883 -10.305  1.00 37.15     0.079 A 
HETATM   20  CAZ   D T 601       4.121  11.824 -10.200  1.00 32.75     0.055 A 
HETATM   21 CL2    D T 601       3.989  10.887  -8.755  1.00 34.14    -0.085 Cl
BRANCH  16  22
HETATM   22  O02   D T 601       4.427  14.143 -13.844  1.00 37.60    -0.331 OA
HETATM   23  C01   D T 601       5.350  13.699 -14.779  1.00 39.30     0.181 C 
ENDBRANCH  16  22
ENDBRANCH  13  14
ENDBRANCH  10  13
BRANCH   8  24
HETATM   24  OAV   D T 601       2.959   7.997 -15.795  1.00 41.17    -0.330 OA
HETATM   25  CAA   D T 601       4.167   8.145 -15.130  1.00 35.24     0.181 C 
ENDBRANCH   8  24
BRANCH   9  26
HETATM   26  OAW   D T 601       0.654   8.432 -17.437  1.00 30.65    -0.333 OA
BRANCH  26  27
HETATM   27  CAN   D T 601       0.712   9.336 -18.506  1.00 31.03     0.150 C 
BRANCH  27  28
HETATM   28  CAM   D T 601       0.150   8.688 -19.776  1.00 38.93     0.056 C 
BRANCH  28  29
HETATM   29  CAC   D T 601       0.705   7.281 -19.908  1.00 41.72     0.100 C 
BRANCH  29  30
HETATM   30  NBH   D T 601      -0.430   6.306 -19.822  1.00 46.45    -0.365 N 
HETATM   31  CAP   D T 601      -0.359   4.961 -20.396  1.00 43.76     0.121 C 
HETATM   32  CAR   D T 601      -1.464   4.086 -19.778  1.00 49.42     0.121 C 
HETATM   33  NBI   D T 601      -2.744   4.699 -20.013  1.00 58.88    -0.364 N 
HETATM   34  CAO   D T 601      -3.900   3.811 -19.954  1.00 56.16     0.121 C 
HETATM   35  CAS   D T 601      -2.791   6.016 -19.449  1.00 59.74     0.121 C 
HETATM   36  CAQ   D T 601      -1.732   6.883 -20.060  1.00 48.54     0.121 C 
ENDBRANCH  29  30
ENDBRANCH  28  29
ENDBRANCH  27  28
ENDBRANCH  26  27
ENDBRANCH   9  26
TORSDOF 9
ENDMDL
MODEL 4
REMARK VINA RESULT:    -6.154     20.008     23.473
REMARK INTER + INTRA:         -11.252
REMARK INTER:                  -9.953
REMARK INTRA:                  -1.298
REMARK UNBOUND:                -1.860
REMARK  9 active torsions:
REMARK  status: ('A' for Active; 'I' for Inactive)
REMARK    1  A    between atoms: O02_2  and  CAX_24 
REMARK    2  A    between atoms: CAC_3  and  CAM_13 
REMARK    3  A    between atoms: CAC_3  and  NBH_34 
REMARK    4  A    between atoms: CAM_13  and  CAN_14 
REMARK    5  A    between atoms: CAN_14  and  OAW_23 
REMARK    6  A    between atoms: NAU_21  and  CBB_28 
REMARK    7  A    between atoms: NAU_21  and  CBE_31 
REMARK    8  A    between atoms: OAV_22  and  CBC_29 
REMARK    9  A    between atoms: OAW_23  and  CBD_30 
ROOT
HETATM    1  NAD   D T 601      10.122  -8.171   3.541  1.00 28.99    -0.191 NA
HETATM    2  CAG   D T 601       9.935  -7.335   2.790  1.00 27.03     0.100 C 
HETATM    3  CAH   D T 601       9.516  -4.843   2.265  1.00 28.35     0.163 A 
HETATM    4  CAK   D T 601       9.220  -2.766  -1.009  1.00 33.01     0.098 A 
HETATM    5  CAL   D T 601       9.501  -5.534  -2.125  1.00 31.90     0.082 A 
HETATM    6  NAT   D T 601       9.292  -3.764   1.358  1.00 30.45    -0.269 NA
HETATM    7  CBA   D T 601       9.685  -6.250   1.792  1.00 26.47     0.088 A 
HETATM    8  CBC   D T 601       9.478  -4.342  -3.032  1.00 33.79     0.095 A 
HETATM    9  CBD   D T 601       9.337  -2.974  -2.492  1.00 33.97     0.096 A 
HETATM   10  CBE   D T 601       9.620  -6.526   0.305  1.00 30.40     0.086 A 
HETATM   11  CBF   D T 601       9.221  -3.961  -0.065  1.00 31.90     0.059 A 
HETATM   12  CBG   D T 601       9.371  -5.349  -0.639  1.00 31.93     0.016 A 
ENDROOT
BRANCH  10  13
HETATM   13  NAU   D T 601       9.894  -7.843  -0.262  1.00 32.72    -0.249 NA
BRANCH  13  14
HETATM   14  CBB   D T 601      11.252  -8.349  -0.224  1.00 32.22     0.072 A 
HETATM   15  CAJ   D T 601      12.389  -7.474  -0.657  1.00 30.11     0.098 A 
HETATM   16  CAX   D T 601      13.774  -8.023  -0.615  1.00 35.35     0.085 A 
HETATM   17  CAY   D T 601      14.022  -9.418  -0.155  1.00 37.92     0.059 A 
HETATM   18 CL1    D T 601      15.630 -10.026  -0.113  1.00 48.49    -0.085 Cl
HETATM   19  CAI   D T 601      12.891 -10.282   0.275  1.00 37.15     0.079 A 
HETATM   20  CAZ   D T 601      11.508  -9.741   0.234  1.00 32.75     0.055 A 
HETATM   21 CL2    D T 601      10.180 -10.732   0.719  1.00 34.14    -0.085 Cl
BRANCH  16  22
HETATM   22  O02   D T 601      14.812  -7.229  -1.003  1.00 37.60    -0.331 OA
HETATM   23  C01   D T 601      15.056  -6.113  -0.218  1.00 39.30     0.181 C 
ENDBRANCH  16  22
ENDBRANCH  13  14
ENDBRANCH  10  13
BRANCH   8  24
HETATM   24  OAV   D T 601       9.590  -4.545  -4.385  1.00 41.17    -0.330 OA
HETATM   25  CAA   D T 601       9.454  -5.849  -4.837  1.00 35.24     0.181 C 
ENDBRANCH   8  24
BRANCH   9  26
HETATM   26  OAW   D T 601       9.317  -1.883  -3.366  1.00 30.65    -0.333 OA
BRANCH  26  27
HETATM   27  CAN   D T 601       8.766  -0.669  -2.936  1.00 31.03     0.150 C 
BRANCH  27  28
HETATM   28  CAM   D T 601       9.496   0.506  -3.597  1.00 38.93     0.056 C 
BRANCH  28  29
HETATM   29  CAC   D T 601      10.055   0.059  -4.936  1.00 41.72     0.100 C 
BRANCH  29  30
HETATM   30  NBH   D T 601       9.171   0.584  -6.026  1.00 46.45    -0.365 N 
HETATM   31  CAP   D T 601       8.933   2.015  -6.225  1.00 43.76     0.121 C 
HETATM   32  CAR   D T 601       8.365   2.243  -7.638  1.00 49.42     0.121 C 
HETATM   33  NBI   D T 601       7.160   1.475  -7.797  1.00 58.88    -0.364 N 
HETATM   34  CAO   D T 601       6.242   1.931  -8.835  1.00 56.16     0.121 C 
HETATM   35  CAS   D T 601       7.414   0.078  -7.591  1.00 59.74     0.121 C 
HETATM   36  CAQ   D T 601       7.946  -0.157  -6.211  1.00 48.54     0.121 C 
ENDBRANCH  29  30
ENDBRANCH  28  29
ENDBRANCH  27  28
ENDBRANCH  26  27
ENDBRANCH   9  26
TORSDOF 9
ENDMDL
MODEL 5
REMARK VINA RESULT:    -6.054     19.772     23.333
REMARK INTER + INTRA:         -11.100
REMARK INTER:                  -9.700
REMARK INTRA:                  -1.399
REMARK UNBOUND:                -1.860
REMARK  9 active torsions:
REMARK  status: ('A' for Active; 'I' for Inactive)
REMARK    1  A    between atoms: O02_2  and  CAX_24 
REMARK    2  A    between atoms: CAC_3  and  CAM_13 
REMARK    3  A    between atoms: CAC_3  and  NBH_34 
REMARK    4  A    between atoms: CAM_13  and  CAN_14 
REMARK    5  A    between atoms: CAN_14  and  OAW_23 
REMARK    6  A    between atoms: NAU_21  and  CBB_28 
REMARK    7  A    between atoms: NAU_21  and  CBE_31 
REMARK    8  A    between atoms: OAV_22  and  CBC_29 
REMARK    9  A    between atoms: OAW_23  and  CBD_30 
ROOT
HETATM    1  NAD   D T 601      12.103  -6.909   4.794  1.00 28.99    -0.191 NA
HETATM    2  CAG   D T 601      12.083  -6.113   3.979  1.00 27.03     0.100 C 
HETATM    3  CAH   D T 601      13.293  -4.345   2.539  1.00 28.35     0.163 A 
HETATM    4  CAK   D T 601      12.244  -2.097  -0.455  1.00 33.01     0.098 A 
HETATM    5  CAL   D T 601       9.634  -3.420   0.192  1.00 31.90     0.082 A 
HETATM    6  NAT   D T 601      13.315  -3.350   1.516  1.00 30.45    -0.269 NA
HETATM    7  CBA   D T 601      12.038  -5.067   2.912  1.00 26.47     0.088 A 
HETATM    8  CBC   D T 601       9.763  -2.529  -1.005  1.00 33.79     0.095 A 
HETATM    9  CBD   D T 601      11.045  -1.870  -1.331  1.00 33.97     0.096 A 
HETATM   10  CBE   D T 601      10.761  -4.726   2.173  1.00 30.40     0.086 A 
HETATM   11  CBF   D T 601      12.136  -2.982   0.779  1.00 31.90     0.059 A 
HETATM   12  CBG   D T 601      10.818  -3.650   1.089  1.00 31.93     0.016 A 
ENDROOT
BRANCH  10  13
HETATM   13  NAU   D T 601       9.516  -5.459   2.380  1.00 32.72    -0.249 NA
BRANCH  13  14
HETATM   14  CBB   D T 601       9.395  -6.795   1.831  1.00 32.22     0.072 A 
HETATM   15  CAJ   D T 601       9.615  -7.026   0.367  1.00 30.11     0.098 A 
HETATM   16  CAX   D T 601       9.476  -8.408  -0.171  1.00 35.35     0.085 A 
HETATM   17  CAY   D T 601       9.120  -9.540   0.729  1.00 37.92     0.059 A 
HETATM   18 CL1    D T 601       8.968 -11.126   0.083  1.00 48.49    -0.085 Cl
HETATM   19  CAI   D T 601       8.902  -9.307   2.182  1.00 37.15     0.079 A 
HETATM   20  CAZ   D T 601       9.038  -7.930   2.724  1.00 32.75     0.055 A 
HETATM   21 CL2    D T 601       8.781  -7.637   4.406  1.00 34.14    -0.085 Cl
BRANCH  16  22
HETATM   22  O02   D T 601       9.681  -8.623  -1.502  1.00 37.60    -0.331 OA
HETATM   23  C01   D T 601       9.109  -7.702  -2.366  1.00 39.30     0.181 C 
ENDBRANCH  16  22
ENDBRANCH  13  14
ENDBRANCH  10  13
BRANCH   8  24
HETATM   24  OAV   D T 601       8.661  -2.333  -1.800  1.00 41.17    -0.330 OA
HETATM   25  CAA   D T 601       8.263  -3.400  -2.593  1.00 35.24     0.181 C 
ENDBRANCH   8  24
BRANCH   9  26
HETATM   26  OAW   D T 601      11.132  -1.043  -2.455  1.00 30.65    -0.333 OA
BRANCH  26  27
HETATM   27  CAN   D T 601      11.360  -1.617  -3.713  1.00 31.03     0.150 C 
BRANCH  27  28
HETATM   28  CAM   D T 601      10.278  -1.168  -4.702  1.00 38.93     0.056 C 
BRANCH  28  29
HETATM   29  CAC   D T 601      10.366   0.336  -4.892  1.00 41.72     0.100 C 
BRANCH  29  30
HETATM   30  NBH   D T 601       9.397   0.743  -5.962  1.00 46.45    -0.365 N 
HETATM   31  CAP   D T 601       9.084   2.144  -6.248  1.00 43.76     0.121 C 
HETATM   32  CAR   D T 601       8.426   2.242  -7.637  1.00 49.42     0.121 C 
HETATM   33  NBI   D T 601       7.250   1.416  -7.666  1.00 58.88    -0.364 N 
HETATM   34  CAO   D T 601       6.253   1.755  -8.677  1.00 56.16     0.121 C 
HETATM   35  CAS   D T 601       7.577   0.050  -7.376  1.00 59.74     0.121 C 
HETATM   36  CAQ   D T 601       8.198  -0.060  -6.018  1.00 48.54     0.121 C 
ENDBRANCH  29  30
ENDBRANCH  28  29
ENDBRANCH  27  28
ENDBRANCH  26  27
ENDBRANCH   9  26
TORSDOF 9
ENDMDL
MODEL 6
REMARK VINA RESULT:    -5.893      2.550      3.568
REMARK INTER + INTRA:         -10.853
REMARK INTER:                  -8.727
REMARK INTRA:                  -2.126
REMARK UNBOUND:                -1.860
REMARK  9 active torsions:
REMARK  status: ('A' for Active; 'I' for Inactive)
REMARK    1  A    between atoms: O02_2  and  CAX_24 
REMARK    2  A    between atoms: CAC_3  and  CAM_13 
REMARK    3  A    between atoms: CAC_3  and  NBH_34 
REMARK    4  A    between atoms: CAM_13  and  CAN_14 
REMARK    5  A    between atoms: CAN_14  and  OAW_23 
REMARK    6  A    between atoms: NAU_21  and  CBB_28 
REMARK    7  A    between atoms: NAU_21  and  CBE_31 
REMARK    8  A    between atoms: OAV_22  and  CBC_29 
REMARK    9  A    between atoms: OAW_23  and  CBD_30 
ROOT
HETATM    1  NAD   D T 601      -0.661   8.586 -17.161  1.00 28.99    -0.191 NA
HETATM    2  CAG   D T 601       0.287   8.902 -16.613  1.00 27.03     0.100 C 
HETATM    3  CAH   D T 601       2.480   8.298 -15.395  1.00 28.35     0.163 A 
HETATM    4  CAK   D T 601       5.447  10.360 -13.956  1.00 33.01     0.098 A 
HETATM    5  CAL   D T 601       3.620  12.560 -14.852  1.00 31.90     0.082 A 
HETATM    6  NAT   D T 601       3.685   8.650 -14.714  1.00 30.45    -0.269 NA
HETATM    7  CBA   D T 601       1.522   9.332 -15.891  1.00 26.47     0.088 A 
HETATM    8  CBC   D T 601       4.988  12.869 -14.327  1.00 33.79     0.095 A 
HETATM    9  CBD   D T 601       5.895  11.792 -13.881  1.00 33.97     0.096 A 
HETATM   10  CBE   D T 601       1.853  10.792 -15.663  1.00 30.40     0.086 A 
HETATM   11  CBF   D T 601       4.054  10.018 -14.468  1.00 31.90     0.059 A 
HETATM   12  CBG   D T 601       3.146  11.135 -14.924  1.00 31.93     0.016 A 
ENDROOT
BRANCH  10  13
HETATM   13  NAU   D T 601       1.044  11.875 -16.215  1.00 32.72    -0.249 NA
BRANCH  13  14
HETATM   14  CBB   D T 601       0.066  12.519 -15.362  1.00 32.22     0.072 A 
HETATM   15  CAJ   D T 601      -0.992  11.701 -14.685  1.00 30.11     0.098 A 
HETATM   16  CAX   D T 601      -1.990  12.390 -13.820  1.00 35.35     0.085 A 
HETATM   17  CAY   D T 601      -1.940  13.867 -13.634  1.00 37.92     0.059 A 
HETATM   18 CL1    D T 601      -3.102  14.638 -12.628  1.00 48.49    -0.085 Cl
HETATM   19  CAI   D T 601      -0.888  14.676 -14.306  1.00 37.15     0.079 A 
HETATM   20  CAZ   D T 601       0.109  13.995 -15.172  1.00 32.75     0.055 A 
HETATM   21 CL2    D T 601       1.332  14.916 -15.969  1.00 34.14    -0.085 Cl
BRANCH  16  22
HETATM   22  O02   D T 601      -2.950  11.649 -13.199  1.00 37.60    -0.331 OA
HETATM   23  C01   D T 601      -2.550  10.416 -12.706  1.00 39.30     0.181 C 
ENDBRANCH  16  22
ENDBRANCH  13  14
ENDBRANCH  10  13
BRANCH   8  24
HETATM   24  OAV   D T 601       5.387  14.180 -14.268  1.00 41.17    -0.330 OA
HETATM   25  CAA   D T 601       4.629  15.031 -13.476  1.00 35.24     0.181 C 
ENDBRANCH   8  24
BRANCH   9  26
HETATM   26  OAW   D T 601       7.166  12.114 -13.394  1.00 30.65    -0.333 OA
BRANCH  26  27
HETATM   27  CAN   D T 601       7.298  12.588 -12.082  1.00 31.03     0.150 C 
BRANCH  27  28
HETATM   28  CAM   D T 601       6.347  11.828 -11.149  1.00 38.93     0.056 C 
BRANCH  28  29
HETATM   29  CAC   D T 601       5.305  12.788 -10.605  1.00 41.72     0.100 C 
BRANCH  29  30
HETATM   30  NBH   D T 601       3.972  12.101 -10.605  1.00 46.45    -0.365 N 
HETATM   31  CAP   D T 601       2.814  12.629 -11.328  1.00 43.76     0.121 C 
HETATM   32  CAR   D T 601       1.767  11.513 -11.493  1.00 49.42     0.121 C 
HETATM   33  NBI   D T 601       1.401  11.007 -10.197  1.00 58.88    -0.364 N 
HETATM   34  CAO   D T 601       0.111  10.331 -10.114  1.00 56.16     0.121 C 
HETATM   35  CAS   D T 601       2.550  10.502  -9.504  1.00 59.74     0.121 C 
HETATM   36  CAQ   D T 601       3.566  11.586  -9.319  1.00 48.54     0.121 C 
ENDBRANCH  29  30
ENDBRANCH  28  29
ENDBRANCH  27  28
ENDBRANCH  26  27
ENDBRANCH   9  26
TORSDOF 9
ENDMDL
MODEL 7
REMARK VINA RESULT:    -5.887     21.446     25.149
REMARK INTER + INTRA:         -10.843
REMARK INTER:                  -9.517
REMARK INTRA:                  -1.327
REMARK UNBOUND:                -1.860
REMARK  9 active torsions:
REMARK  status: ('A' for Active; 'I' for Inactive)
REMARK    1  A    between atoms: O02_2  and  CAX_24 
REMARK    2  A    between atoms: CAC_3  and  CAM_13 
REMARK    3  A    between atoms: CAC_3  and  NBH_34 
REMARK    4  A    between atoms: CAM_13  and  CAN_14 
REMARK    5  A    between atoms: CAN_14  and  OAW_23 
REMARK    6  A    between atoms: NAU_21  and  CBB_28 
REMARK    7  A    between atoms: NAU_21  and  CBE_31 
REMARK    8  A    between atoms: OAV_22  and  CBC_29 
REMARK    9  A    between atoms: OAW_23  and  CBD_30 
ROOT
HETATM    1  NAD   D T 601       7.976 -11.641   1.535  1.00 28.99    -0.191 NA
HETATM    2  CAG   D T 601       8.096 -10.600   1.088  1.00 27.03     0.100 C 
HETATM    3  CAH   D T 601       7.196  -8.664  -0.362  1.00 28.35     0.163 A 
HETATM    4  CAK   D T 601       8.414  -5.052  -1.133  1.00 33.01     0.098 A 
HETATM    5  CAL   D T 601      10.681  -6.060   0.548  1.00 31.90     0.082 A 
HETATM    6  NAT   D T 601       7.301  -7.360  -0.933  1.00 30.45    -0.269 NA
HETATM    7  CBA   D T 601       8.272  -9.236   0.503  1.00 26.47     0.088 A 
HETATM    8  CBC   D T 601      10.637  -4.631   0.101  1.00 33.79     0.095 A 
HETATM    9  CBD   D T 601       9.525  -4.125  -0.730  1.00 33.97     0.096 A 
HETATM   10  CBE   D T 601       9.502  -8.396   0.779  1.00 30.40     0.086 A 
HETATM   11  CBF   D T 601       8.442  -6.514  -0.708  1.00 31.90     0.059 A 
HETATM   12  CBG   D T 601       9.586  -7.007   0.145  1.00 31.93     0.016 A 
ENDROOT
BRANCH  10  13
HETATM   13  NAU   D T 601      10.547  -8.816   1.707  1.00 32.72    -0.249 NA
BRANCH  13  14
HETATM   14  CBB   D T 601      10.281  -8.754   3.130  1.00 32.22     0.072 A 
HETATM   15  CAJ   D T 601       9.703  -7.508   3.730  1.00 30.11     0.098 A 
HETATM   16  CAX   D T 601       9.448  -7.470   5.198  1.00 35.35     0.085 A 
HETATM   17  CAY   D T 601       9.765  -8.647   6.053  1.00 37.92     0.059 A 
HETATM   18 CL1    D T 601       9.458  -8.578   7.744  1.00 48.49    -0.085 Cl
HETATM   19  CAI   D T 601      10.337  -9.882   5.454  1.00 37.15     0.079 A 
HETATM   20  CAZ   D T 601      10.596  -9.926   3.992  1.00 32.75     0.055 A 
HETATM   21 CL2    D T 601      11.269 -11.347   3.278  1.00 34.14    -0.085 Cl
BRANCH  16  22
HETATM   22  O02   D T 601       8.918  -6.341   5.747  1.00 37.60    -0.331 OA
HETATM   23  C01   D T 601       8.910  -5.213   4.940  1.00 39.30     0.181 C 
ENDBRANCH  16  22
ENDBRANCH  13  14
ENDBRANCH  10  13
BRANCH   8  24
HETATM   24  OAV   D T 601      11.656  -3.793   0.479  1.00 41.17    -0.330 OA
HETATM   25  CAA   D T 601      12.819  -4.391   0.942  1.00 35.24     0.181 C 
ENDBRANCH   8  24
BRANCH   9  26
HETATM   26  OAW   D T 601       9.515  -2.786  -1.133  1.00 30.65    -0.333 OA
BRANCH  26  27
HETATM   27  CAN   D T 601       8.419  -2.296  -1.856  1.00 31.03     0.150 C 
BRANCH  27  28
HETATM   28  CAM   D T 601       8.858  -1.891  -3.268  1.00 38.93     0.056 C 
BRANCH  28  29
HETATM   29  CAC   D T 601       9.882  -0.773  -3.173  1.00 41.72     0.100 C 
BRANCH  29  30
HETATM   30  NBH   D T 601       9.723   0.127  -4.362  1.00 46.45    -0.365 N 
HETATM   31  CAP   D T 601      10.590   1.283  -4.595  1.00 43.76     0.121 C 
HETATM   32  CAR   D T 601      10.466   1.721  -6.065  1.00 49.42     0.121 C 
HETATM   33  NBI   D T 601       9.090   2.019  -6.359  1.00 58.88    -0.364 N 
HETATM   34  CAO   D T 601       8.853   2.898  -7.500  1.00 56.16     0.121 C 
HETATM   35  CAS   D T 601       8.257   0.876  -6.118  1.00 59.74     0.121 C 
HETATM   36  CAQ   D T 601       8.354   0.455  -4.684  1.00 48.54     0.121 C 
ENDBRANCH  29  30
ENDBRANCH  28  29
ENDBRANCH  27  28
ENDBRANCH  26  27
ENDBRANCH   9  26
TORSDOF 9
ENDMDL
MODEL 8
REMARK VINA RESULT:    -5.846     20.578     24.414
REMARK INTER + INTRA:         -10.782
REMARK INTER:                  -9.343
REMARK INTRA:                  -1.439
REMARK UNBOUND:                -1.860
REMARK  9 active torsions:
REMARK  status: ('A' for Active; 'I' for Inactive)
REMARK    1  A    between atoms: O02_2  and  CAX_24 
REMARK    2  A    between atoms: CAC_3  and  CAM_13 
REMARK    3  A    between atoms: CAC_3  and  NBH_34 
REMARK    4  A    between atoms: CAM_13  and  CAN_14 
REMARK    5  A    between atoms: CAN_14  and  OAW_23 
REMARK    6  A    between atoms: NAU_21  and  CBB_28 
REMARK    7  A    between atoms: NAU_21  and  CBE_31 
REMARK    8  A    between atoms: OAV_22  and  CBC_29 
REMARK    9  A    between atoms: OAW_23  and  CBD_30 
ROOT
HETATM    1  NAD   D T 601      11.624  -0.072  -3.459  1.00 28.99    -0.191 NA
HETATM    2  CAG   D T 601      11.150  -0.946  -2.903  1.00 27.03     0.100 C 
HETATM    3  CAH   D T 601       9.164  -2.550  -2.520  1.00 28.35     0.163 A 
HETATM    4  CAK   D T 601       8.592  -5.684  -0.290  1.00 33.01     0.098 A 
HETATM    5  CAL   D T 601      11.340  -4.870   0.585  1.00 31.90     0.082 A 
HETATM    6  NAT   D T 601       8.538  -3.648  -1.857  1.00 30.45    -0.269 NA
HETATM    7  CBA   D T 601      10.540  -2.090  -2.159  1.00 26.47     0.088 A 
HETATM    8  CBC   D T 601      10.721  -6.136   1.091  1.00 33.79     0.095 A 
HETATM    9  CBD   D T 601       9.365  -6.545   0.668  1.00 33.97     0.096 A 
HETATM   10  CBE   D T 601      11.281  -2.821  -1.059  1.00 30.40     0.086 A 
HETATM   11  CBF   D T 601       9.190  -4.382  -0.806  1.00 31.90     0.059 A 
HETATM   12  CBG   D T 601      10.579  -3.987  -0.364  1.00 31.93     0.016 A 
ENDROOT
BRANCH  10  13
HETATM   13  NAU   D T 601      12.670  -2.526  -0.719  1.00 32.72    -0.249 NA
BRANCH  13  14
HETATM   14  CBB   D T 601      12.941  -1.533   0.301  1.00 32.22     0.072 A 
HETATM   15  CAJ   D T 601      12.232  -1.601   1.620  1.00 30.11     0.098 A 
HETATM   16  CAX   D T 601      12.525  -0.562   2.646  1.00 35.35     0.085 A 
HETATM   17  CAY   D T 601      13.501   0.528   2.366  1.00 37.92     0.059 A 
HETATM   18 CL1    D T 601      13.822   1.713   3.569  1.00 48.49    -0.085 Cl
HETATM   19  CAI   D T 601      14.203   0.591   1.056  1.00 37.15     0.079 A 
HETATM   20  CAZ   D T 601      13.915  -0.441   0.028  1.00 32.75     0.055 A 
HETATM   21 CL2    D T 601      14.712  -0.380  -1.503  1.00 34.14    -0.085 Cl
BRANCH  16  22
HETATM   22  O02   D T 601      11.886  -0.623   3.849  1.00 37.60    -0.331 OA
HETATM   23  C01   D T 601      12.518  -1.355   4.842  1.00 39.30     0.181 C 
ENDBRANCH  16  22
ENDBRANCH  13  14
ENDBRANCH  10  13
BRANCH   8  24
HETATM   24  OAV   D T 601      11.440  -6.915   1.962  1.00 41.17    -0.330 OA
HETATM   25  CAA   D T 601      12.414  -7.736   1.412  1.00 35.24     0.181 C 
ENDBRANCH   8  24
BRANCH   9  26
HETATM   26  OAW   D T 601       8.815  -7.732   1.161  1.00 30.65    -0.333 OA
BRANCH  26  27
HETATM   27  CAN   D T 601       9.069  -8.936   0.489  1.00 31.03     0.150 C 
BRANCH  27  28
HETATM   28  CAM   D T 601       7.763  -9.716   0.295  1.00 38.93     0.056 C 
BRANCH  28  29
HETATM   29  CAC   D T 601       6.745  -8.826  -0.396  1.00 41.72     0.100 C 
BRANCH  29  30
HETATM   30  NBH   D T 601       6.779  -9.111  -1.868  1.00 46.45    -0.365 N 
HETATM   31  CAP   D T 601       7.722  -8.454  -2.774  1.00 43.76     0.121 C 
HETATM   32  CAR   D T 601       7.804  -9.254  -4.087  1.00 49.42     0.121 C 
HETATM   33  NBI   D T 601       6.492  -9.356  -4.665  1.00 58.88    -0.364 N 
HETATM   34  CAO   D T 601       6.442  -9.624  -6.099  1.00 56.16     0.121 C 
HETATM   35  CAS   D T 601       5.583  -9.996  -3.759  1.00 59.74     0.121 C 
HETATM   36  CAQ   D T 601       5.479  -9.213  -2.486  1.00 48.54     0.121 C 
ENDBRANCH  29  30
ENDBRANCH  28  29
ENDBRANCH  27  28
ENDBRANCH  26  27
ENDBRANCH   9  26
TORSDOF 9
ENDMDL
MODEL 9
REMARK VINA RESULT:    -5.748     19.491     23.285
REMARK INTER + INTRA:         -10.633
REMARK INTER:                  -9.153
REMARK INTRA:                  -1.480
REMARK UNBOUND:                -1.860
REMARK  9 active torsions:
REMARK  status: ('A' for Active; 'I' for Inactive)
REMARK    1  A    between atoms: O02_2  and  CAX_24 
REMARK    2  A    between atoms: CAC_3  and  CAM_13 
REMARK    3  A    between atoms: CAC_3  and  NBH_34 
REMARK    4  A    between atoms: CAM_13  and  CAN_14 
REMARK    5  A    between atoms: CAN_14  and  OAW_23 
REMARK    6  A    between atoms: NAU_21  and  CBB_28 
REMARK    7  A    between atoms: NAU_21  and  CBE_31 
REMARK    8  A    between atoms: OAV_22  and  CBC_29 
REMARK    9  A    between atoms: OAW_23  and  CBD_30 
ROOT
HETATM    1  NAD   D T 601      16.434  -1.295   1.556  1.00 28.99    -0.191 NA
HETATM    2  CAG   D T 601      15.501  -1.402   0.910  1.00 27.03     0.100 C 
HETATM    3  CAH   D T 601      14.162  -0.799  -1.212  1.00 28.35     0.163 A 
HETATM    4  CAK   D T 601      10.814  -2.035  -2.757  1.00 33.01     0.098 A 
HETATM    5  CAL   D T 601      10.850  -3.580  -0.189  1.00 31.90     0.082 A 
HETATM    6  NAT   D T 601      13.018  -0.912  -2.058  1.00 30.45    -0.269 NA
HETATM    7  CBA   D T 601      14.269  -1.548   0.076  1.00 26.47     0.088 A 
HETATM    8  CBC   D T 601       9.781  -3.820  -1.212  1.00 33.79     0.095 A 
HETATM    9  CBD   D T 601       9.753  -3.062  -2.479  1.00 33.97     0.096 A 
HETATM   10  CBE   D T 601      13.127  -2.455   0.483  1.00 30.40     0.086 A 
HETATM   11  CBF   D T 601      11.901  -1.757  -1.727  1.00 31.90     0.059 A 
HETATM   12  CBG   D T 601      11.912  -2.548  -0.442  1.00 31.93     0.016 A 
ENDROOT
BRANCH  10  13
HETATM   13  NAU   D T 601      13.190  -3.319   1.658  1.00 32.72    -0.249 NA
BRANCH  13  14
HETATM   14  CBB   D T 601      13.496  -4.724   1.473  1.00 32.22     0.072 A 
HETATM   15  CAJ   D T 601      14.651  -5.131   0.609  1.00 30.11     0.098 A 
HETATM   16  CAX   D T 601      14.937  -6.582   0.430  1.00 35.35     0.085 A 
HETATM   17  CAY   D T 601      14.088  -7.610   1.095  1.00 37.92     0.059 A 
HETATM   18 CL1    D T 601      14.442  -9.278   0.875  1.00 48.49    -0.085 Cl
HETATM   19  CAI   D T 601      12.944  -7.202   1.953  1.00 37.15     0.079 A 
HETATM   20  CAZ   D T 601      12.653  -5.756   2.134  1.00 32.75     0.055 A 
HETATM   21 CL2    D T 601      11.323  -5.261   3.118  1.00 34.14    -0.085 Cl
BRANCH  16  22
HETATM   22  O02   D T 601      15.989  -6.957  -0.352  1.00 37.60    -0.331 OA
HETATM   23  C01   D T 601      15.676  -7.413  -1.623  1.00 39.30     0.181 C 
ENDBRANCH  16  22
ENDBRANCH  13  14
ENDBRANCH  10  13
BRANCH   8  24
HETATM   24  OAV   D T 601       8.821  -4.765  -0.947  1.00 41.17    -0.330 OA
HETATM   25  CAA   D T 601       8.867  -5.375   0.298  1.00 35.24     0.181 C 
ENDBRANCH   8  24
BRANCH   9  26
HETATM   26  OAW   D T 601       8.741  -3.309  -3.412  1.00 30.65    -0.333 OA
BRANCH  26  27
HETATM   27  CAN   D T 601       9.084  -3.776  -4.688  1.00 31.03     0.150 C 
BRANCH  27  28
HETATM   28  CAM   D T 601       8.134  -3.188  -5.737  1.00 38.93     0.056 C 
BRANCH  28  29
HETATM   29  CAC   D T 601       7.265  -2.125  -5.087  1.00 41.72     0.100 C 
BRANCH  29  30
HETATM   30  NBH   D T 601       7.586  -0.798  -5.706  1.00 46.45    -0.365 N 
HETATM   31  CAP   D T 601       7.578  -0.582  -7.154  1.00 43.76     0.121 C 
HETATM   32  CAR   D T 601       7.512   0.929  -7.441  1.00 49.42     0.121 C 
HETATM   33  NBI   D T 601       8.627   1.582  -6.811  1.00 58.88    -0.364 N 
HETATM   34  CAO   D T 601       9.006   2.878  -7.364  1.00 56.16     0.121 C 
HETATM   35  CAS   D T 601       8.620   1.353  -5.395  1.00 59.74     0.121 C 
HETATM   36  CAQ   D T 601       8.706  -0.114  -5.105  1.00 48.54     0.121 C 
ENDBRANCH  29  30
ENDBRANCH  28  29
ENDBRANCH  27  28
ENDBRANCH  26  27
ENDBRANCH   9  26
TORSDOF 9
ENDMDL
