MODEL 1
REMARK VINA RESULT:    -7.880      0.000      0.000
REMARK INTER + INTRA:         -12.880
REMARK INTER:                 -12.027
REMARK INTRA:                  -0.853
REMARK UNBOUND:                -0.853
REMARK  9 active torsions:
REMARK  status: ('A' for Active; 'I' for Inactive)
REMARK    1  A    between atoms: O02_2  and  CAX_24 
REMARK    2  A    between atoms: CAC_3  and  CAM_13 
REMARK    3  A    between atoms: CAC_3  and  NBH_34 
REMARK    4  A    between atoms: CAM_13  and  CAN_14 
REMARK    5  A    between atoms: CAN_14  and  OAW_23 
REMARK    6  A    between atoms: NAU_21  and  CBB_28 
REMARK    7  A    between atoms: NAU_21  and  CBE_31 
REMARK    8  A    between atoms: OAV_22  and  CBC_29 
REMARK    9  A    between atoms: OAW_23  and  CBD_30 
ROOT
HETATM    1  NAD   D T 601       6.172   5.027   8.898  1.00 36.67    -0.191 NA
HETATM    2  CAG   D T 601       5.931   5.654   7.973  1.00 40.62     0.100 C 
HETATM    3  CAH   D T 601       6.375   6.510   5.532  1.00 40.82     0.163 A 
HETATM    4  CAK   D T 601       4.483   9.040   3.228  1.00 41.85     0.098 A 
HETATM    5  CAL   D T 601       2.761   9.126   5.713  1.00 41.71     0.082 A 
HETATM    6  NAT   D T 601       6.018   7.325   4.405  1.00 40.70    -0.269 NA
HETATM    7  CBA   D T 601       5.560   6.509   6.795  1.00 42.63     0.088 A 
HETATM    8  CBC   D T 601       2.421   9.956   4.525  1.00 44.75     0.095 A 
HETATM    9  CBD   D T 601       3.266   9.914   3.303  1.00 42.74     0.096 A 
HETATM   10  CBE   D T 601       4.327   7.388   6.885  1.00 42.11     0.086 A 
HETATM   11  CBF   D T 601       4.857   8.185   4.428  1.00 42.67     0.059 A 
HETATM   12  CBG   D T 601       3.977   8.243   5.665  1.00 42.82     0.016 A 
ENDROOT
BRANCH  10  13
HETATM   13  NAU   D T 601       3.485   7.438   8.092  1.00 38.25    -0.249 NA
BRANCH  13  14
HETATM   14  CBB   D T 601       2.286   6.620   8.127  1.00 33.72     0.072 A 
HETATM   15  CAJ   D T 601       1.243   6.801   7.050  1.00 33.21     0.098 A 
HETATM   16  CAX   D T 601      -0.003   5.972   7.089  1.00 37.63     0.085 A 
HETATM   17  CAY   D T 601      -0.190   4.968   8.195  1.00 36.54     0.059 A 
HETATM   18 CL1    D T 601      -1.610   3.995   8.264  1.00 50.79    -0.085 Cl
HETATM   19  CAI   D T 601       0.836   4.785   9.261  1.00 37.60     0.079 A 
HETATM   20  CAZ   D T 601       2.076   5.612   9.229  1.00 38.37     0.055 A 
HETATM   21 CL2    D T 601       3.251   5.364  10.475  1.00 54.43    -0.085 Cl
BRANCH  16  22
HETATM   22  O02   D T 601      -0.969   6.126   6.111  1.00 44.36    -0.331 OA
HETATM   23  C01   D T 601      -0.989   7.254   5.297  1.00 40.82     0.181 C 
ENDBRANCH  16  22
ENDBRANCH  13  14
ENDBRANCH  10  13
BRANCH   8  24
HETATM   24  OAV   D T 601       1.306  10.762   4.561  1.00 49.70    -0.330 OA
HETATM   25  CAA   D T 601       0.521  10.747   5.711  1.00 47.61     0.181 C 
ENDBRANCH   8  24
BRANCH   9  26
HETATM   26  OAW   D T 601       2.899  10.700   2.213  1.00 41.04    -0.333 OA
BRANCH  26  27
HETATM   27  CAN   D T 601       3.358  12.013   2.115  1.00 40.75     0.150 C 
BRANCH  27  28
HETATM   28  CAM   D T 601       4.109  12.180   0.794  1.00 48.68     0.056 C 
BRANCH  28  29
HETATM   29  CAC   D T 601       3.529  11.237  -0.248  1.00 51.94     0.100 C 
BRANCH  29  30
HETATM   30  NBH   D T 601       2.383  11.934  -0.926  1.00 61.07    -0.365 N 
HETATM   31  CAP   D T 601       1.117  11.271  -1.269  1.00 58.61     0.121 C 
HETATM   32  CAR   D T 601       0.022  12.350  -1.372  1.00 61.37     0.121 C 
HETATM   33  NBI   D T 601       0.398  13.371  -2.321  1.00 69.25    -0.364 N 
HETATM   34  CAO   D T 601      -0.691  14.243  -2.745  1.00 67.03     0.121 C 
HETATM   35  CAS   D T 601       1.696  13.927  -2.047  1.00 66.03     0.121 C 
HETATM   36  CAQ   D T 601       2.738  12.854  -1.982  1.00 59.16     0.121 C 
ENDBRANCH  29  30
ENDBRANCH  28  29
ENDBRANCH  27  28
ENDBRANCH  26  27
ENDBRANCH   9  26
TORSDOF 9
ENDMDL
MODEL 2
REMARK VINA RESULT:    -7.804      4.724      9.391
REMARK INTER + INTRA:         -12.763
REMARK INTER:                 -11.424
REMARK INTRA:                  -1.339
REMARK UNBOUND:                -0.853
REMARK  9 active torsions:
REMARK  status: ('A' for Active; 'I' for Inactive)
REMARK    1  A    between atoms: O02_2  and  CAX_24 
REMARK    2  A    between atoms: CAC_3  and  CAM_13 
REMARK    3  A    between atoms: CAC_3  and  NBH_34 
REMARK    4  A    between atoms: CAM_13  and  CAN_14 
REMARK    5  A    between atoms: CAN_14  and  OAW_23 
REMARK    6  A    between atoms: NAU_21  and  CBB_28 
REMARK    7  A    between atoms: NAU_21  and  CBE_31 
REMARK    8  A    between atoms: OAV_22  and  CBC_29 
REMARK    9  A    between atoms: OAW_23  and  CBD_30 
ROOT
HETATM    1  NAD   D T 601       4.461   9.850   4.390  1.00 36.67    -0.191 NA
HETATM    2  CAG   D T 601       4.731   8.950   5.040  1.00 40.62     0.100 C 
HETATM    3  CAH   D T 601       6.251   6.928   5.743  1.00 40.82     0.163 A 
HETATM    4  CAK   D T 601       5.952   4.248   8.574  1.00 41.85     0.098 A 
HETATM    5  CAL   D T 601       3.446   5.872   9.052  1.00 41.71     0.082 A 
HETATM    6  NAT   D T 601       6.531   5.806   6.594  1.00 40.70    -0.269 NA
HETATM    7  CBA   D T 601       5.023   7.774   5.929  1.00 42.63     0.088 A 
HETATM    8  CBC   D T 601       3.769   4.704   9.915  1.00 44.75     0.095 A 
HETATM    9  CBD   D T 601       5.000   3.905   9.682  1.00 42.74     0.096 A 
HETATM   10  CBE   D T 601       4.051   7.439   7.045  1.00 42.11     0.086 A 
HETATM   11  CBF   D T 601       5.645   5.434   7.673  1.00 42.67     0.059 A 
HETATM   12  CBG   D T 601       4.381   6.237   7.932  1.00 42.82     0.016 A 
ENDROOT
BRANCH  10  13
HETATM   13  NAU   D T 601       2.828   8.222   7.283  1.00 38.25    -0.249 NA
BRANCH  13  14
HETATM   14  CBB   D T 601       1.589   7.759   6.685  1.00 33.72     0.072 A 
HETATM   15  CAJ   D T 601       1.040   6.411   7.088  1.00 33.21     0.098 A 
HETATM   16  CAX   D T 601      -0.229   5.919   6.464  1.00 37.63     0.085 A 
HETATM   17  CAY   D T 601      -0.938   6.779   5.452  1.00 36.54     0.059 A 
HETATM   18 CL1    D T 601      -2.403   6.244   4.720  1.00 50.79    -0.085 Cl
HETATM   19  CAI   D T 601      -0.401   8.110   5.050  1.00 37.60     0.079 A 
HETATM   20  CAZ   D T 601       0.865   8.602   5.665  1.00 38.37     0.055 A 
HETATM   21 CL2    D T 601       1.453  10.157   5.184  1.00 54.43    -0.085 Cl
BRANCH  16  22
HETATM   22  O02   D T 601      -0.745   4.687   6.820  1.00 44.36    -0.331 OA
HETATM   23  C01   D T 601      -0.936   4.352   8.157  1.00 40.82     0.181 C 
ENDBRANCH  16  22
ENDBRANCH  13  14
ENDBRANCH  10  13
BRANCH   8  24
HETATM   24  OAV   D T 601       2.919   4.370  10.945  1.00 49.70    -0.330 OA
HETATM   25  CAA   D T 601       1.870   3.494  10.675  1.00 47.61     0.181 C 
ENDBRANCH   8  24
BRANCH   9  26
HETATM   26  OAW   D T 601       5.264   2.829  10.525  1.00 41.04    -0.333 OA
BRANCH  26  27
HETATM   27  CAN   D T 601       6.448   2.793  11.260  1.00 40.75     0.150 C 
BRANCH  27  28
HETATM   28  CAM   D T 601       6.508   4.021  12.168  1.00 48.68     0.056 C 
BRANCH  28  29
HETATM   29  CAC   D T 601       7.958   4.386  12.442  1.00 51.94     0.100 C 
BRANCH  29  30
HETATM   30  NBH   D T 601       8.570   4.875  11.160  1.00 61.07    -0.365 N 
HETATM   31  CAP   D T 601       9.652   4.173  10.455  1.00 58.61     0.121 C 
HETATM   32  CAR   D T 601       9.606   4.585   8.970  1.00 61.37     0.121 C 
HETATM   33  NBI   D T 601       9.685   6.020   8.836  1.00 69.25    -0.364 N 
HETATM   34  CAO   D T 601       9.989   6.492   7.490  1.00 67.03     0.121 C 
HETATM   35  CAS   D T 601       8.698   6.704   9.629  1.00 66.03     0.121 C 
HETATM   36  CAQ   D T 601       8.791   6.301  11.068  1.00 59.16     0.121 C 
ENDBRANCH  29  30
ENDBRANCH  28  29
ENDBRANCH  27  28
ENDBRANCH  26  27
ENDBRANCH   9  26
TORSDOF 9
ENDMDL
MODEL 3
REMARK VINA RESULT:    -7.766      4.683     11.000
REMARK INTER + INTRA:         -12.706
REMARK INTER:                 -11.894
REMARK INTRA:                  -0.812
REMARK UNBOUND:                -0.853
REMARK  9 active torsions:
REMARK  status: ('A' for Active; 'I' for Inactive)
REMARK    1  A    between atoms: O02_2  and  CAX_24 
REMARK    2  A    between atoms: CAC_3  and  CAM_13 
REMARK    3  A    between atoms: CAC_3  and  NBH_34 
REMARK    4  A    between atoms: CAM_13  and  CAN_14 
REMARK    5  A    between atoms: CAN_14  and  OAW_23 
REMARK    6  A    between atoms: NAU_21  and  CBB_28 
REMARK    7  A    between atoms: NAU_21  and  CBE_31 
REMARK    8  A    between atoms: OAV_22  and  CBC_29 
REMARK    9  A    between atoms: OAW_23  and  CBD_30 
ROOT
HETATM    1  NAD   D T 601       4.299   9.992   4.306  1.00 36.67    -0.191 NA
HETATM    2  CAG   D T 601       4.618   9.098   4.943  1.00 40.62     0.100 C 
HETATM    3  CAH   D T 601       6.223   7.125   5.590  1.00 40.82     0.163 A 
HETATM    4  CAK   D T 601       6.098   4.426   8.417  1.00 41.85     0.098 A 
HETATM    5  CAL   D T 601       3.556   5.967   8.978  1.00 41.71     0.082 A 
HETATM    6  NAT   D T 601       6.565   6.009   6.428  1.00 40.70    -0.269 NA
HETATM    7  CBA   D T 601       4.975   7.929   5.817  1.00 42.63     0.088 A 
HETATM    8  CBC   D T 601       3.943   4.806   9.826  1.00 44.75     0.095 A 
HETATM    9  CBD   D T 601       5.192   4.049   9.552  1.00 42.74     0.096 A 
HETATM   10  CBE   D T 601       4.049   7.560   6.961  1.00 42.11     0.086 A 
HETATM   11  CBF   D T 601       5.725   5.605   7.532  1.00 42.67     0.059 A 
HETATM   12  CBG   D T 601       4.444   6.365   7.833  1.00 42.82     0.016 A 
ENDROOT
BRANCH  10  13
HETATM   13  NAU   D T 601       2.809   8.301   7.240  1.00 38.25    -0.249 NA
BRANCH  13  14
HETATM   14  CBB   D T 601       1.566   7.796   6.684  1.00 33.72     0.072 A 
HETATM   15  CAJ   D T 601       1.082   6.427   7.099  1.00 33.21     0.098 A 
HETATM   16  CAX   D T 601      -0.191   5.892   6.518  1.00 37.63     0.085 A 
HETATM   17  CAY   D T 601      -0.966   6.730   5.537  1.00 36.54     0.059 A 
HETATM   18 CL1    D T 601      -2.436   6.145   4.856  1.00 50.79    -0.085 Cl
HETATM   19  CAI   D T 601      -0.492   8.082   5.123  1.00 37.60     0.079 A 
HETATM   20  CAZ   D T 601       0.776   8.616   5.695  1.00 38.37     0.055 A 
HETATM   21 CL2    D T 601       1.290  10.194   5.203  1.00 54.43    -0.085 Cl
BRANCH  16  22
HETATM   22  O02   D T 601      -0.649   4.641   6.886  1.00 44.36    -0.331 OA
HETATM   23  C01   D T 601      -0.875   4.327   8.223  1.00 40.82     0.181 C 
ENDBRANCH  16  22
ENDBRANCH  13  14
ENDBRANCH  10  13
BRANCH   8  24
HETATM   24  OAV   D T 601       3.136   4.441  10.880  1.00 49.70    -0.330 OA
HETATM   25  CAA   D T 601       2.044   3.618  10.618  1.00 47.61     0.181 C 
ENDBRANCH   8  24
BRANCH   9  26
HETATM   26  OAW   D T 601       5.516   2.979  10.382  1.00 41.04    -0.333 OA
BRANCH  26  27
HETATM   27  CAN   D T 601       6.656   3.037  11.182  1.00 40.75     0.150 C 
BRANCH  27  28
HETATM   28  CAM   D T 601       6.335   2.441  12.552  1.00 48.68     0.056 C 
BRANCH  28  29
HETATM   29  CAC   D T 601       5.766   3.520  13.459  1.00 51.94     0.100 C 
BRANCH  29  30
HETATM   30  NBH   D T 601       6.895   4.107  14.258  1.00 61.07    -0.365 N 
HETATM   31  CAP   D T 601       7.482   5.427  13.988  1.00 58.61     0.121 C 
HETATM   32  CAR   D T 601       8.137   5.937  15.287  1.00 61.37     0.121 C 
HETATM   33  NBI   D T 601       9.100   4.983  15.782  1.00 69.25    -0.364 N 
HETATM   34  CAO   D T 601      10.010   5.503  16.796  1.00 67.03     0.121 C 
HETATM   35  CAS   D T 601       8.547   3.663  15.925  1.00 66.03     0.121 C 
HETATM   36  CAQ   D T 601       7.945   3.190  14.638  1.00 59.16     0.121 C 
ENDBRANCH  29  30
ENDBRANCH  28  29
ENDBRANCH  27  28
ENDBRANCH  26  27
ENDBRANCH   9  26
TORSDOF 9
ENDMDL
MODEL 4
REMARK VINA RESULT:    -7.499      1.729      3.228
REMARK INTER + INTRA:         -12.298
REMARK INTER:                 -11.200
REMARK INTRA:                  -1.098
REMARK UNBOUND:                -0.853
REMARK  9 active torsions:
REMARK  status: ('A' for Active; 'I' for Inactive)
REMARK    1  A    between atoms: O02_2  and  CAX_24 
REMARK    2  A    between atoms: CAC_3  and  CAM_13 
REMARK    3  A    between atoms: CAC_3  and  NBH_34 
REMARK    4  A    between atoms: CAM_13  and  CAN_14 
REMARK    5  A    between atoms: CAN_14  and  OAW_23 
REMARK    6  A    between atoms: NAU_21  and  CBB_28 
REMARK    7  A    between atoms: NAU_21  and  CBE_31 
REMARK    8  A    between atoms: OAV_22  and  CBC_29 
REMARK    9  A    between atoms: OAW_23  and  CBD_30 
ROOT
HETATM    1  NAD   D T 601       6.233   5.061   8.712  1.00 36.67    -0.191 NA
HETATM    2  CAG   D T 601       5.951   5.720   7.821  1.00 40.62     0.100 C 
HETATM    3  CAH   D T 601       6.281   6.658   5.392  1.00 40.82     0.163 A 
HETATM    4  CAK   D T 601       4.291   9.270   3.269  1.00 41.85     0.098 A 
HETATM    5  CAL   D T 601       2.689   9.274   5.834  1.00 41.71     0.082 A 
HETATM    6  NAT   D T 601       5.873   7.513   4.312  1.00 40.70    -0.269 NA
HETATM    7  CBA   D T 601       5.527   6.615   6.692  1.00 42.63     0.088 A 
HETATM    8  CBC   D T 601       2.296  10.145   4.693  1.00 44.75     0.095 A 
HETATM    9  CBD   D T 601       3.082  10.143   3.432  1.00 42.74     0.096 A 
HETATM   10  CBE   D T 601       4.303   7.493   6.871  1.00 42.11     0.086 A 
HETATM   11  CBF   D T 601       4.718   8.373   4.420  1.00 42.67     0.059 A 
HETATM   12  CBG   D T 601       3.898   8.390   5.699  1.00 42.82     0.016 A 
ENDROOT
BRANCH  10  13
HETATM   13  NAU   D T 601       3.519   7.504   8.117  1.00 38.25    -0.249 NA
BRANCH  13  14
HETATM   14  CBB   D T 601       2.305   6.710   8.171  1.00 33.72     0.072 A 
HETATM   15  CAJ   D T 601       1.217   6.964   7.154  1.00 33.21     0.098 A 
HETATM   16  CAX   D T 601      -0.044   6.160   7.214  1.00 37.63     0.085 A 
HETATM   17  CAY   D T 601      -0.203   5.109   8.280  1.00 36.54     0.059 A 
HETATM   18 CL1    D T 601      -1.640   4.163   8.371  1.00 50.79    -0.085 Cl
HETATM   19  CAI   D T 601       0.867   4.854   9.286  1.00 37.60     0.079 A 
HETATM   20  CAZ   D T 601       2.123   5.655   9.234  1.00 38.37     0.055 A 
HETATM   21 CL2    D T 601       3.349   5.324  10.410  1.00 54.43    -0.085 Cl
BRANCH  16  22
HETATM   22  O02   D T 601      -1.051   6.379   6.292  1.00 44.36    -0.331 OA
HETATM   23  C01   D T 601      -0.822   7.145   5.153  1.00 40.82     0.181 C 
ENDBRANCH  16  22
ENDBRANCH  13  14
ENDBRANCH  10  13
BRANCH   8  24
HETATM   24  OAV   D T 601       1.186  10.951   4.810  1.00 49.70    -0.330 OA
HETATM   25  CAA   D T 601       0.327  10.735   5.884  1.00 47.61     0.181 C 
ENDBRANCH   8  24
BRANCH   9  26
HETATM   26  OAW   D T 601       2.665  10.967   2.388  1.00 41.04    -0.333 OA
BRANCH  26  27
HETATM   27  CAN   D T 601       2.975  10.633   1.071  1.00 40.75     0.150 C 
BRANCH  27  28
HETATM   28  CAM   D T 601       2.783  11.864   0.186  1.00 48.68     0.056 C 
BRANCH  28  29
HETATM   29  CAC   D T 601       4.119  12.286  -0.402  1.00 51.94     0.100 C 
BRANCH  29  30
HETATM   30  NBH   D T 601       5.172  12.125   0.658  1.00 61.07    -0.365 N 
HETATM   31  CAP   D T 601       5.483  13.157   1.658  1.00 58.61     0.121 C 
HETATM   32  CAR   D T 601       6.120  12.466   2.880  1.00 61.37     0.121 C 
HETATM   33  NBI   D T 601       7.276  11.696   2.487  1.00 69.25    -0.364 N 
HETATM   34  CAO   D T 601       8.140  11.286   3.587  1.00 67.03     0.121 C 
HETATM   35  CAS   D T 601       6.988  10.774   1.420  1.00 66.03     0.121 C 
HETATM   36  CAQ   D T 601       6.398  11.484   0.241  1.00 59.16     0.121 C 
ENDBRANCH  29  30
ENDBRANCH  28  29
ENDBRANCH  27  28
ENDBRANCH  26  27
ENDBRANCH   9  26
TORSDOF 9
ENDMDL
MODEL 5
REMARK VINA RESULT:    -7.422      3.782      6.293
REMARK INTER + INTRA:         -12.180
REMARK INTER:                 -10.381
REMARK INTRA:                  -1.799
REMARK UNBOUND:                -0.853
REMARK  9 active torsions:
REMARK  status: ('A' for Active; 'I' for Inactive)
REMARK    1  A    between atoms: O02_2  and  CAX_24 
REMARK    2  A    between atoms: CAC_3  and  CAM_13 
REMARK    3  A    between atoms: CAC_3  and  NBH_34 
REMARK    4  A    between atoms: CAM_13  and  CAN_14 
REMARK    5  A    between atoms: CAN_14  and  OAW_23 
REMARK    6  A    between atoms: NAU_21  and  CBB_28 
REMARK    7  A    between atoms: NAU_21  and  CBE_31 
REMARK    8  A    between atoms: OAV_22  and  CBC_29 
REMARK    9  A    between atoms: OAW_23  and  CBD_30 
ROOT
HETATM    1  NAD   D T 601       3.082   5.348   9.619  1.00 36.67    -0.191 NA
HETATM    2  CAG   D T 601       3.708   5.723   8.739  1.00 40.62     0.100 C 
HETATM    3  CAH   D T 601       5.772   5.643   7.119  1.00 40.82     0.163 A 
HETATM    4  CAK   D T 601       6.847   7.867   4.088  1.00 41.85     0.098 A 
HETATM    5  CAL   D T 601       4.272   9.223   4.911  1.00 41.71     0.082 A 
HETATM    6  NAT   D T 601       6.513   6.166   6.005  1.00 40.70    -0.269 NA
HETATM    7  CBA   D T 601       4.486   6.272   7.576  1.00 42.63     0.088 A 
HETATM    8  CBC   D T 601       5.066   9.736   3.762  1.00 44.75     0.095 A 
HETATM    9  CBD   D T 601       6.331   9.070   3.356  1.00 42.74     0.096 A 
HETATM   10  CBE   D T 601       3.952   7.489   6.846  1.00 42.11     0.086 A 
HETATM   11  CBF   D T 601       6.059   7.323   5.269  1.00 42.67     0.059 A 
HETATM   12  CBG   D T 601       4.768   8.019   5.665  1.00 42.82     0.016 A 
ENDROOT
BRANCH  10  13
HETATM   13  NAU   D T 601       2.701   8.157   7.241  1.00 38.25    -0.249 NA
BRANCH  13  14
HETATM   14  CBB   D T 601       1.459   7.698   6.646  1.00 33.72     0.072 A 
HETATM   15  CAJ   D T 601       0.872   6.382   7.099  1.00 33.21     0.098 A 
HETATM   16  CAX   D T 601      -0.400   5.895   6.477  1.00 37.63     0.085 A 
HETATM   17  CAY   D T 601      -1.074   6.727   5.419  1.00 36.54     0.059 A 
HETATM   18 CL1    D T 601      -2.541   6.195   4.690  1.00 50.79    -0.085 Cl
HETATM   19  CAI   D T 601      -0.498   8.026   4.968  1.00 37.60     0.079 A 
HETATM   20  CAZ   D T 601       0.771   8.513   5.579  1.00 38.37     0.055 A 
HETATM   21 CL2    D T 601       1.404  10.031   5.041  1.00 54.43    -0.085 Cl
BRANCH  16  22
HETATM   22  O02   D T 601      -0.952   4.692   6.879  1.00 44.36    -0.331 OA
HETATM   23  C01   D T 601      -1.194   4.431   8.225  1.00 40.82     0.181 C 
ENDBRANCH  16  22
ENDBRANCH  13  14
ENDBRANCH  10  13
BRANCH   8  24
HETATM   24  OAV   D T 601       4.613  10.834   3.066  1.00 49.70    -0.330 OA
HETATM   25  CAA   D T 601       3.634  10.639   2.095  1.00 47.61     0.181 C 
ENDBRANCH   8  24
BRANCH   9  26
HETATM   26  OAW   D T 601       7.031   9.581   2.265  1.00 41.04    -0.333 OA
BRANCH  26  27
HETATM   27  CAN   D T 601       8.354   9.992   2.418  1.00 40.75     0.150 C 
BRANCH  27  28
HETATM   28  CAM   D T 601       8.380  11.316   3.181  1.00 48.68     0.056 C 
BRANCH  28  29
HETATM   29  CAC   D T 601       9.511  11.300   4.197  1.00 51.94     0.100 C 
BRANCH  29  30
HETATM   30  NBH   D T 601       9.024  10.594   5.431  1.00 61.07    -0.365 N 
HETATM   31  CAP   D T 601       8.169  11.227   6.445  1.00 58.61     0.121 C 
HETATM   32  CAR   D T 601       7.405  10.115   7.191  1.00 61.37     0.121 C 
HETATM   33  NBI   D T 601       8.323   9.153   7.751  1.00 69.25    -0.364 N 
HETATM   34  CAO   D T 601       7.742   8.262   8.749  1.00 67.03     0.121 C 
HETATM   35  CAS   D T 601       9.240   8.631   6.773  1.00 66.03     0.121 C 
HETATM   36  CAQ   D T 601       9.983   9.736   6.089  1.00 59.16     0.121 C 
ENDBRANCH  29  30
ENDBRANCH  28  29
ENDBRANCH  27  28
ENDBRANCH  26  27
ENDBRANCH   9  26
TORSDOF 9
ENDMDL
MODEL 6
REMARK VINA RESULT:    -7.417      2.142      3.518
REMARK INTER + INTRA:         -12.173
REMARK INTER:                 -11.985
REMARK INTRA:                  -0.188
REMARK UNBOUND:                -0.853
REMARK  9 active torsions:
REMARK  status: ('A' for Active; 'I' for Inactive)
REMARK    1  A    between atoms: O02_2  and  CAX_24 
REMARK    2  A    between atoms: CAC_3  and  CAM_13 
REMARK    3  A    between atoms: CAC_3  and  NBH_34 
REMARK    4  A    between atoms: CAM_13  and  CAN_14 
REMARK    5  A    between atoms: CAN_14  and  OAW_23 
REMARK    6  A    between atoms: NAU_21  and  CBB_28 
REMARK    7  A    between atoms: NAU_21  and  CBE_31 
REMARK    8  A    between atoms: OAV_22  and  CBC_29 
REMARK    9  A    between atoms: OAW_23  and  CBD_30 
ROOT
HETATM    1  NAD   D T 601       4.009   3.620  11.771  1.00 36.67    -0.191 NA
HETATM    2  CAG   D T 601       4.433   4.050  10.800  1.00 40.62     0.100 C 
HETATM    3  CAH   D T 601       6.254   4.269   8.923  1.00 40.82     0.163 A 
HETATM    4  CAK   D T 601       6.470   6.448   5.683  1.00 41.85     0.098 A 
HETATM    5  CAL   D T 601       3.792   7.320   6.786  1.00 41.71     0.082 A 
HETATM    6  NAT   D T 601       6.730   4.851   7.699  1.00 40.70    -0.269 NA
HETATM    7  CBA   D T 601       4.932   4.660   9.521  1.00 42.63     0.088 A 
HETATM    8  CBC   D T 601       4.316   7.900   5.519  1.00 44.75     0.095 A 
HETATM    9  CBD   D T 601       5.632   7.472   4.976  1.00 42.74     0.096 A 
HETATM   10  CBE   D T 601       4.074   5.694   8.818  1.00 42.11     0.086 A 
HETATM   11  CBF   D T 601       5.961   5.841   6.981  1.00 42.67     0.059 A 
HETATM   12  CBG   D T 601       4.613   6.293   7.516  1.00 42.82     0.016 A 
ENDROOT
BRANCH  10  13
HETATM   13  NAU   D T 601       2.771   6.127   9.348  1.00 38.25    -0.249 NA
BRANCH  13  14
HETATM   14  CBB   D T 601       1.583   5.850   8.561  1.00 33.72     0.072 A 
HETATM   15  CAJ   D T 601       1.257   6.743   7.387  1.00 33.21     0.098 A 
HETATM   16  CAX   D T 601       0.025   6.473   6.581  1.00 37.63     0.085 A 
HETATM   17  CAY   D T 601      -0.861   5.314   6.949  1.00 36.54     0.059 A 
HETATM   18 CL1    D T 601      -2.283   4.974   6.037  1.00 50.79    -0.085 Cl
HETATM   19  CAI   D T 601      -0.545   4.429   8.107  1.00 37.60     0.079 A 
HETATM   20  CAZ   D T 601       0.677   4.697   8.916  1.00 38.37     0.055 A 
HETATM   21 CL2    D T 601       1.021   3.643  10.245  1.00 54.43    -0.085 Cl
BRANCH  16  22
HETATM   22  O02   D T 601      -0.289   7.281   5.503  1.00 44.36    -0.331 OA
HETATM   23  C01   D T 601      -0.375   8.662   5.647  1.00 40.82     0.181 C 
ENDBRANCH  16  22
ENDBRANCH  13  14
ENDBRANCH  10  13
BRANCH   8  24
HETATM   24  OAV   D T 601       3.566   8.836   4.844  1.00 49.70    -0.330 OA
HETATM   25  CAA   D T 601       3.117   9.951   5.547  1.00 47.61     0.181 C 
ENDBRANCH   8  24
BRANCH   9  26
HETATM   26  OAW   D T 601       6.073   8.035   3.781  1.00 41.04    -0.333 OA
BRANCH  26  27
HETATM   27  CAN   D T 601       7.220   8.827   3.766  1.00 40.75     0.150 C 
BRANCH  27  28
HETATM   28  CAM   D T 601       6.818  10.290   3.956  1.00 48.68     0.056 C 
BRANCH  28  29
HETATM   29  CAC   D T 601       7.075  11.063   2.673  1.00 51.94     0.100 C 
BRANCH  29  30
HETATM   30  NBH   D T 601       5.753  11.327   2.010  1.00 61.07    -0.365 N 
HETATM   31  CAP   D T 601       5.589  11.490   0.559  1.00 58.61     0.121 C 
HETATM   32  CAR   D T 601       4.130  11.145   0.198  1.00 61.37     0.121 C 
HETATM   33  NBI   D T 601       3.211  11.953   0.962  1.00 69.25    -0.364 N 
HETATM   34  CAO   D T 601       1.840  11.955   0.465  1.00 67.03     0.121 C 
HETATM   35  CAS   D T 601       3.459  11.883   2.377  1.00 66.03     0.121 C 
HETATM   36  CAQ   D T 601       4.876  12.251   2.693  1.00 59.16     0.121 C 
ENDBRANCH  29  30
ENDBRANCH  28  29
ENDBRANCH  27  28
ENDBRANCH  26  27
ENDBRANCH   9  26
TORSDOF 9
ENDMDL
MODEL 7
REMARK VINA RESULT:    -7.246      3.254      4.449
REMARK INTER + INTRA:         -11.911
REMARK INTER:                 -10.679
REMARK INTRA:                  -1.232
REMARK UNBOUND:                -0.853
REMARK  9 active torsions:
REMARK  status: ('A' for Active; 'I' for Inactive)
REMARK    1  A    between atoms: O02_2  and  CAX_24 
REMARK    2  A    between atoms: CAC_3  and  CAM_13 
REMARK    3  A    between atoms: CAC_3  and  NBH_34 
REMARK    4  A    between atoms: CAM_13  and  CAN_14 
REMARK    5  A    between atoms: CAN_14  and  OAW_23 
REMARK    6  A    between atoms: NAU_21  and  CBB_28 
REMARK    7  A    between atoms: NAU_21  and  CBE_31 
REMARK    8  A    between atoms: OAV_22  and  CBC_29 
REMARK    9  A    between atoms: OAW_23  and  CBD_30 
ROOT
HETATM    1  NAD   D T 601       2.988   5.492   9.986  1.00 36.67    -0.191 NA
HETATM    2  CAG   D T 601       3.605   5.819   9.081  1.00 40.62     0.100 C 
HETATM    3  CAH   D T 601       5.673   5.682   7.471  1.00 40.82     0.163 A 
HETATM    4  CAK   D T 601       6.688   7.708   4.285  1.00 41.85     0.098 A 
HETATM    5  CAL   D T 601       4.072   9.043   5.006  1.00 41.71     0.082 A 
HETATM    6  NAT   D T 601       6.401   6.144   6.322  1.00 40.70    -0.269 NA
HETATM    7  CBA   D T 601       4.368   6.304   7.882  1.00 42.63     0.088 A 
HETATM    8  CBC   D T 601       4.852   9.494   3.822  1.00 44.75     0.095 A 
HETATM    9  CBD   D T 601       6.138   8.838   3.466  1.00 42.74     0.096 A 
HETATM   10  CBE   D T 601       3.799   7.447   7.063  1.00 42.11     0.086 A 
HETATM   11  CBF   D T 601       5.914   7.229   5.503  1.00 42.67     0.059 A 
HETATM   12  CBG   D T 601       4.601   7.914   5.846  1.00 42.82     0.016 A 
ENDROOT
BRANCH  10  13
HETATM   13  NAU   D T 601       2.528   8.105   7.409  1.00 38.25    -0.249 NA
BRANCH  13  14
HETATM   14  CBB   D T 601       1.310   7.612   6.791  1.00 33.72     0.072 A 
HETATM   15  CAJ   D T 601       0.769   6.266   7.211  1.00 33.21     0.098 A 
HETATM   16  CAX   D T 601      -0.478   5.745   6.566  1.00 37.63     0.085 A 
HETATM   17  CAY   D T 601      -1.173   6.573   5.519  1.00 36.54     0.059 A 
HETATM   18 CL1    D T 601      -2.612   6.002   4.763  1.00 50.79    -0.085 Cl
HETATM   19  CAI   D T 601      -0.643   7.902   5.100  1.00 37.60     0.079 A 
HETATM   20  CAZ   D T 601       0.601   8.423   5.735  1.00 38.37     0.055 A 
HETATM   21 CL2    D T 601       1.181   9.975   5.234  1.00 54.43    -0.085 Cl
BRANCH  16  22
HETATM   22  O02   D T 601      -0.988   4.514   6.937  1.00 44.36    -0.331 OA
HETATM   23  C01   D T 601      -0.892   4.068   8.252  1.00 40.82     0.181 C 
ENDBRANCH  16  22
ENDBRANCH  13  14
ENDBRANCH  10  13
BRANCH   8  24
HETATM   24  OAV   D T 601       4.368  10.523   3.047  1.00 49.70    -0.330 OA
HETATM   25  CAA   D T 601       3.377  10.233   2.112  1.00 47.61     0.181 C 
ENDBRANCH   8  24
BRANCH   9  26
HETATM   26  OAW   D T 601       6.824   9.289   2.341  1.00 41.04    -0.333 OA
BRANCH  26  27
HETATM   27  CAN   D T 601       8.031   9.970   2.488  1.00 40.75     0.150 C 
BRANCH  27  28
HETATM   28  CAM   D T 601       8.380  10.656   1.167  1.00 48.68     0.056 C 
BRANCH  28  29
HETATM   29  CAC   D T 601       7.151  11.363   0.617  1.00 51.94     0.100 C 
BRANCH  29  30
HETATM   30  NBH   D T 601       6.842  12.532   1.510  1.00 61.07    -0.365 N 
HETATM   31  CAP   D T 601       5.554  13.240   1.504  1.00 58.61     0.121 C 
HETATM   32  CAR   D T 601       5.376  13.924   2.874  1.00 61.37     0.121 C 
HETATM   33  NBI   D T 601       6.494  14.791   3.162  1.00 69.25    -0.364 N 
HETATM   34  CAO   D T 601       6.272  15.732   4.254  1.00 67.03     0.121 C 
HETATM   35  CAS   D T 601       7.759  14.116   3.043  1.00 66.03     0.121 C 
HETATM   36  CAQ   D T 601       7.909  13.489   1.692  1.00 59.16     0.121 C 
ENDBRANCH  29  30
ENDBRANCH  28  29
ENDBRANCH  27  28
ENDBRANCH  26  27
ENDBRANCH   9  26
TORSDOF 9
ENDMDL
MODEL 8
REMARK VINA RESULT:    -7.180      2.370      3.375
REMARK INTER + INTRA:         -11.810
REMARK INTER:                 -10.855
REMARK INTRA:                  -0.956
REMARK UNBOUND:                -0.853
REMARK  9 active torsions:
REMARK  status: ('A' for Active; 'I' for Inactive)
REMARK    1  A    between atoms: O02_2  and  CAX_24 
REMARK    2  A    between atoms: CAC_3  and  CAM_13 
REMARK    3  A    between atoms: CAC_3  and  NBH_34 
REMARK    4  A    between atoms: CAM_13  and  CAN_14 
REMARK    5  A    between atoms: CAN_14  and  OAW_23 
REMARK    6  A    between atoms: NAU_21  and  CBB_28 
REMARK    7  A    between atoms: NAU_21  and  CBE_31 
REMARK    8  A    between atoms: OAV_22  and  CBC_29 
REMARK    9  A    between atoms: OAW_23  and  CBD_30 
ROOT
HETATM    1  NAD   D T 601       3.310   5.611   9.714  1.00 36.67    -0.191 NA
HETATM    2  CAG   D T 601       3.834   5.958   8.758  1.00 40.62     0.100 C 
HETATM    3  CAH   D T 601       5.757   5.887   6.974  1.00 40.82     0.163 A 
HETATM    4  CAK   D T 601       6.419   7.939   3.711  1.00 41.85     0.098 A 
HETATM    5  CAL   D T 601       3.831   9.185   4.660  1.00 41.71     0.082 A 
HETATM    6  NAT   D T 601       6.365   6.371   5.766  1.00 40.70    -0.269 NA
HETATM    7  CBA   D T 601       4.472   6.465   7.497  1.00 42.63     0.088 A 
HETATM    8  CBC   D T 601       4.489   9.659   3.412  1.00 44.75     0.095 A 
HETATM    9  CBD   D T 601       5.760   9.047   2.944  1.00 42.74     0.096 A 
HETATM   10  CBE   D T 601       3.795   7.586   6.732  1.00 42.11     0.086 A 
HETATM   11  CBF   D T 601       5.771   7.437   4.992  1.00 42.67     0.059 A 
HETATM   12  CBG   D T 601       4.471   8.077   5.450  1.00 42.82     0.016 A 
ENDROOT
BRANCH  10  13
HETATM   13  NAU   D T 601       2.537   8.201   7.187  1.00 38.25    -0.249 NA
BRANCH  13  14
HETATM   14  CBB   D T 601       1.290   7.698   6.640  1.00 33.72     0.072 A 
HETATM   15  CAJ   D T 601       0.804   6.331   7.058  1.00 33.21     0.098 A 
HETATM   16  CAX   D T 601      -0.473   5.800   6.485  1.00 37.63     0.085 A 
HETATM   17  CAY   D T 601      -1.253   6.640   5.509  1.00 36.54     0.059 A 
HETATM   18 CL1    D T 601      -2.729   6.059   4.836  1.00 50.79    -0.085 Cl
HETATM   19  CAI   D T 601      -0.778   7.991   5.092  1.00 37.60     0.079 A 
HETATM   20  CAZ   D T 601       0.496   8.521   5.656  1.00 38.37     0.055 A 
HETATM   21 CL2    D T 601       1.011  10.098   5.160  1.00 54.43    -0.085 Cl
BRANCH  16  22
HETATM   22  O02   D T 601      -0.933   4.550   6.856  1.00 44.36    -0.331 OA
HETATM   23  C01   D T 601      -0.792   4.095   8.163  1.00 40.82     0.181 C 
ENDBRANCH  16  22
ENDBRANCH  13  14
ENDBRANCH  10  13
BRANCH   8  24
HETATM   24  OAV   D T 601       3.904  10.669   2.682  1.00 49.70    -0.330 OA
HETATM   25  CAA   D T 601       2.878  10.336   1.802  1.00 47.61     0.181 C 
ENDBRANCH   8  24
BRANCH   9  26
HETATM   26  OAW   D T 601       6.330   9.518   1.764  1.00 41.04    -0.333 OA
BRANCH  26  27
HETATM   27  CAN   D T 601       7.058  10.707   1.767  1.00 40.75     0.150 C 
BRANCH  27  28
HETATM   28  CAM   D T 601       7.335  11.125   0.323  1.00 48.68     0.056 C 
BRANCH  28  29
HETATM   29  CAC   D T 601       7.212  12.635   0.195  1.00 51.94     0.100 C 
BRANCH  29  30
HETATM   30  NBH   D T 601       6.038  12.938  -0.692  1.00 61.07    -0.365 N 
HETATM   31  CAP   D T 601       6.084  13.902  -1.800  1.00 58.61     0.121 C 
HETATM   32  CAR   D T 601       4.982  13.527  -2.811  1.00 61.37     0.121 C 
HETATM   33  NBI   D T 601       3.693  13.473  -2.164  1.00 69.25    -0.364 N 
HETATM   34  CAO   D T 601       2.553  13.464  -3.073  1.00 67.03     0.121 C 
HETATM   35  CAS   D T 601       3.692  12.621  -1.005  1.00 66.03     0.121 C 
HETATM   36  CAQ   D T 601       4.755  13.032  -0.034  1.00 59.16     0.121 C 
ENDBRANCH  29  30
ENDBRANCH  28  29
ENDBRANCH  27  28
ENDBRANCH  26  27
ENDBRANCH   9  26
TORSDOF 9
ENDMDL
MODEL 9
REMARK VINA RESULT:    -6.997      3.561      6.220
REMARK INTER + INTRA:         -11.532
REMARK INTER:                 -10.073
REMARK INTRA:                  -1.459
REMARK UNBOUND:                -0.853
REMARK  9 active torsions:
REMARK  status: ('A' for Active; 'I' for Inactive)
REMARK    1  A    between atoms: O02_2  and  CAX_24 
REMARK    2  A    between atoms: CAC_3  and  CAM_13 
REMARK    3  A    between atoms: CAC_3  and  NBH_34 
REMARK    4  A    between atoms: CAM_13  and  CAN_14 
REMARK    5  A    between atoms: CAN_14  and  OAW_23 
REMARK    6  A    between atoms: NAU_21  and  CBB_28 
REMARK    7  A    between atoms: NAU_21  and  CBE_31 
REMARK    8  A    between atoms: OAV_22  and  CBC_29 
REMARK    9  A    between atoms: OAW_23  and  CBD_30 
ROOT
HETATM    1  NAD   D T 601       9.874   4.086   8.037  1.00 36.67    -0.191 NA
HETATM    2  CAG   D T 601       9.048   4.841   7.803  1.00 40.62     0.100 C 
HETATM    3  CAH   D T 601       8.142   7.120   6.866  1.00 40.82     0.163 A 
HETATM    4  CAK   D T 601       4.555   8.664   6.672  1.00 41.85     0.098 A 
HETATM    5  CAL   D T 601       3.970   6.016   8.011  1.00 41.71     0.082 A 
HETATM    6  NAT   D T 601       7.059   8.025   6.603  1.00 40.70    -0.269 NA
HETATM    7  CBA   D T 601       7.916   5.790   7.529  1.00 42.63     0.088 A 
HETATM    8  CBC   D T 601       2.872   6.979   7.721  1.00 44.75     0.095 A 
HETATM    9  CBD   D T 601       3.158   8.280   7.062  1.00 42.74     0.096 A 
HETATM   10  CBE   D T 601       6.509   5.388   7.929  1.00 42.11     0.086 A 
HETATM   11  CBF   D T 601       5.697   7.702   6.960  1.00 42.67     0.059 A 
HETATM   12  CBG   D T 601       5.380   6.377   7.633  1.00 42.82     0.016 A 
ENDROOT
BRANCH  10  13
HETATM   13  NAU   D T 601       6.215   4.103   8.584  1.00 38.25    -0.249 NA
BRANCH  13  14
HETATM   14  CBB   D T 601       6.244   4.049  10.035  1.00 33.72     0.072 A 
HETATM   15  CAJ   D T 601       7.537   4.351  10.754  1.00 33.21     0.098 A 
HETATM   16  CAX   D T 601       7.578   4.282  12.249  1.00 37.63     0.085 A 
HETATM   17  CAY   D T 601       6.329   3.921  13.008  1.00 36.54     0.059 A 
HETATM   18 CL1    D T 601       6.343   3.838  14.729  1.00 50.79    -0.085 Cl
HETATM   19  CAI   D T 601       5.050   3.621  12.304  1.00 37.60     0.079 A 
HETATM   20  CAZ   D T 601       5.006   3.683  10.815  1.00 38.37     0.055 A 
HETATM   21 CL2    D T 601       3.501   3.342  10.030  1.00 54.43    -0.085 Cl
BRANCH  16  22
HETATM   22  O02   D T 601       8.753   4.555  12.924  1.00 44.36    -0.331 OA
HETATM   23  C01   D T 601       9.685   3.551  13.172  1.00 40.82     0.181 C 
ENDBRANCH  16  22
ENDBRANCH  13  14
ENDBRANCH  10  13
BRANCH   8  24
HETATM   24  OAV   D T 601       1.579   6.650   8.060  1.00 49.70    -0.330 OA
HETATM   25  CAA   D T 601       0.948   5.638   7.341  1.00 47.61     0.181 C 
ENDBRANCH   8  24
BRANCH   9  26
HETATM   26  OAW   D T 601       2.095   9.141   6.800  1.00 41.04    -0.333 OA
BRANCH  26  27
HETATM   27  CAN   D T 601       1.340   8.983   5.639  1.00 40.75     0.150 C 
BRANCH  27  28
HETATM   28  CAM   D T 601       1.900   9.900   4.552  1.00 48.68     0.056 C 
BRANCH  28  29
HETATM   29  CAC   D T 601       2.515   9.063   3.442  1.00 51.94     0.100 C 
BRANCH  29  30
HETATM   30  NBH   D T 601       3.864   9.637   3.113  1.00 61.07    -0.365 N 
HETATM   31  CAP   D T 601       5.084   8.826   2.988  1.00 58.61     0.121 C 
HETATM   32  CAR   D T 601       6.080   9.591   2.093  1.00 61.37     0.121 C 
HETATM   33  NBI   D T 601       6.333  10.910   2.622  1.00 69.25    -0.364 N 
HETATM   34  CAO   D T 601       7.497  11.582   2.058  1.00 67.03     0.121 C 
HETATM   35  CAS   D T 601       5.122  11.651   2.858  1.00 66.03     0.121 C 
HETATM   36  CAQ   D T 601       4.192  10.891   3.752  1.00 59.16     0.121 C 
ENDBRANCH  29  30
ENDBRANCH  28  29
ENDBRANCH  27  28
ENDBRANCH  26  27
ENDBRANCH   9  26
TORSDOF 9
ENDMDL
