MODEL 1
REMARK VINA RESULT:    -7.863      0.000      0.000
REMARK INTER + INTRA:         -13.169
REMARK INTER:                 -11.999
REMARK INTRA:                  -1.170
REMARK UNBOUND:                -1.170
REMARK  9 active torsions:
REMARK  status: ('A' for Active; 'I' for Inactive)
REMARK    1  A    between atoms: O02_2  and  CAX_24 
REMARK    2  A    between atoms: CAC_3  and  CAM_13 
REMARK    3  A    between atoms: CAC_3  and  NBH_34 
REMARK    4  A    between atoms: CAM_13  and  CAN_14 
REMARK    5  A    between atoms: CAN_14  and  OAW_23 
REMARK    6  A    between atoms: NAU_21  and  CBB_28 
REMARK    7  A    between atoms: NAU_21  and  CBE_31 
REMARK    8  A    between atoms: OAV_22  and  CBC_29 
REMARK    9  A    between atoms: OAW_23  and  CBD_30 
ROOT
HETATM    1  NAD   D T 601      -1.361  13.650  -1.331  1.00 36.67    -0.191 NA
HETATM    2  CAG   D T 601      -0.531  13.412  -0.583  1.00 40.62     0.100 C 
HETATM    3  CAH   D T 601       0.397  12.934   1.826  1.00 40.82     0.163 A 
HETATM    4  CAK   D T 601       3.986  12.171   3.178  1.00 41.85     0.098 A 
HETATM    5  CAL   D T 601       4.541  12.493   0.222  1.00 41.71     0.082 A 
HETATM    6  NAT   D T 601       1.487  12.638   2.714  1.00 40.70    -0.269 NA
HETATM    7  CBA   D T 601       0.608  13.106   0.348  1.00 42.63     0.088 A 
HETATM    8  CBC   D T 601       5.645  12.185   1.172  1.00 44.75     0.095 A 
HETATM    9  CBD   D T 601       5.373  12.025   2.625  1.00 42.74     0.096 A 
HETATM   10  CBE   D T 601       2.006  12.962  -0.226  1.00 42.11     0.086 A 
HETATM   11  CBF   D T 601       2.840  12.490   2.231  1.00 42.67     0.059 A 
HETATM   12  CBG   D T 601       3.142  12.647   0.751  1.00 42.82     0.016 A 
ENDROOT
BRANCH  10  13
HETATM   13  NAU   D T 601       2.286  13.120  -1.662  1.00 38.25    -0.249 NA
BRANCH  13  14
HETATM   14  CBB   D T 601       3.114  14.236  -2.082  1.00 33.72     0.072 A 
HETATM   15  CAJ   D T 601       2.670  15.641  -1.754  1.00 33.21     0.098 A 
HETATM   16  CAX   D T 601       3.511  16.799  -2.197  1.00 37.63     0.085 A 
HETATM   17  CAY   D T 601       4.786  16.539  -2.955  1.00 36.54     0.059 A 
HETATM   18 CL1    D T 601       5.778  17.849  -3.473  1.00 50.79    -0.085 Cl
HETATM   19  CAI   D T 601       5.229  15.155  -3.281  1.00 37.60     0.079 A 
HETATM   20  CAZ   D T 601       4.392  14.000  -2.847  1.00 38.37     0.055 A 
HETATM   21 CL2    D T 601       4.944  12.404  -3.232  1.00 54.43    -0.085 Cl
BRANCH  16  22
HETATM   22  O02   D T 601       3.120  18.092  -1.906  1.00 44.36    -0.331 OA
HETATM   23  C01   D T 601       2.369  18.834  -2.813  1.00 40.82     0.181 C 
ENDBRANCH  16  22
ENDBRANCH  13  14
ENDBRANCH  10  13
BRANCH   8  24
HETATM   24  OAV   D T 601       6.927  12.038   0.693  1.00 49.70    -0.330 OA
HETATM   25  CAA   D T 601       7.254  12.659  -0.509  1.00 47.61     0.181 C 
ENDBRANCH   8  24
BRANCH   9  26
HETATM   26  OAW   D T 601       6.438  11.725   3.472  1.00 41.04    -0.333 OA
BRANCH  26  27
HETATM   27  CAN   D T 601       6.618  10.422   3.928  1.00 40.75     0.150 C 
BRANCH  27  28
HETATM   28  CAM   D T 601       8.110  10.089   3.912  1.00 48.68     0.056 C 
BRANCH  28  29
HETATM   29  CAC   D T 601       8.922  11.374   3.879  1.00 51.94     0.100 C 
BRANCH  29  30
HETATM   30  NBH   D T 601      10.376  11.010   3.786  1.00 61.07    -0.365 N 
HETATM   31  CAP   D T 601      11.167  11.132   2.553  1.00 58.61     0.121 C 
HETATM   32  CAR   D T 601      12.652  11.260   2.946  1.00 61.37     0.121 C 
HETATM   33  NBI   D T 601      13.061  10.145   3.768  1.00 69.25    -0.364 N 
HETATM   34  CAO   D T 601      14.504   9.988   3.911  1.00 67.03     0.121 C 
HETATM   35  CAS   D T 601      12.204   9.957   4.907  1.00 66.03     0.121 C 
HETATM   36  CAQ   D T 601      10.773   9.810   4.487  1.00 59.16     0.121 C 
ENDBRANCH  29  30
ENDBRANCH  28  29
ENDBRANCH  27  28
ENDBRANCH  26  27
ENDBRANCH   9  26
TORSDOF 9
ENDMDL
MODEL 2
REMARK VINA RESULT:    -7.770      5.580      9.472
REMARK INTER + INTRA:         -13.028
REMARK INTER:                 -10.962
REMARK INTRA:                  -2.067
REMARK UNBOUND:                -1.170
REMARK  9 active torsions:
REMARK  status: ('A' for Active; 'I' for Inactive)
REMARK    1  A    between atoms: O02_2  and  CAX_24 
REMARK    2  A    between atoms: CAC_3  and  CAM_13 
REMARK    3  A    between atoms: CAC_3  and  NBH_34 
REMARK    4  A    between atoms: CAM_13  and  CAN_14 
REMARK    5  A    between atoms: CAN_14  and  OAW_23 
REMARK    6  A    between atoms: NAU_21  and  CBB_28 
REMARK    7  A    between atoms: NAU_21  and  CBE_31 
REMARK    8  A    between atoms: OAV_22  and  CBC_29 
REMARK    9  A    between atoms: OAW_23  and  CBD_30 
ROOT
HETATM    1  NAD   D T 601       1.693  19.522  -1.920  1.00 36.67    -0.191 NA
HETATM    2  CAG   D T 601       2.379  19.144  -2.753  1.00 40.62     0.100 C 
HETATM    3  CAH   D T 601       3.118  18.895  -5.259  1.00 40.82     0.163 A 
HETATM    4  CAK   D T 601       6.110  17.045  -6.966  1.00 41.85     0.098 A 
HETATM    5  CAL   D T 601       6.621  16.400  -4.056  1.00 41.71     0.082 A 
HETATM    6  NAT   D T 601       4.018  18.386  -6.256  1.00 40.70    -0.269 NA
HETATM    7  CBA   D T 601       3.318  18.610  -3.797  1.00 42.63     0.088 A 
HETATM    8  CBC   D T 601       7.532  15.891  -5.117  1.00 44.75     0.095 A 
HETATM    9  CBD   D T 601       7.283  16.208  -6.548  1.00 42.74     0.096 A 
HETATM   10  CBE   D T 601       4.499  17.765  -3.358  1.00 42.11     0.086 A 
HETATM   11  CBF   D T 601       5.160  17.575  -5.904  1.00 42.67     0.059 A 
HETATM   12  CBG   D T 601       5.437  17.239  -4.449  1.00 42.82     0.016 A 
ENDROOT
BRANCH  10  13
HETATM   13  NAU   D T 601       4.754  17.443  -1.945  1.00 38.25    -0.249 NA
BRANCH  13  14
HETATM   14  CBB   D T 601       4.402  16.118  -1.467  1.00 33.72     0.072 A 
HETATM   15  CAJ   D T 601       3.000  15.606  -1.696  1.00 33.21     0.098 A 
HETATM   16  CAX   D T 601       2.624  14.247  -1.193  1.00 37.63     0.085 A 
HETATM   17  CAY   D T 601       3.653  13.414  -0.474  1.00 36.54     0.059 A 
HETATM   18 CL1    D T 601       3.253  11.843   0.111  1.00 50.79    -0.085 Cl
HETATM   19  CAI   D T 601       5.037  13.914  -0.246  1.00 37.60     0.079 A 
HETATM   20  CAZ   D T 601       5.414  15.269  -0.740  1.00 38.37     0.055 A 
HETATM   21 CL2    D T 601       7.036  15.813  -0.468  1.00 54.43    -0.085 Cl
BRANCH  16  22
HETATM   22  O02   D T 601       1.346  13.762  -1.393  1.00 44.36    -0.331 OA
HETATM   23  C01   D T 601       0.392  13.819  -0.380  1.00 40.82     0.181 C 
ENDBRANCH  16  22
ENDBRANCH  13  14
ENDBRANCH  10  13
BRANCH   8  24
HETATM   24  OAV   D T 601       8.621  15.128  -4.762  1.00 49.70    -0.330 OA
HETATM   25  CAA   D T 601       9.261  15.415  -3.560  1.00 47.61     0.181 C 
ENDBRANCH   8  24
BRANCH   9  26
HETATM   26  OAW   D T 601       8.172  15.719  -7.502  1.00 41.04    -0.333 OA
BRANCH  26  27
HETATM   27  CAN   D T 601       8.914  16.603  -8.281  1.00 40.75     0.150 C 
BRANCH  27  28
HETATM   28  CAM   D T 601      10.391  16.216  -8.205  1.00 48.68     0.056 C 
BRANCH  28  29
HETATM   29  CAC   D T 601      10.987  16.724  -6.902  1.00 51.94     0.100 C 
BRANCH  29  30
HETATM   30  NBH   D T 601      10.564  18.154  -6.717  1.00 61.07    -0.365 N 
HETATM   31  CAP   D T 601      11.286  19.296  -7.295  1.00 58.61     0.121 C 
HETATM   32  CAR   D T 601      10.299  20.473  -7.422  1.00 61.37     0.121 C 
HETATM   33  NBI   D T 601       9.698  20.776  -6.146  1.00 69.25    -0.364 N 
HETATM   34  CAO   D T 601       9.019  22.066  -6.080  1.00 67.03     0.121 C 
HETATM   35  CAS   D T 601       9.101  19.621  -5.529  1.00 66.03     0.121 C 
HETATM   36  CAQ   D T 601      10.095  18.508  -5.396  1.00 59.16     0.121 C 
ENDBRANCH  29  30
ENDBRANCH  28  29
ENDBRANCH  27  28
ENDBRANCH  26  27
ENDBRANCH   9  26
TORSDOF 9
ENDMDL
MODEL 3
REMARK VINA RESULT:    -7.730      4.325      7.138
REMARK INTER + INTRA:         -12.967
REMARK INTER:                 -11.783
REMARK INTRA:                  -1.184
REMARK UNBOUND:                -1.170
REMARK  9 active torsions:
REMARK  status: ('A' for Active; 'I' for Inactive)
REMARK    1  A    between atoms: O02_2  and  CAX_24 
REMARK    2  A    between atoms: CAC_3  and  CAM_13 
REMARK    3  A    between atoms: CAC_3  and  NBH_34 
REMARK    4  A    between atoms: CAM_13  and  CAN_14 
REMARK    5  A    between atoms: CAN_14  and  OAW_23 
REMARK    6  A    between atoms: NAU_21  and  CBB_28 
REMARK    7  A    between atoms: NAU_21  and  CBE_31 
REMARK    8  A    between atoms: OAV_22  and  CBC_29 
REMARK    9  A    between atoms: OAW_23  and  CBD_30 
ROOT
HETATM    1  NAD   D T 601       7.464  18.236  -8.074  1.00 36.67    -0.191 NA
HETATM    2  CAG   D T 601       6.873  17.883  -7.161  1.00 40.62     0.100 C 
HETATM    3  CAH   D T 601       5.040  18.146  -5.301  1.00 40.82     0.163 A 
HETATM    4  CAK   D T 601       3.901  15.835  -2.360  1.00 41.85     0.098 A 
HETATM    5  CAL   D T 601       6.097  14.158  -3.592  1.00 41.71     0.082 A 
HETATM    6  NAT   D T 601       4.338  17.644  -4.153  1.00 40.70    -0.269 NA
HETATM    7  CBA   D T 601       6.140  17.361  -5.958  1.00 42.63     0.088 A 
HETATM    8  CBC   D T 601       5.347  13.670  -2.402  1.00 44.75     0.095 A 
HETATM    9  CBD   D T 601       4.267  14.493  -1.796  1.00 42.74     0.096 A 
HETATM   10  CBE   D T 601       6.521  16.003  -5.399  1.00 42.11     0.086 A 
HETATM   11  CBF   D T 601       4.653  16.360  -3.572  1.00 42.67     0.059 A 
HETATM   12  CBG   D T 601       5.752  15.501  -4.174  1.00 42.82     0.016 A 
ENDROOT
BRANCH  10  13
HETATM   13  NAU   D T 601       7.590  15.181  -5.990  1.00 38.25    -0.249 NA
BRANCH  13  14
HETATM   14  CBB   D T 601       8.967  15.527  -5.690  1.00 33.72     0.072 A 
HETATM   15  CAJ   D T 601       9.382  15.699  -4.248  1.00 33.21     0.098 A 
HETATM   16  CAX   D T 601      10.798  16.071  -3.931  1.00 37.63     0.085 A 
HETATM   17  CAY   D T 601      11.782  16.261  -5.055  1.00 36.54     0.059 A 
HETATM   18 CL1    D T 601      13.419  16.684  -4.722  1.00 50.79    -0.085 Cl
HETATM   19  CAI   D T 601      11.378  16.093  -6.479  1.00 37.60     0.079 A 
HETATM   20  CAZ   D T 601       9.969  15.729  -6.800  1.00 38.37     0.055 A 
HETATM   21 CL2    D T 601       9.538  15.529  -8.466  1.00 54.43    -0.085 Cl
BRANCH  16  22
HETATM   22  O02   D T 601      11.194  16.232  -2.617  1.00 44.36    -0.331 OA
HETATM   23  C01   D T 601      10.303  16.692  -1.652  1.00 40.82     0.181 C 
ENDBRANCH  16  22
ENDBRANCH  13  14
ENDBRANCH  10  13
BRANCH   8  24
HETATM   24  OAV   D T 601       5.655  12.440  -1.868  1.00 49.70    -0.330 OA
HETATM   25  CAA   D T 601       6.754  12.349  -1.019  1.00 47.61     0.181 C 
ENDBRANCH   8  24
BRANCH   9  26
HETATM   26  OAW   D T 601       3.586  13.987  -0.691  1.00 41.04    -0.333 OA
BRANCH  26  27
HETATM   27  CAN   D T 601       2.967  12.742  -0.764  1.00 40.75     0.150 C 
BRANCH  27  28
HETATM   28  CAM   D T 601       3.228  11.977   0.534  1.00 48.68     0.056 C 
BRANCH  28  29
HETATM   29  CAC   D T 601       3.725  12.938   1.602  1.00 51.94     0.100 C 
BRANCH  29  30
HETATM   30  NBH   D T 601       4.808  12.250   2.385  1.00 61.07    -0.365 N 
HETATM   31  CAP   D T 601       4.555  11.442   3.586  1.00 58.61     0.121 C 
HETATM   32  CAR   D T 601       5.723  10.450   3.752  1.00 61.37     0.121 C 
HETATM   33  NBI   D T 601       6.985  11.149   3.802  1.00 69.25    -0.364 N 
HETATM   34  CAO   D T 601       8.105  10.354   4.291  1.00 67.03     0.121 C 
HETATM   35  CAS   D T 601       7.168  12.033   2.682  1.00 66.03     0.121 C 
HETATM   36  CAQ   D T 601       6.031  13.001   2.567  1.00 59.16     0.121 C 
ENDBRANCH  29  30
ENDBRANCH  28  29
ENDBRANCH  27  28
ENDBRANCH  26  27
ENDBRANCH   9  26
TORSDOF 9
ENDMDL
MODEL 4
REMARK VINA RESULT:    -7.557      4.961      8.576
REMARK INTER + INTRA:         -12.703
REMARK INTER:                 -11.315
REMARK INTRA:                  -1.388
REMARK UNBOUND:                -1.170
REMARK  9 active torsions:
REMARK  status: ('A' for Active; 'I' for Inactive)
REMARK    1  A    between atoms: O02_2  and  CAX_24 
REMARK    2  A    between atoms: CAC_3  and  CAM_13 
REMARK    3  A    between atoms: CAC_3  and  NBH_34 
REMARK    4  A    between atoms: CAM_13  and  CAN_14 
REMARK    5  A    between atoms: CAN_14  and  OAW_23 
REMARK    6  A    between atoms: NAU_21  and  CBB_28 
REMARK    7  A    between atoms: NAU_21  and  CBE_31 
REMARK    8  A    between atoms: OAV_22  and  CBC_29 
REMARK    9  A    between atoms: OAW_23  and  CBD_30 
ROOT
HETATM    1  NAD   D T 601       1.037  14.445   0.054  1.00 36.67    -0.191 NA
HETATM    2  CAG   D T 601       1.694  14.991  -0.705  1.00 40.62     0.100 C 
HETATM    3  CAH   D T 601       2.371  17.064  -2.166  1.00 40.82     0.163 A 
HETATM    4  CAK   D T 601       5.270  17.669  -4.720  1.00 41.85     0.098 A 
HETATM    5  CAL   D T 601       5.823  14.814  -3.889  1.00 41.71     0.082 A 
HETATM    6  NAT   D T 601       3.235  17.692  -3.128  1.00 40.70    -0.269 NA
HETATM    7  CBA   D T 601       2.593  15.648  -1.713  1.00 42.63     0.088 A 
HETATM    8  CBC   D T 601       6.697  15.498  -4.882  1.00 44.75     0.095 A 
HETATM    9  CBD   D T 601       6.427  16.901  -5.290  1.00 42.74     0.096 A 
HETATM   10  CBE   D T 601       3.758  14.859  -2.281  1.00 42.11     0.086 A 
HETATM   11  CBF   D T 601       4.359  16.994  -3.707  1.00 42.67     0.059 A 
HETATM   12  CBG   D T 601       4.656  15.561  -3.304  1.00 42.82     0.016 A 
ENDROOT
BRANCH  10  13
HETATM   13  NAU   D T 601       4.034  13.468  -1.885  1.00 38.25    -0.249 NA
BRANCH  13  14
HETATM   14  CBB   D T 601       4.857  13.240  -0.711  1.00 33.72     0.072 A 
HETATM   15  CAJ   D T 601       6.224  13.876  -0.640  1.00 33.21     0.098 A 
HETATM   16  CAX   D T 601       7.086  13.632   0.561  1.00 37.63     0.085 A 
HETATM   17  CAY   D T 601       6.570  12.762   1.677  1.00 36.54     0.059 A 
HETATM   18 CL1    D T 601       7.534  12.468   3.074  1.00 50.79    -0.085 Cl
HETATM   19  CAI   D T 601       5.222  12.132   1.612  1.00 37.60     0.079 A 
HETATM   20  CAZ   D T 601       4.363  12.367   0.416  1.00 38.37     0.055 A 
HETATM   21 CL2    D T 601       2.797  11.629   0.381  1.00 54.43    -0.085 Cl
BRANCH  16  22
HETATM   22  O02   D T 601       8.340  14.206   0.642  1.00 44.36    -0.331 OA
HETATM   23  C01   D T 601       8.742  15.181  -0.266  1.00 40.82     0.181 C 
ENDBRANCH  16  22
ENDBRANCH  13  14
ENDBRANCH  10  13
BRANCH   8  24
HETATM   24  OAV   D T 601       7.769  14.821  -5.416  1.00 49.70    -0.330 OA
HETATM   25  CAA   D T 601       8.952  14.781  -4.683  1.00 47.61     0.181 C 
ENDBRANCH   8  24
BRANCH   9  26
HETATM   26  OAW   D T 601       7.280  17.501  -6.213  1.00 41.04    -0.333 OA
BRANCH  26  27
HETATM   27  CAN   D T 601       6.859  17.697  -7.526  1.00 40.75     0.150 C 
BRANCH  27  28
HETATM   28  CAM   D T 601       8.083  17.922  -8.415  1.00 48.68     0.056 C 
BRANCH  28  29
HETATM   29  CAC   D T 601       8.919  16.654  -8.466  1.00 51.94     0.100 C 
BRANCH  29  30
HETATM   30  NBH   D T 601      10.094  16.828  -7.546  1.00 61.07    -0.365 N 
HETATM   31  CAP   D T 601      10.575  18.137  -7.081  1.00 58.61     0.121 C 
HETATM   32  CAR   D T 601      11.338  17.926  -5.759  1.00 61.37     0.121 C 
HETATM   33  NBI   D T 601      12.402  16.965  -5.930  1.00 69.25    -0.364 N 
HETATM   34  CAO   D T 601      13.386  16.944  -4.853  1.00 67.03     0.121 C 
HETATM   35  CAS   D T 601      11.940  15.729  -6.502  1.00 66.03     0.121 C 
HETATM   36  CAQ   D T 601      11.228  15.968  -7.798  1.00 59.16     0.121 C 
ENDBRANCH  29  30
ENDBRANCH  28  29
ENDBRANCH  27  28
ENDBRANCH  26  27
ENDBRANCH   9  26
TORSDOF 9
ENDMDL
MODEL 5
REMARK VINA RESULT:    -7.448      4.147      9.431
REMARK INTER + INTRA:         -12.536
REMARK INTER:                 -11.059
REMARK INTRA:                  -1.477
REMARK UNBOUND:                -1.170
REMARK  9 active torsions:
REMARK  status: ('A' for Active; 'I' for Inactive)
REMARK    1  A    between atoms: O02_2  and  CAX_24 
REMARK    2  A    between atoms: CAC_3  and  CAM_13 
REMARK    3  A    between atoms: CAC_3  and  NBH_34 
REMARK    4  A    between atoms: CAM_13  and  CAN_14 
REMARK    5  A    between atoms: CAN_14  and  OAW_23 
REMARK    6  A    between atoms: NAU_21  and  CBB_28 
REMARK    7  A    between atoms: NAU_21  and  CBE_31 
REMARK    8  A    between atoms: OAV_22  and  CBC_29 
REMARK    9  A    between atoms: OAW_23  and  CBD_30 
ROOT
HETATM    1  NAD   D T 601       2.782  11.692   0.536  1.00 36.67    -0.191 NA
HETATM    2  CAG   D T 601       3.524  12.250  -0.129  1.00 40.62     0.100 C 
HETATM    3  CAH   D T 601       4.474  13.037  -2.446  1.00 40.82     0.163 A 
HETATM    4  CAK   D T 601       7.547  15.242  -3.438  1.00 41.85     0.098 A 
HETATM    5  CAL   D T 601       7.788  15.243  -0.423  1.00 41.71     0.082 A 
HETATM    6  NAT   D T 601       5.443  13.756  -3.226  1.00 40.70    -0.269 NA
HETATM    7  CBA   D T 601       4.539  12.999  -0.945  1.00 42.63     0.088 A 
HETATM    8  CBC   D T 601       8.773  15.978  -1.263  1.00 44.75     0.095 A 
HETATM    9  CBD   D T 601       8.655  15.979  -2.745  1.00 42.74     0.096 A 
HETATM   10  CBE   D T 601       5.654  13.739  -0.230  1.00 42.11     0.086 A 
HETATM   11  CBF   D T 601       6.529  14.480  -2.605  1.00 42.67     0.059 A 
HETATM   12  CBG   D T 601       6.669  14.494  -1.093  1.00 42.82     0.016 A 
ENDROOT
BRANCH  10  13
HETATM   13  NAU   D T 601       5.781  13.743   1.236  1.00 38.25    -0.249 NA
BRANCH  13  14
HETATM   14  CBB   D T 601       6.557  12.687   1.861  1.00 33.72     0.072 A 
HETATM   15  CAJ   D T 601       7.974  12.446   1.396  1.00 33.21     0.098 A 
HETATM   16  CAX   D T 601       8.776  11.349   2.024  1.00 37.63     0.085 A 
HETATM   17  CAY   D T 601       8.157  10.511   3.112  1.00 36.54     0.059 A 
HETATM   18 CL1    D T 601       9.056   9.245   3.859  1.00 50.79    -0.085 Cl
HETATM   19  CAI   D T 601       6.761  10.744   3.574  1.00 37.60     0.079 A 
HETATM   20  CAZ   D T 601       5.957  11.831   2.947  1.00 38.37     0.055 A 
HETATM   21 CL2    D T 601       4.341  12.082   3.519  1.00 54.43    -0.085 Cl
BRANCH  16  22
HETATM   22  O02   D T 601      10.073  11.115   1.611  1.00 44.36    -0.331 OA
HETATM   23  C01   D T 601      10.967  12.166   1.426  1.00 40.82     0.181 C 
ENDBRANCH  16  22
ENDBRANCH  13  14
ENDBRANCH  10  13
BRANCH   8  24
HETATM   24  OAV   D T 601       9.795  16.670  -0.655  1.00 49.70    -0.330 OA
HETATM   25  CAA   D T 601      10.905  15.952  -0.218  1.00 47.61     0.181 C 
ENDBRANCH   8  24
BRANCH   9  26
HETATM   26  OAW   D T 601       9.594  16.692  -3.486  1.00 41.04    -0.333 OA
BRANCH  26  27
HETATM   27  CAN   D T 601       9.967  16.247  -4.752  1.00 40.75     0.150 C 
BRANCH  27  28
HETATM   28  CAM   D T 601       9.567  17.296  -5.789  1.00 48.68     0.056 C 
BRANCH  28  29
HETATM   29  CAC   D T 601       8.619  16.678  -6.804  1.00 51.94     0.100 C 
BRANCH  29  30
HETATM   30  NBH   D T 601       7.238  17.207  -6.540  1.00 61.07    -0.365 N 
HETATM   31  CAP   D T 601       6.026  16.377  -6.592  1.00 58.61     0.121 C 
HETATM   32  CAR   D T 601       4.946  17.050  -5.722  1.00 61.37     0.121 C 
HETATM   33  NBI   D T 601       4.715  18.409  -6.153  1.00 69.25    -0.364 N 
HETATM   34  CAO   D T 601       3.496  19.017  -5.632  1.00 67.03     0.121 C 
HETATM   35  CAS   D T 601       5.928  19.179  -6.218  1.00 66.03     0.121 C 
HETATM   36  CAQ   D T 601       6.944  18.511  -7.093  1.00 59.16     0.121 C 
ENDBRANCH  29  30
ENDBRANCH  28  29
ENDBRANCH  27  28
ENDBRANCH  26  27
ENDBRANCH   9  26
TORSDOF 9
ENDMDL
MODEL 6
REMARK VINA RESULT:    -7.432      5.655      9.455
REMARK INTER + INTRA:         -12.511
REMARK INTER:                 -10.348
REMARK INTRA:                  -2.163
REMARK UNBOUND:                -1.170
REMARK  9 active torsions:
REMARK  status: ('A' for Active; 'I' for Inactive)
REMARK    1  A    between atoms: O02_2  and  CAX_24 
REMARK    2  A    between atoms: CAC_3  and  CAM_13 
REMARK    3  A    between atoms: CAC_3  and  NBH_34 
REMARK    4  A    between atoms: CAM_13  and  CAN_14 
REMARK    5  A    between atoms: CAN_14  and  OAW_23 
REMARK    6  A    between atoms: NAU_21  and  CBB_28 
REMARK    7  A    between atoms: NAU_21  and  CBE_31 
REMARK    8  A    between atoms: OAV_22  and  CBC_29 
REMARK    9  A    between atoms: OAW_23  and  CBD_30 
ROOT
HETATM    1  NAD   D T 601       2.898  18.809  -6.009  1.00 36.67    -0.191 NA
HETATM    2  CAG   D T 601       3.931  18.319  -6.038  1.00 40.62     0.100 C 
HETATM    3  CAH   D T 601       6.003  17.275  -7.264  1.00 40.82     0.163 A 
HETATM    4  CAK   D T 601       9.357  15.745  -5.960  1.00 41.85     0.098 A 
HETATM    5  CAL   D T 601       8.017  16.499  -3.355  1.00 41.71     0.082 A 
HETATM    6  NAT   D T 601       7.301  16.659  -7.231  1.00 40.70    -0.269 NA
HETATM    7  CBA   D T 601       5.286  17.673  -6.004  1.00 42.63     0.088 A 
HETATM    8  CBC   D T 601       9.363  15.860  -3.359  1.00 44.75     0.095 A 
HETATM    9  CBD   D T 601      10.022  15.490  -4.639  1.00 42.74     0.096 A 
HETATM   10  CBE   D T 601       5.946  17.421  -4.661  1.00 42.11     0.086 A 
HETATM   11  CBF   D T 601       7.981  16.392  -5.985  1.00 42.67     0.059 A 
HETATM   12  CBG   D T 601       7.328  16.763  -4.665  1.00 42.82     0.016 A 
ENDROOT
BRANCH  10  13
HETATM   13  NAU   D T 601       5.301  17.782  -3.388  1.00 38.25    -0.249 NA
BRANCH  13  14
HETATM   14  CBB   D T 601       4.369  16.838  -2.799  1.00 33.72     0.072 A 
HETATM   15  CAJ   D T 601       4.780  15.391  -2.662  1.00 33.21     0.098 A 
HETATM   16  CAX   D T 601       3.819  14.408  -2.069  1.00 37.63     0.085 A 
HETATM   17  CAY   D T 601       2.463  14.881  -1.616  1.00 36.54     0.059 A 
HETATM   18 CL1    D T 601       1.337  13.775  -0.925  1.00 50.79    -0.085 Cl
HETATM   19  CAI   D T 601       2.052  16.306  -1.749  1.00 37.60     0.079 A 
HETATM   20  CAZ   D T 601       3.003  17.287  -2.344  1.00 38.37     0.055 A 
HETATM   21 CL2    D T 601       2.496  18.939  -2.472  1.00 54.43    -0.085 Cl
BRANCH  16  22
HETATM   22  O02   D T 601       4.179  13.080  -1.936  1.00 44.36    -0.331 OA
HETATM   23  C01   D T 601       4.789  12.617  -0.774  1.00 40.82     0.181 C 
ENDBRANCH  16  22
ENDBRANCH  13  14
ENDBRANCH  10  13
BRANCH   8  24
HETATM   24  OAV   D T 601      10.000  15.622  -2.164  1.00 49.70    -0.330 OA
HETATM   25  CAA   D T 601       9.384  16.053  -0.993  1.00 47.61     0.181 C 
ENDBRANCH   8  24
BRANCH   9  26
HETATM   26  OAW   D T 601      11.286  14.906  -4.591  1.00 41.04    -0.333 OA
BRANCH  26  27
HETATM   27  CAN   D T 601      12.217  15.178  -5.590  1.00 40.75     0.150 C 
BRANCH  27  28
HETATM   28  CAM   D T 601      12.810  16.567  -5.357  1.00 48.68     0.056 C 
BRANCH  28  29
HETATM   29  CAC   D T 601      12.670  17.403  -6.619  1.00 51.94     0.100 C 
BRANCH  29  30
HETATM   30  NBH   D T 601      11.519  18.350  -6.429  1.00 61.07    -0.365 N 
HETATM   31  CAP   D T 601      11.037  19.263  -7.476  1.00 58.61     0.121 C 
HETATM   32  CAR   D T 601       9.566  19.607  -7.173  1.00 61.37     0.121 C 
HETATM   33  NBI   D T 601       9.432  20.155  -5.845  1.00 69.25    -0.364 N 
HETATM   34  CAO   D T 601       8.160  20.821  -5.583  1.00 67.03     0.121 C 
HETATM   35  CAS   D T 601      10.019  19.311  -4.838  1.00 66.03     0.121 C 
HETATM   36  CAQ   D T 601      11.455  19.020  -5.150  1.00 59.16     0.121 C 
ENDBRANCH  29  30
ENDBRANCH  28  29
ENDBRANCH  27  28
ENDBRANCH  26  27
ENDBRANCH   9  26
TORSDOF 9
ENDMDL
MODEL 7
REMARK VINA RESULT:    -7.234      4.893      9.420
REMARK INTER + INTRA:         -12.209
REMARK INTER:                 -10.923
REMARK INTRA:                  -1.286
REMARK UNBOUND:                -1.170
REMARK  9 active torsions:
REMARK  status: ('A' for Active; 'I' for Inactive)
REMARK    1  A    between atoms: O02_2  and  CAX_24 
REMARK    2  A    between atoms: CAC_3  and  CAM_13 
REMARK    3  A    between atoms: CAC_3  and  NBH_34 
REMARK    4  A    between atoms: CAM_13  and  CAN_14 
REMARK    5  A    between atoms: CAN_14  and  OAW_23 
REMARK    6  A    between atoms: NAU_21  and  CBB_28 
REMARK    7  A    between atoms: NAU_21  and  CBE_31 
REMARK    8  A    between atoms: OAV_22  and  CBC_29 
REMARK    9  A    between atoms: OAW_23  and  CBD_30 
ROOT
HETATM    1  NAD   D T 601       8.976  18.043  -7.648  1.00 36.67    -0.191 NA
HETATM    2  CAG   D T 601       8.318  17.495  -6.891  1.00 40.62     0.100 C 
HETATM    3  CAH   D T 601       6.165  16.181  -6.165  1.00 40.82     0.163 A 
HETATM    4  CAK   D T 601       5.016  14.662  -2.749  1.00 41.85     0.098 A 
HETATM    5  CAL   D T 601       7.689  15.851  -1.980  1.00 41.71     0.082 A 
HETATM    6  NAT   D T 601       5.385  15.507  -5.164  1.00 40.70    -0.269 NA
HETATM    7  CBA   D T 601       7.500  16.792  -5.845  1.00 42.63     0.088 A 
HETATM    8  CBC   D T 601       6.854  15.143  -0.970  1.00 44.75     0.095 A 
HETATM    9  CBD   D T 601       5.540  14.558  -1.347  1.00 42.74     0.096 A 
HETATM   10  CBE   D T 601       8.043  16.696  -4.432  1.00 42.11     0.086 A 
HETATM   11  CBF   D T 601       5.846  15.382  -3.801  1.00 42.67     0.059 A 
HETATM   12  CBG   D T 601       7.184  15.970  -3.392  1.00 42.82     0.016 A 
ENDROOT
BRANCH  10  13
HETATM   13  NAU   D T 601       9.341  17.274  -4.047  1.00 38.25    -0.249 NA
BRANCH  13  14
HETATM   14  CBB   D T 601      10.506  16.408  -4.054  1.00 33.72     0.072 A 
HETATM   15  CAJ   D T 601      10.965  15.806  -5.361  1.00 33.21     0.098 A 
HETATM   16  CAX   D T 601      12.157  14.899  -5.373  1.00 37.63     0.085 A 
HETATM   17  CAY   D T 601      12.879  14.609  -4.084  1.00 36.54     0.059 A 
HETATM   18 CL1    D T 601      14.257  13.575  -4.066  1.00 50.79    -0.085 Cl
HETATM   19  CAI   D T 601      12.431  15.200  -2.792  1.00 37.60     0.079 A 
HETATM   20  CAZ   D T 601      11.242  16.098  -2.773  1.00 38.37     0.055 A 
HETATM   21 CL2    D T 601      10.757  16.777  -1.255  1.00 54.43    -0.085 Cl
BRANCH  16  22
HETATM   22  O02   D T 601      12.590  14.340  -6.560  1.00 44.36    -0.331 OA
HETATM   23  C01   D T 601      12.819  15.131  -7.683  1.00 40.82     0.181 C 
ENDBRANCH  16  22
ENDBRANCH  13  14
ENDBRANCH  10  13
BRANCH   8  24
HETATM   24  OAV   D T 601       7.313  15.026   0.321  1.00 49.70    -0.330 OA
HETATM   25  CAA   D T 601       8.515  14.357   0.533  1.00 47.61     0.181 C 
ENDBRANCH   8  24
BRANCH   9  26
HETATM   26  OAW   D T 601       4.802  13.895  -0.370  1.00 41.04    -0.333 OA
BRANCH  26  27
HETATM   27  CAN   D T 601       4.859  12.507  -0.275  1.00 40.75     0.150 C 
BRANCH  27  28
HETATM   28  CAM   D T 601       3.468  11.973   0.069  1.00 48.68     0.056 C 
BRANCH  28  29
HETATM   29  CAC   D T 601       2.836  12.844   1.142  1.00 51.94     0.100 C 
BRANCH  29  30
HETATM   30  NBH   D T 601       1.404  13.092   0.762  1.00 61.07    -0.365 N 
HETATM   31  CAP   D T 601       0.950  13.268  -0.625  1.00 58.61     0.121 C 
HETATM   32  CAR   D T 601      -0.546  12.903  -0.691  1.00 61.37     0.121 C 
HETATM   33  NBI   D T 601      -1.306  13.688   0.252  1.00 69.25    -0.364 N 
HETATM   34  CAO   D T 601      -2.749  13.671   0.040  1.00 67.03     0.121 C 
HETATM   35  CAS   D T 601      -0.777  13.608   1.588  1.00 66.03     0.121 C 
HETATM   36  CAQ   D T 601       0.669  13.995   1.620  1.00 59.16     0.121 C 
ENDBRANCH  29  30
ENDBRANCH  28  29
ENDBRANCH  27  28
ENDBRANCH  26  27
ENDBRANCH   9  26
TORSDOF 9
ENDMDL
MODEL 8
REMARK VINA RESULT:    -7.171      3.572      9.613
REMARK INTER + INTRA:         -12.114
REMARK INTER:                 -10.770
REMARK INTRA:                  -1.344
REMARK UNBOUND:                -1.170
REMARK  9 active torsions:
REMARK  status: ('A' for Active; 'I' for Inactive)
REMARK    1  A    between atoms: O02_2  and  CAX_24 
REMARK    2  A    between atoms: CAC_3  and  CAM_13 
REMARK    3  A    between atoms: CAC_3  and  NBH_34 
REMARK    4  A    between atoms: CAM_13  and  CAN_14 
REMARK    5  A    between atoms: CAN_14  and  OAW_23 
REMARK    6  A    between atoms: NAU_21  and  CBB_28 
REMARK    7  A    between atoms: NAU_21  and  CBE_31 
REMARK    8  A    between atoms: OAV_22  and  CBC_29 
REMARK    9  A    between atoms: OAW_23  and  CBD_30 
ROOT
HETATM    1  NAD   D T 601       9.824   8.820   5.240  1.00 36.67    -0.191 NA
HETATM    2  CAG   D T 601       9.175   9.563   4.664  1.00 40.62     0.100 C 
HETATM    3  CAH   D T 601       6.890  10.683   4.020  1.00 40.82     0.163 A 
HETATM    4  CAK   D T 601       5.954  13.542   1.522  1.00 41.85     0.098 A 
HETATM    5  CAL   D T 601       8.949  13.392   1.127  1.00 41.71     0.082 A 
HETATM    6  NAT   D T 601       6.132  11.639   3.262  1.00 40.70    -0.269 NA
HETATM    7  CBA   D T 601       8.381  10.560   3.869  1.00 42.63     0.088 A 
HETATM    8  CBC   D T 601       8.130  14.371   0.360  1.00 44.75     0.095 A 
HETATM    9  CBD   D T 601       6.658  14.446   0.554  1.00 42.74     0.096 A 
HETATM   10  CBE   D T 601       9.107  11.467   2.893  1.00 42.11     0.086 A 
HETATM   11  CBF   D T 601       6.764  12.530   2.316  1.00 42.67     0.059 A 
HETATM   12  CBG   D T 601       8.266  12.473   2.102  1.00 42.82     0.016 A 
ENDROOT
BRANCH  10  13
HETATM   13  NAU   D T 601      10.564  11.400   2.693  1.00 38.25    -0.249 NA
BRANCH  13  14
HETATM   14  CBB   D T 601      11.390  12.418   3.315  1.00 33.72     0.072 A 
HETATM   15  CAJ   D T 601      11.320  12.606   4.811  1.00 33.21     0.098 A 
HETATM   16  CAX   D T 601      12.157  13.665   5.459  1.00 37.63     0.085 A 
HETATM   17  CAY   D T 601      13.058  14.519   4.606  1.00 36.54     0.059 A 
HETATM   18 CL1    D T 601      14.038  15.742   5.322  1.00 50.79    -0.085 Cl
HETATM   19  CAI   D T 601      13.131  14.339   3.129  1.00 37.60     0.079 A 
HETATM   20  CAZ   D T 601      12.295  13.290   2.480  1.00 38.37     0.055 A 
HETATM   21 CL2    D T 601      12.415  13.100   0.762  1.00 54.43    -0.085 Cl
BRANCH  16  22
HETATM   22  O02   D T 601      12.105  13.850   6.827  1.00 44.36    -0.331 OA
HETATM   23  C01   D T 601      13.059  13.278   7.664  1.00 40.82     0.181 C 
ENDBRANCH  16  22
ENDBRANCH  13  14
ENDBRANCH  10  13
BRANCH   8  24
HETATM   24  OAV   D T 601       8.750  15.218  -0.529  1.00 49.70    -0.330 OA
HETATM   25  CAA   D T 601      10.033  15.666  -0.225  1.00 47.61     0.181 C 
ENDBRANCH   8  24
BRANCH   9  26
HETATM   26  OAW   D T 601       5.938  15.387  -0.179  1.00 41.04    -0.333 OA
BRANCH  26  27
HETATM   27  CAN   D T 601       5.816  15.251  -1.559  1.00 40.75     0.150 C 
BRANCH  27  28
HETATM   28  CAM   D T 601       4.358  14.950  -1.904  1.00 48.68     0.056 C 
BRANCH  28  29
HETATM   29  CAC   D T 601       4.066  13.479  -1.656  1.00 51.94     0.100 C 
BRANCH  29  30
HETATM   30  NBH   D T 601       2.900  13.384  -0.713  1.00 61.07    -0.365 N 
HETATM   31  CAP   D T 601       2.606  12.194   0.098  1.00 58.61     0.121 C 
HETATM   32  CAR   D T 601       1.775  12.638   1.318  1.00 61.37     0.121 C 
HETATM   33  NBI   D T 601       0.585  13.340   0.899  1.00 69.25    -0.364 N 
HETATM   34  CAO   D T 601      -0.427  13.502   1.936  1.00 67.03     0.121 C 
HETATM   35  CAS   D T 601       0.875  14.428   0.004  1.00 66.03     0.121 C 
HETATM   36  CAQ   D T 601       1.658  13.957  -1.183  1.00 59.16     0.121 C 
ENDBRANCH  29  30
ENDBRANCH  28  29
ENDBRANCH  27  28
ENDBRANCH  26  27
ENDBRANCH   9  26
TORSDOF 9
ENDMDL
MODEL 9
REMARK VINA RESULT:    -7.156      5.370      9.756
REMARK INTER + INTRA:         -12.091
REMARK INTER:                 -10.918
REMARK INTRA:                  -1.173
REMARK UNBOUND:                -1.170
REMARK  9 active torsions:
REMARK  status: ('A' for Active; 'I' for Inactive)
REMARK    1  A    between atoms: O02_2  and  CAX_24 
REMARK    2  A    between atoms: CAC_3  and  CAM_13 
REMARK    3  A    between atoms: CAC_3  and  NBH_34 
REMARK    4  A    between atoms: CAM_13  and  CAN_14 
REMARK    5  A    between atoms: CAN_14  and  OAW_23 
REMARK    6  A    between atoms: NAU_21  and  CBB_28 
REMARK    7  A    between atoms: NAU_21  and  CBE_31 
REMARK    8  A    between atoms: OAV_22  and  CBC_29 
REMARK    9  A    between atoms: OAW_23  and  CBD_30 
ROOT
HETATM    1  NAD   D T 601       7.470  21.080  -8.027  1.00 36.67    -0.191 NA
HETATM    2  CAG   D T 601       7.053  20.320  -7.282  1.00 40.62     0.100 C 
HETATM    3  CAH   D T 601       5.130  18.897  -6.205  1.00 40.82     0.163 A 
HETATM    4  CAK   D T 601       5.075  16.307  -3.274  1.00 41.85     0.098 A 
HETATM    5  CAL   D T 601       8.000  17.074  -3.309  1.00 41.71     0.082 A 
HETATM    6  NAT   D T 601       4.670  17.936  -5.240  1.00 40.70    -0.269 NA
HETATM    7  CBA   D T 601       6.570  19.319  -6.273  1.00 42.63     0.088 A 
HETATM    8  CBC   D T 601       7.487  16.081  -2.325  1.00 44.75     0.095 A 
HETATM    9  CBD   D T 601       6.050  15.703  -2.308  1.00 42.74     0.096 A 
HETATM   10  CBE   D T 601       7.569  18.716  -5.301  1.00 42.11     0.086 A 
HETATM   11  CBF   D T 601       5.569  17.327  -4.288  1.00 42.67     0.059 A 
HETATM   12  CBG   D T 601       7.042  17.696  -4.288  1.00 42.82     0.016 A 
ENDROOT
BRANCH  10  13
HETATM   13  NAU   D T 601       8.994  19.085  -5.309  1.00 38.25    -0.249 NA
BRANCH  13  14
HETATM   14  CBB   D T 601       9.929  18.196  -5.975  1.00 33.72     0.072 A 
HETATM   15  CAJ   D T 601       9.414  17.251  -7.033  1.00 33.21     0.098 A 
HETATM   16  CAX   D T 601      10.369  16.320  -7.714  1.00 37.63     0.085 A 
HETATM   17  CAY   D T 601      11.826  16.348  -7.334  1.00 36.54     0.059 A 
HETATM   18 CL1    D T 601      12.952  15.294  -8.102  1.00 50.79    -0.085 Cl
HETATM   19  CAI   D T 601      12.340  17.279  -6.290  1.00 37.60     0.079 A 
HETATM   20  CAZ   D T 601      11.391  18.203  -5.606  1.00 38.37     0.055 A 
HETATM   21 CL2    D T 601      12.026  19.280  -4.407  1.00 54.43    -0.085 Cl
BRANCH  16  22
HETATM   22  O02   D T 601       9.915  15.448  -8.685  1.00 44.36    -0.331 OA
HETATM   23  C01   D T 601       9.134  15.900  -9.744  1.00 40.82     0.181 C 
ENDBRANCH  16  22
ENDBRANCH  13  14
ENDBRANCH  10  13
BRANCH   8  24
HETATM   24  OAV   D T 601       8.360  15.505  -1.432  1.00 49.70    -0.330 OA
HETATM   25  CAA   D T 601       9.695  15.899  -1.470  1.00 47.61     0.181 C 
ENDBRANCH   8  24
BRANCH   9  26
HETATM   26  OAW   D T 601       5.622  14.760  -1.376  1.00 41.04    -0.333 OA
BRANCH  26  27
HETATM   27  CAN   D T 601       4.297  14.758  -0.946  1.00 40.75     0.150 C 
BRANCH  27  28
HETATM   28  CAM   D T 601       3.864  13.318  -0.670  1.00 48.68     0.056 C 
BRANCH  28  29
HETATM   29  CAC   D T 601       3.305  13.212   0.740  1.00 51.94     0.100 C 
BRANCH  29  30
HETATM   30  NBH   D T 601       1.806  13.247   0.654  1.00 61.07    -0.365 N 
HETATM   31  CAP   D T 601       0.920  12.868   1.765  1.00 58.61     0.121 C 
HETATM   32  CAR   D T 601      -0.437  13.569   1.556  1.00 61.37     0.121 C 
HETATM   33  NBI   D T 601      -0.988  13.244   0.263  1.00 69.25    -0.364 N 
HETATM   34  CAO   D T 601      -2.400  13.570   0.099  1.00 67.03     0.121 C 
HETATM   35  CAS   D T 601      -0.064  13.502  -0.810  1.00 66.03     0.121 C 
HETATM   36  CAQ   D T 601       1.232  12.784  -0.589  1.00 59.16     0.121 C 
ENDBRANCH  29  30
ENDBRANCH  28  29
ENDBRANCH  27  28
ENDBRANCH  26  27
ENDBRANCH   9  26
TORSDOF 9
ENDMDL
