MODEL 1
REMARK VINA RESULT:    -6.333      0.000      0.000
REMARK INTER + INTRA:         -10.876
REMARK INTER:                  -9.666
REMARK INTRA:                  -1.210
REMARK UNBOUND:                -1.210
REMARK  9 active torsions:
REMARK  status: ('A' for Active; 'I' for Inactive)
REMARK    1  A    between atoms: O02_2  and  CAX_24 
REMARK    2  A    between atoms: CAC_3  and  CAM_13 
REMARK    3  A    between atoms: CAC_3  and  NBH_34 
REMARK    4  A    between atoms: CAM_13  and  CAN_14 
REMARK    5  A    between atoms: CAN_14  and  OAW_23 
REMARK    6  A    between atoms: NAU_21  and  CBB_28 
REMARK    7  A    between atoms: NAU_21  and  CBE_31 
REMARK    8  A    between atoms: OAV_22  and  CBC_29 
REMARK    9  A    between atoms: OAW_23  and  CBD_30 
ROOT
HETATM    1  NAD   D T 601      14.543  -5.939   2.766  1.00 36.67    -0.191 NA
HETATM    2  CAG   D T 601      13.613  -5.671   2.158  1.00 40.62     0.100 C 
HETATM    3  CAH   D T 601      11.161  -6.076   1.312  1.00 40.82     0.163 A 
HETATM    4  CAK   D T 601       8.835  -4.082  -1.119  1.00 41.85     0.098 A 
HETATM    5  CAL   D T 601      11.325  -2.365  -1.164  1.00 41.71     0.082 A 
HETATM    6  NAT   D T 601      10.027  -5.685   0.523  1.00 40.70    -0.269 NA
HETATM    7  CBA   D T 601      12.426  -5.265   1.332  1.00 42.63     0.088 A 
HETATM    8  CBC   D T 601      10.128  -1.989  -1.968  1.00 44.75     0.095 A 
HETATM    9  CBD   D T 601       8.905  -2.833  -1.945  1.00 42.74     0.096 A 
HETATM   10  CBE   D T 601      12.511  -4.000   0.500  1.00 42.11     0.086 A 
HETATM   11  CBF   D T 601      10.044  -4.491  -0.291  1.00 42.67     0.059 A 
HETATM   12  CBG   D T 601      11.283  -3.614  -0.329  1.00 42.82     0.016 A 
ENDROOT
BRANCH  10  13
HETATM   13  NAU   D T 601      13.718  -3.159   0.469  1.00 38.25    -0.249 NA
BRANCH  13  14
HETATM   14  CBB   D T 601      13.707  -1.912   1.212  1.00 33.72     0.072 A 
HETATM   15  CAJ   D T 601      13.146  -1.902   2.615  1.00 33.21     0.098 A 
HETATM   16  CAX   D T 601      13.116  -0.616   3.382  1.00 37.63     0.085 A 
HETATM   17  CAY   D T 601      13.651   0.639   2.746  1.00 36.54     0.059 A 
HETATM   18 CL1    D T 601      13.636   2.132   3.606  1.00 50.79    -0.085 Cl
HETATM   19  CAI   D T 601      14.206   0.634   1.364  1.00 37.60     0.079 A 
HETATM   20  CAZ   D T 601      14.233  -0.642   0.593  1.00 38.37     0.055 A 
HETATM   21 CL2    D T 601      14.897  -0.613  -1.007  1.00 54.43    -0.085 Cl
BRANCH  16  22
HETATM   22  O02   D T 601      12.606  -0.587   4.666  1.00 44.36    -0.331 OA
HETATM   23  C01   D T 601      12.362  -1.765   5.366  1.00 40.82     0.181 C 
ENDBRANCH  16  22
ENDBRANCH  13  14
ENDBRANCH  10  13
BRANCH   8  24
HETATM   24  OAV   D T 601      10.160  -0.845  -2.731  1.00 49.70    -0.330 OA
HETATM   25  CAA   D T 601      11.002  -0.817  -3.840  1.00 47.61     0.181 C 
ENDBRANCH   8  24
BRANCH   9  26
HETATM   26  OAW   D T 601       7.808  -2.433  -2.705  1.00 41.04    -0.333 OA
BRANCH  26  27
HETATM   27  CAN   D T 601       7.837  -2.558  -4.091  1.00 40.75     0.150 C 
BRANCH  27  28
HETATM   28  CAM   D T 601       7.373  -1.245  -4.721  1.00 48.68     0.056 C 
BRANCH  28  29
HETATM   29  CAC   D T 601       7.414  -1.362  -6.237  1.00 51.94     0.100 C 
BRANCH  29  30
HETATM   30  NBH   D T 601       7.669   0.004  -6.808  1.00 61.07    -0.365 N 
HETATM   31  CAP   D T 601       7.409   0.361  -8.209  1.00 58.61     0.121 C 
HETATM   32  CAR   D T 601       7.205   1.887  -8.286  1.00 61.37     0.121 C 
HETATM   33  NBI   D T 601       8.342   2.583  -7.730  1.00 69.25    -0.364 N 
HETATM   34  CAO   D T 601       8.408   4.004  -8.057  1.00 67.03     0.121 C 
HETATM   35  CAS   D T 601       8.665   2.137  -6.402  1.00 66.03     0.121 C 
HETATM   36  CAQ   D T 601       8.883   0.655  -6.370  1.00 59.16     0.121 C 
ENDBRANCH  29  30
ENDBRANCH  28  29
ENDBRANCH  27  28
ENDBRANCH  26  27
ENDBRANCH   9  26
TORSDOF 9
ENDMDL
MODEL 2
REMARK VINA RESULT:    -6.326      3.474      4.825
REMARK INTER + INTRA:         -10.864
REMARK INTER:                  -9.474
REMARK INTRA:                  -1.390
REMARK UNBOUND:                -1.210
REMARK  9 active torsions:
REMARK  status: ('A' for Active; 'I' for Inactive)
REMARK    1  A    between atoms: O02_2  and  CAX_24 
REMARK    2  A    between atoms: CAC_3  and  CAM_13 
REMARK    3  A    between atoms: CAC_3  and  NBH_34 
REMARK    4  A    between atoms: CAM_13  and  CAN_14 
REMARK    5  A    between atoms: CAN_14  and  OAW_23 
REMARK    6  A    between atoms: NAU_21  and  CBB_28 
REMARK    7  A    between atoms: NAU_21  and  CBE_31 
REMARK    8  A    between atoms: OAV_22  and  CBC_29 
REMARK    9  A    between atoms: OAW_23  and  CBD_30 
ROOT
HETATM    1  NAD   D T 601      13.125  -2.396   4.282  1.00 36.67    -0.191 NA
HETATM    2  CAG   D T 601      12.538  -2.403   3.300  1.00 40.62     0.100 C 
HETATM    3  CAH   D T 601      11.157  -1.266   1.379  1.00 40.82     0.163 A 
HETATM    4  CAK   D T 601       9.490  -2.665  -1.870  1.00 41.85     0.098 A 
HETATM    5  CAL   D T 601      10.687  -5.186  -0.704  1.00 41.71     0.082 A 
HETATM    6  NAT   D T 601      10.431  -1.343   0.143  1.00 40.70    -0.269 NA
HETATM    7  CBA   D T 601      11.776  -2.482   2.009  1.00 42.63     0.088 A 
HETATM    8  CBC   D T 601       9.928  -5.228  -1.985  1.00 44.75     0.095 A 
HETATM    9  CBD   D T 601       9.340  -3.989  -2.558  1.00 42.74     0.096 A 
HETATM   10  CBE   D T 601      11.631  -3.828   1.324  1.00 42.11     0.086 A 
HETATM   11  CBF   D T 601      10.257  -2.594  -0.558  1.00 42.67     0.059 A 
HETATM   12  CBG   D T 601      10.850  -3.872   0.009  1.00 42.82     0.016 A 
ENDROOT
BRANCH  10  13
HETATM   13  NAU   D T 601      12.208  -5.060   1.885  1.00 38.25    -0.249 NA
BRANCH  13  14
HETATM   14  CBB   D T 601      11.342  -5.936   2.653  1.00 33.72     0.072 A 
HETATM   15  CAJ   D T 601      10.562  -5.362   3.812  1.00 33.21     0.098 A 
HETATM   16  CAX   D T 601       9.679  -6.263   4.619  1.00 37.63     0.085 A 
HETATM   17  CAY   D T 601       9.580  -7.721   4.257  1.00 36.54     0.059 A 
HETATM   18 CL1    D T 601       8.567  -8.781   5.163  1.00 50.79    -0.085 Cl
HETATM   19  CAI   D T 601      10.346  -8.292   3.114  1.00 37.60     0.079 A 
HETATM   20  CAZ   D T 601      11.231  -7.401   2.312  1.00 38.37     0.055 A 
HETATM   21 CL2    D T 601      12.097  -8.097   0.982  1.00 54.43    -0.085 Cl
BRANCH  16  22
HETATM   22  O02   D T 601       8.958  -5.755   5.683  1.00 44.36    -0.331 OA
HETATM   23  C01   D T 601       9.437  -5.859   6.986  1.00 40.82     0.181 C 
ENDBRANCH  16  22
ENDBRANCH  13  14
ENDBRANCH  10  13
BRANCH   8  24
HETATM   24  OAV   D T 601       9.781  -6.427  -2.643  1.00 49.70    -0.330 OA
HETATM   25  CAA   D T 601       9.197  -7.487  -1.954  1.00 47.61     0.181 C 
ENDBRANCH   8  24
BRANCH   9  26
HETATM   26  OAW   D T 601       8.650  -4.077  -3.764  1.00 41.04    -0.333 OA
BRANCH  26  27
HETATM   27  CAN   D T 601       9.105  -3.380  -4.880  1.00 40.75     0.150 C 
BRANCH  27  28
HETATM   28  CAM   D T 601       7.936  -2.621  -5.506  1.00 48.68     0.056 C 
BRANCH  28  29
HETATM   29  CAC   D T 601       7.670  -1.348  -4.718  1.00 51.94     0.100 C 
BRANCH  29  30
HETATM   30  NBH   D T 601       7.952  -0.173  -5.610  1.00 61.07    -0.365 N 
HETATM   31  CAP   D T 601       7.652  -0.154  -7.048  1.00 58.61     0.121 C 
HETATM   32  CAR   D T 601       7.500   1.316  -7.488  1.00 61.37     0.121 C 
HETATM   33  NBI   D T 601       8.680   2.075  -7.150  1.00 69.25    -0.364 N 
HETATM   34  CAO   D T 601       8.784   3.370  -7.813  1.00 67.03     0.121 C 
HETATM   35  CAS   D T 601       9.038   1.949  -5.763  1.00 66.03     0.121 C 
HETATM   36  CAQ   D T 601       9.204   0.511  -5.378  1.00 59.16     0.121 C 
ENDBRANCH  29  30
ENDBRANCH  28  29
ENDBRANCH  27  28
ENDBRANCH  26  27
ENDBRANCH   9  26
TORSDOF 9
ENDMDL
MODEL 3
REMARK VINA RESULT:    -6.284      3.173      9.378
REMARK INTER + INTRA:         -10.800
REMARK INTER:                 -10.123
REMARK INTRA:                  -0.678
REMARK UNBOUND:                -1.210
REMARK  9 active torsions:
REMARK  status: ('A' for Active; 'I' for Inactive)
REMARK    1  A    between atoms: O02_2  and  CAX_24 
REMARK    2  A    between atoms: CAC_3  and  CAM_13 
REMARK    3  A    between atoms: CAC_3  and  NBH_34 
REMARK    4  A    between atoms: CAM_13  and  CAN_14 
REMARK    5  A    between atoms: CAN_14  and  OAW_23 
REMARK    6  A    between atoms: NAU_21  and  CBB_28 
REMARK    7  A    between atoms: NAU_21  and  CBE_31 
REMARK    8  A    between atoms: OAV_22  and  CBC_29 
REMARK    9  A    between atoms: OAW_23  and  CBD_30 
ROOT
HETATM    1  NAD   D T 601       7.138  -2.592  -6.722  1.00 36.67    -0.191 NA
HETATM    2  CAG   D T 601       7.748  -3.017  -5.853  1.00 40.62     0.100 C 
HETATM    3  CAH   D T 601       9.161  -4.883  -4.665  1.00 40.82     0.163 A 
HETATM    4  CAK   D T 601      10.917  -5.057  -1.176  1.00 41.85     0.098 A 
HETATM    5  CAL   D T 601       9.708  -2.286  -1.075  1.00 41.71     0.082 A 
HETATM    6  NAT   D T 601       9.915  -5.358  -3.540  1.00 40.70    -0.269 NA
HETATM    7  CBA   D T 601       8.536  -3.517  -4.676  1.00 42.63     0.088 A 
HETATM    8  CBC   D T 601      10.498  -2.812   0.073  1.00 44.75     0.095 A 
HETATM    9  CBD   D T 601      11.093  -4.173   0.023  1.00 42.74     0.096 A 
HETATM   10  CBE   D T 601       8.704  -2.613  -3.470  1.00 42.11     0.086 A 
HETATM   11  CBF   D T 601      10.112  -4.547  -2.361  1.00 42.67     0.059 A 
HETATM   12  CBG   D T 601       9.514  -3.153  -2.289  1.00 42.82     0.016 A 
ENDROOT
BRANCH  10  13
HETATM   13  NAU   D T 601       8.117  -1.265  -3.410  1.00 38.25    -0.249 NA
BRANCH  13  14
HETATM   14  CBB   D T 601       8.534  -0.289  -4.401  1.00 33.72     0.072 A 
HETATM   15  CAJ   D T 601       7.518   0.229  -5.392  1.00 33.21     0.098 A 
HETATM   16  CAX   D T 601       7.946   1.223  -6.427  1.00 37.63     0.085 A 
HETATM   17  CAY   D T 601       9.376   1.693  -6.456  1.00 36.54     0.059 A 
HETATM   18 CL1    D T 601       9.896   2.842  -7.631  1.00 50.79    -0.085 Cl
HETATM   19  CAI   D T 601      10.381   1.186  -5.481  1.00 37.60     0.079 A 
HETATM   20  CAZ   D T 601       9.963   0.192  -4.453  1.00 38.37     0.055 A 
HETATM   21 CL2    D T 601      11.155  -0.366  -3.327  1.00 54.43    -0.085 Cl
BRANCH  16  22
HETATM   22  O02   D T 601       7.030   1.708  -7.342  1.00 44.36    -0.331 OA
HETATM   23  C01   D T 601       6.869   1.100  -8.583  1.00 40.82     0.181 C 
ENDBRANCH  16  22
ENDBRANCH  13  14
ENDBRANCH  10  13
BRANCH   8  24
HETATM   24  OAV   D T 601      10.682  -2.022   1.184  1.00 49.70    -0.330 OA
HETATM   25  CAA   D T 601      11.785  -1.172   1.211  1.00 47.61     0.181 C 
ENDBRANCH   8  24
BRANCH   9  26
HETATM   26  OAW   D T 601      11.833  -4.615   1.117  1.00 41.04    -0.333 OA
BRANCH  26  27
HETATM   27  CAN   D T 601      11.233  -5.409   2.091  1.00 40.75     0.150 C 
BRANCH  27  28
HETATM   28  CAM   D T 601      12.197  -6.527   2.488  1.00 48.68     0.056 C 
BRANCH  28  29
HETATM   29  CAC   D T 601      12.380  -7.485   1.322  1.00 51.94     0.100 C 
BRANCH  29  30
HETATM   30  NBH   D T 601      11.033  -8.040   0.953  1.00 61.07    -0.365 N 
HETATM   31  CAP   D T 601      10.162  -8.752   1.896  1.00 58.61     0.121 C 
HETATM   32  CAR   D T 601       8.709  -8.636   1.391  1.00 61.37     0.121 C 
HETATM   33  NBI   D T 601       8.598  -9.131   0.039  1.00 69.25    -0.364 N 
HETATM   34  CAO   D T 601       7.232  -9.382  -0.408  1.00 67.03     0.121 C 
HETATM   35  CAS   D T 601       9.543  -8.514  -0.853  1.00 66.03     0.121 C 
HETATM   36  CAQ   D T 601      10.943  -8.670  -0.344  1.00 59.16     0.121 C 
ENDBRANCH  29  30
ENDBRANCH  28  29
ENDBRANCH  27  28
ENDBRANCH  26  27
ENDBRANCH   9  26
TORSDOF 9
ENDMDL
MODEL 4
REMARK VINA RESULT:    -6.132      4.735      9.249
REMARK INTER + INTRA:         -10.569
REMARK INTER:                  -8.377
REMARK INTRA:                  -2.192
REMARK UNBOUND:                -1.210
REMARK  9 active torsions:
REMARK  status: ('A' for Active; 'I' for Inactive)
REMARK    1  A    between atoms: O02_2  and  CAX_24 
REMARK    2  A    between atoms: CAC_3  and  CAM_13 
REMARK    3  A    between atoms: CAC_3  and  NBH_34 
REMARK    4  A    between atoms: CAM_13  and  CAN_14 
REMARK    5  A    between atoms: CAN_14  and  OAW_23 
REMARK    6  A    between atoms: NAU_21  and  CBB_28 
REMARK    7  A    between atoms: NAU_21  and  CBE_31 
REMARK    8  A    between atoms: OAV_22  and  CBC_29 
REMARK    9  A    between atoms: OAW_23  and  CBD_30 
ROOT
HETATM    1  NAD   D T 601       8.646  -3.780  -5.382  1.00 36.67    -0.191 NA
HETATM    2  CAG   D T 601       8.806  -3.742  -4.251  1.00 40.62     0.100 C 
HETATM    3  CAH   D T 601       8.662  -2.594  -1.894  1.00 40.82     0.163 A 
HETATM    4  CAK   D T 601       9.743  -3.746   1.683  1.00 41.85     0.098 A 
HETATM    5  CAL   D T 601      10.568  -6.143   0.031  1.00 41.71     0.082 A 
HETATM    6  NAT   D T 601       8.893  -2.609  -0.477  1.00 40.70    -0.269 NA
HETATM    7  CBA   D T 601       9.049  -3.753  -2.768  1.00 42.63     0.088 A 
HETATM    8  CBC   D T 601      10.790  -6.123   1.504  1.00 44.75     0.095 A 
HETATM    9  CBD   D T 601      10.384  -4.946   2.316  1.00 42.74     0.096 A 
HETATM   10  CBE   D T 601       9.699  -4.972  -2.142  1.00 42.11     0.086 A 
HETATM   11  CBF   D T 601       9.507  -3.739   0.180  1.00 42.67     0.059 A 
HETATM   12  CBG   D T 601       9.929  -4.952  -0.629  1.00 42.82     0.016 A 
ENDROOT
BRANCH  10  13
HETATM   13  NAU   D T 601      10.106  -6.142  -2.938  1.00 38.25    -0.249 NA
BRANCH  13  14
HETATM   14  CBB   D T 601       9.127  -7.187  -3.174  1.00 33.72     0.072 A 
HETATM   15  CAJ   D T 601       8.375  -7.766  -1.998  1.00 33.21     0.098 A 
HETATM   16  CAX   D T 601       7.375  -8.855  -2.232  1.00 37.63     0.085 A 
HETATM   17  CAY   D T 601       7.133  -9.349  -3.634  1.00 36.54     0.059 A 
HETATM   18 CL1    D T 601       5.984 -10.598  -3.935  1.00 50.79    -0.085 Cl
HETATM   19  CAI   D T 601       7.870  -8.782  -4.797  1.00 37.60     0.079 A 
HETATM   20  CAZ   D T 601       8.871  -7.701  -4.568  1.00 38.37     0.055 A 
HETATM   21 CL2    D T 601       9.701  -7.056  -5.945  1.00 54.43    -0.085 Cl
BRANCH  16  22
HETATM   22  O02   D T 601       6.679  -9.397  -1.169  1.00 44.36    -0.331 OA
HETATM   23  C01   D T 601       7.163  -9.293   0.132  1.00 40.82     0.181 C 
ENDBRANCH  16  22
ENDBRANCH  13  14
ENDBRANCH  10  13
BRANCH   8  24
HETATM   24  OAV   D T 601      11.369  -7.211   2.114  1.00 49.70    -0.330 OA
HETATM   25  CAA   D T 601      10.700  -8.432   2.053  1.00 47.61     0.181 C 
ENDBRANCH   8  24
BRANCH   9  26
HETATM   26  OAW   D T 601      10.601  -4.980   3.691  1.00 41.04    -0.333 OA
BRANCH  26  27
HETATM   27  CAN   D T 601      11.082  -3.851   4.349  1.00 40.75     0.150 C 
BRANCH  27  28
HETATM   28  CAM   D T 601      12.591  -3.992   4.546  1.00 48.68     0.056 C 
BRANCH  28  29
HETATM   29  CAC   D T 601      13.280  -2.691   4.168  1.00 51.94     0.100 C 
BRANCH  29  30
HETATM   30  NBH   D T 601      13.124  -2.488   2.687  1.00 61.07    -0.365 N 
HETATM   31  CAP   D T 601      13.930  -3.193   1.681  1.00 58.61     0.121 C 
HETATM   32  CAR   D T 601      13.137  -3.214   0.359  1.00 61.37     0.121 C 
HETATM   33  NBI   D T 601      12.781  -1.874  -0.044  1.00 69.25    -0.364 N 
HETATM   34  CAO   D T 601      12.336  -1.750  -1.428  1.00 67.03     0.121 C 
HETATM   35  CAS   D T 601      12.101  -1.148   0.995  1.00 66.03     0.121 C 
HETATM   36  CAQ   D T 601      12.912  -1.126   2.254  1.00 59.16     0.121 C 
ENDBRANCH  29  30
ENDBRANCH  28  29
ENDBRANCH  27  28
ENDBRANCH  26  27
ENDBRANCH   9  26
TORSDOF 9
ENDMDL
MODEL 5
REMARK VINA RESULT:    -6.106      2.534      4.197
REMARK INTER + INTRA:         -10.528
REMARK INTER:                  -9.072
REMARK INTRA:                  -1.456
REMARK UNBOUND:                -1.210
REMARK  9 active torsions:
REMARK  status: ('A' for Active; 'I' for Inactive)
REMARK    1  A    between atoms: O02_2  and  CAX_24 
REMARK    2  A    between atoms: CAC_3  and  CAM_13 
REMARK    3  A    between atoms: CAC_3  and  NBH_34 
REMARK    4  A    between atoms: CAM_13  and  CAN_14 
REMARK    5  A    between atoms: CAN_14  and  OAW_23 
REMARK    6  A    between atoms: NAU_21  and  CBB_28 
REMARK    7  A    between atoms: NAU_21  and  CBE_31 
REMARK    8  A    between atoms: OAV_22  and  CBC_29 
REMARK    9  A    between atoms: OAW_23  and  CBD_30 
ROOT
HETATM    1  NAD   D T 601      15.215  -0.004   2.551  1.00 36.67    -0.191 NA
HETATM    2  CAG   D T 601      14.562  -0.348   1.677  1.00 40.62     0.100 C 
HETATM    3  CAH   D T 601      13.954  -0.536  -0.869  1.00 40.82     0.163 A 
HETATM    4  CAK   D T 601      10.992  -2.247  -2.765  1.00 41.85     0.098 A 
HETATM    5  CAL   D T 601      10.290  -2.894   0.105  1.00 41.71     0.082 A 
HETATM    6  NAT   D T 601      13.091  -0.996  -1.921  1.00 40.70    -0.269 NA
HETATM    7  CBA   D T 601      13.660  -0.825   0.575  1.00 42.63     0.088 A 
HETATM    8  CBC   D T 601       9.420  -3.355  -1.012  1.00 44.75     0.095 A 
HETATM    9  CBD   D T 601       9.765  -3.038  -2.423  1.00 42.74     0.096 A 
HETATM   10  CBE   D T 601      12.422  -1.624   0.937  1.00 42.11     0.086 A 
HETATM   11  CBF   D T 601      11.897  -1.760  -1.644  1.00 42.67     0.059 A 
HETATM   12  CBG   D T 601      11.525  -2.096  -0.210  1.00 42.82     0.016 A 
ENDROOT
BRANCH  10  13
HETATM   13  NAU   D T 601      12.070  -1.941   2.330  1.00 38.25    -0.249 NA
BRANCH  13  14
HETATM   14  CBB   D T 601      12.790  -3.013   2.993  1.00 33.72     0.072 A 
HETATM   15  CAJ   D T 601      12.966  -4.331   2.275  1.00 33.21     0.098 A 
HETATM   16  CAX   D T 601      13.693  -5.447   2.960  1.00 37.63     0.085 A 
HETATM   17  CAY   D T 601      14.241  -5.233   4.346  1.00 36.54     0.059 A 
HETATM   18 CL1    D T 601      15.088  -6.496   5.156  1.00 50.79    -0.085 Cl
HETATM   19  CAI   D T 601      14.071  -3.936   5.058  1.00 37.60     0.079 A 
HETATM   20  CAZ   D T 601      13.343  -2.824   4.384  1.00 38.37     0.055 A 
HETATM   21 CL2    D T 601      13.175  -1.325   5.236  1.00 54.43    -0.085 Cl
BRANCH  16  22
HETATM   22  O02   D T 601      13.863  -6.659   2.319  1.00 44.36    -0.331 OA
HETATM   23  C01   D T 601      14.891  -6.845   1.399  1.00 40.82     0.181 C 
ENDBRANCH  16  22
ENDBRANCH  13  14
ENDBRANCH  10  13
BRANCH   8  24
HETATM   24  OAV   D T 601       8.291  -4.089  -0.729  1.00 49.70    -0.330 OA
HETATM   25  CAA   D T 601       8.429  -5.463  -0.548  1.00 47.61     0.181 C 
ENDBRANCH   8  24
BRANCH   9  26
HETATM   26  OAW   D T 601       8.926  -3.502  -3.433  1.00 41.04    -0.333 OA
BRANCH  26  27
HETATM   27  CAN   D T 601       9.317  -3.399  -4.765  1.00 40.75     0.150 C 
BRANCH  27  28
HETATM   28  CAM   D T 601       8.103  -3.025  -5.615  1.00 48.68     0.056 C 
BRANCH  28  29
HETATM   29  CAC   D T 601       7.373  -1.854  -4.976  1.00 51.94     0.100 C 
BRANCH  29  30
HETATM   30  NBH   D T 601       7.749  -0.603  -5.718  1.00 61.07    -0.365 N 
HETATM   31  CAP   D T 601       7.606  -0.446  -7.172  1.00 58.61     0.121 C 
HETATM   32  CAR   D T 601       7.502   1.061  -7.485  1.00 61.37     0.121 C 
HETATM   33  NBI   D T 601       8.639   1.773  -6.952  1.00 69.25    -0.364 N 
HETATM   34  CAO   D T 601       8.814   3.123  -7.475  1.00 67.03     0.121 C 
HETATM   35  CAS   D T 601       8.845   1.513  -5.552  1.00 66.03     0.121 C 
HETATM   36  CAQ   D T 601       8.969   0.044  -5.290  1.00 59.16     0.121 C 
ENDBRANCH  29  30
ENDBRANCH  28  29
ENDBRANCH  27  28
ENDBRANCH  26  27
ENDBRANCH   9  26
TORSDOF 9
ENDMDL
MODEL 6
REMARK VINA RESULT:    -6.086      4.385      7.480
REMARK INTER + INTRA:         -10.498
REMARK INTER:                  -9.135
REMARK INTRA:                  -1.363
REMARK UNBOUND:                -1.210
REMARK  9 active torsions:
REMARK  status: ('A' for Active; 'I' for Inactive)
REMARK    1  A    between atoms: O02_2  and  CAX_24 
REMARK    2  A    between atoms: CAC_3  and  CAM_13 
REMARK    3  A    between atoms: CAC_3  and  NBH_34 
REMARK    4  A    between atoms: CAM_13  and  CAN_14 
REMARK    5  A    between atoms: CAN_14  and  OAW_23 
REMARK    6  A    between atoms: NAU_21  and  CBB_28 
REMARK    7  A    between atoms: NAU_21  and  CBE_31 
REMARK    8  A    between atoms: OAV_22  and  CBC_29 
REMARK    9  A    between atoms: OAW_23  and  CBD_30 
ROOT
HETATM    1  NAD   D T 601       9.869   0.022  -3.053  1.00 36.67    -0.191 NA
HETATM    2  CAG   D T 601       9.873  -1.109  -2.880  1.00 40.62     0.100 C 
HETATM    3  CAH   D T 601       9.602  -3.605  -3.646  1.00 40.82     0.163 A 
HETATM    4  CAK   D T 601       9.940  -7.009  -1.751  1.00 41.85     0.098 A 
HETATM    5  CAL   D T 601      10.535  -5.048   0.474  1.00 41.71     0.082 A 
HETATM    6  NAT   D T 601       9.621  -5.012  -3.362  1.00 40.70    -0.269 NA
HETATM    7  CBA   D T 601       9.890  -2.581  -2.584  1.00 42.63     0.088 A 
HETATM    8  CBC   D T 601      10.547  -6.515   0.731  1.00 44.75     0.095 A 
HETATM    9  CBD   D T 601      10.255  -7.478  -0.362  1.00 42.74     0.096 A 
HETATM   10  CBE   D T 601      10.209  -3.042  -1.175  1.00 42.11     0.086 A 
HETATM   11  CBF   D T 601       9.918  -5.516  -2.041  1.00 42.67     0.059 A 
HETATM   12  CBG   D T 601      10.219  -4.549  -0.909  1.00 42.82     0.016 A 
ENDROOT
BRANCH  10  13
HETATM   13  NAU   D T 601      10.497  -2.096  -0.085  1.00 38.25    -0.249 NA
BRANCH  13  14
HETATM   14  CBB   D T 601      11.885  -1.832   0.247  1.00 33.72     0.072 A 
HETATM   15  CAJ   D T 601      12.792  -1.244  -0.810  1.00 33.21     0.098 A 
HETATM   16  CAX   D T 601      14.229  -0.984  -0.480  1.00 37.63     0.085 A 
HETATM   17  CAY   D T 601      14.742  -1.306   0.899  1.00 36.54     0.059 A 
HETATM   18 CL1    D T 601      16.389  -1.012   1.310  1.00 50.79    -0.085 Cl
HETATM   19  CAI   D T 601      13.853  -1.885   1.944  1.00 37.60     0.079 A 
HETATM   20  CAZ   D T 601      12.423  -2.152   1.619  1.00 38.37     0.055 A 
HETATM   21 CL2    D T 601      11.415  -2.813   2.863  1.00 54.43    -0.085 Cl
BRANCH  16  22
HETATM   22  O02   D T 601      15.073  -0.448  -1.434  1.00 44.36    -0.331 OA
HETATM   23  C01   D T 601      15.232   0.929  -1.555  1.00 40.82     0.181 C 
ENDBRANCH  16  22
ENDBRANCH  13  14
ENDBRANCH  10  13
BRANCH   8  24
HETATM   24  OAV   D T 601      10.840  -6.976   1.994  1.00 49.70    -0.330 OA
HETATM   25  CAA   D T 601       9.961  -6.663   3.028  1.00 47.61     0.181 C 
ENDBRANCH   8  24
BRANCH   9  26
HETATM   26  OAW   D T 601      10.291  -8.841  -0.075  1.00 41.04    -0.333 OA
BRANCH  26  27
HETATM   27  CAN   D T 601       9.134  -9.497   0.337  1.00 40.75     0.150 C 
BRANCH  27  28
HETATM   28  CAM   D T 601       8.481 -10.165  -0.872  1.00 48.68     0.056 C 
BRANCH  28  29
HETATM   29  CAC   D T 601       7.169  -9.471  -1.196  1.00 51.94     0.100 C 
BRANCH  29  30
HETATM   30  NBH   D T 601       6.958  -9.530  -2.682  1.00 61.07    -0.365 N 
HETATM   31  CAP   D T 601       7.604  -8.615  -3.632  1.00 58.61     0.121 C 
HETATM   32  CAR   D T 601       7.654  -9.308  -5.009  1.00 61.37     0.121 C 
HETATM   33  NBI   D T 601       6.331  -9.709  -5.426  1.00 69.25    -0.364 N 
HETATM   34  CAO   D T 601       6.216 -10.058  -6.838  1.00 67.03     0.121 C 
HETATM   35  CAS   D T 601       5.657 -10.503  -4.434  1.00 66.03     0.121 C 
HETATM   36  CAQ   D T 601       5.604  -9.788  -3.119  1.00 59.16     0.121 C 
ENDBRANCH  29  30
ENDBRANCH  28  29
ENDBRANCH  27  28
ENDBRANCH  26  27
ENDBRANCH   9  26
TORSDOF 9
ENDMDL
MODEL 7
REMARK VINA RESULT:    -6.051      2.744      8.387
REMARK INTER + INTRA:         -10.445
REMARK INTER:                  -9.304
REMARK INTRA:                  -1.141
REMARK UNBOUND:                -1.210
REMARK  9 active torsions:
REMARK  status: ('A' for Active; 'I' for Inactive)
REMARK    1  A    between atoms: O02_2  and  CAX_24 
REMARK    2  A    between atoms: CAC_3  and  CAM_13 
REMARK    3  A    between atoms: CAC_3  and  NBH_34 
REMARK    4  A    between atoms: CAM_13  and  CAN_14 
REMARK    5  A    between atoms: CAN_14  and  OAW_23 
REMARK    6  A    between atoms: NAU_21  and  CBB_28 
REMARK    7  A    between atoms: NAU_21  and  CBE_31 
REMARK    8  A    between atoms: OAV_22  and  CBC_29 
REMARK    9  A    between atoms: OAW_23  and  CBD_30 
ROOT
HETATM    1  NAD   D T 601       7.717  -3.072  -5.327  1.00 36.67    -0.191 NA
HETATM    2  CAG   D T 601       8.344  -3.411  -4.432  1.00 40.62     0.100 C 
HETATM    3  CAH   D T 601       9.754  -5.164  -3.080  1.00 40.82     0.163 A 
HETATM    4  CAK   D T 601      11.605  -4.987   0.361  1.00 41.85     0.098 A 
HETATM    5  CAL   D T 601      10.452  -2.196   0.181  1.00 41.71     0.082 A 
HETATM    6  NAT   D T 601      10.531  -5.528  -1.928  1.00 40.70    -0.269 NA
HETATM    7  CBA   D T 601       9.155  -3.794  -3.227  1.00 42.63     0.088 A 
HETATM    8  CBC   D T 601      11.264  -2.608   1.360  1.00 44.75     0.095 A 
HETATM    9  CBD   D T 601      11.831  -3.979   1.448  1.00 42.74     0.096 A 
HETATM   10  CBE   D T 601       9.375  -2.766  -2.135  1.00 42.11     0.086 A 
HETATM   11  CBF   D T 601      10.776  -4.594  -0.853  1.00 42.67     0.059 A 
HETATM   12  CBG   D T 601      10.207  -3.188  -0.922  1.00 42.82     0.016 A 
ENDROOT
BRANCH  10  13
HETATM   13  NAU   D T 601       8.815  -1.406  -2.211  1.00 38.25    -0.249 NA
BRANCH  13  14
HETATM   14  CBB   D T 601       9.216  -0.560  -3.321  1.00 33.72     0.072 A 
HETATM   15  CAJ   D T 601       8.148   0.055  -4.195  1.00 33.21     0.098 A 
HETATM   16  CAX   D T 601       8.553   0.916  -5.351  1.00 37.63     0.085 A 
HETATM   17  CAY   D T 601      10.016   1.158  -5.617  1.00 36.54     0.059 A 
HETATM   18 CL1    D T 601      10.513   2.149  -6.936  1.00 50.79    -0.085 Cl
HETATM   19  CAI   D T 601      11.072   0.555  -4.758  1.00 37.60     0.079 A 
HETATM   20  CAZ   D T 601      10.674  -0.308  -3.609  1.00 38.37     0.055 A 
HETATM   21 CL2    D T 601      11.929  -0.982  -2.623  1.00 54.43    -0.085 Cl
BRANCH  16  22
HETATM   22  O02   D T 601       7.591   1.486  -6.162  1.00 44.36    -0.331 OA
HETATM   23  C01   D T 601       7.293   0.944  -7.409  1.00 40.82     0.181 C 
ENDBRANCH  16  22
ENDBRANCH  13  14
ENDBRANCH  10  13
BRANCH   8  24
HETATM   24  OAV   D T 601      11.494  -1.703   2.370  1.00 49.70    -0.330 OA
HETATM   25  CAA   D T 601      12.476  -0.735   2.174  1.00 47.61     0.181 C 
ENDBRANCH   8  24
BRANCH   9  26
HETATM   26  OAW   D T 601      12.594  -4.312   2.564  1.00 41.04    -0.333 OA
BRANCH  26  27
HETATM   27  CAN   D T 601      13.627  -5.240   2.451  1.00 40.75     0.150 C 
BRANCH  27  28
HETATM   28  CAM   D T 601      14.961  -4.497   2.395  1.00 48.68     0.056 C 
BRANCH  28  29
HETATM   29  CAC   D T 601      15.444  -4.419   0.956  1.00 51.94     0.100 C 
BRANCH  29  30
HETATM   30  NBH   D T 601      15.569  -2.971   0.578  1.00 61.07    -0.365 N 
HETATM   31  CAP   D T 601      15.876  -1.904   1.540  1.00 58.61     0.121 C 
HETATM   32  CAR   D T 601      16.503  -0.726   0.768  1.00 61.37     0.121 C 
HETATM   33  NBI   D T 601      15.630  -0.289  -0.296  1.00 69.25    -0.364 N 
HETATM   34  CAO   D T 601      15.960   1.014  -0.861  1.00 67.03     0.121 C 
HETATM   35  CAS   D T 601      15.235  -1.368  -1.161  1.00 66.03     0.121 C 
HETATM   36  CAQ   D T 601      14.606  -2.481  -0.381  1.00 59.16     0.121 C 
ENDBRANCH  29  30
ENDBRANCH  28  29
ENDBRANCH  27  28
ENDBRANCH  26  27
ENDBRANCH   9  26
TORSDOF 9
ENDMDL
MODEL 8
REMARK VINA RESULT:    -6.025      2.367      3.324
REMARK INTER + INTRA:         -10.405
REMARK INTER:                  -9.590
REMARK INTRA:                  -0.816
REMARK UNBOUND:                -1.210
REMARK  9 active torsions:
REMARK  status: ('A' for Active; 'I' for Inactive)
REMARK    1  A    between atoms: O02_2  and  CAX_24 
REMARK    2  A    between atoms: CAC_3  and  CAM_13 
REMARK    3  A    between atoms: CAC_3  and  NBH_34 
REMARK    4  A    between atoms: CAM_13  and  CAN_14 
REMARK    5  A    between atoms: CAN_14  and  OAW_23 
REMARK    6  A    between atoms: NAU_21  and  CBB_28 
REMARK    7  A    between atoms: NAU_21  and  CBE_31 
REMARK    8  A    between atoms: OAV_22  and  CBC_29 
REMARK    9  A    between atoms: OAW_23  and  CBD_30 
ROOT
HETATM    1  NAD   D T 601      12.602  -2.959   6.472  1.00 36.67    -0.191 NA
HETATM    2  CAG   D T 601      12.088  -3.162   5.471  1.00 40.62     0.100 C 
HETATM    3  CAH   D T 601      10.469  -4.490   3.889  1.00 40.82     0.163 A 
HETATM    4  CAK   D T 601       9.500  -4.058   0.125  1.00 41.85     0.098 A 
HETATM    5  CAL   D T 601      11.462  -1.783   0.481  1.00 41.71     0.082 A 
HETATM    6  NAT   D T 601       9.858  -4.693   2.605  1.00 40.70    -0.269 NA
HETATM    7  CBA   D T 601      11.450  -3.378   4.129  1.00 42.63     0.088 A 
HETATM    8  CBC   D T 601      10.808  -2.023  -0.836  1.00 44.75     0.095 A 
HETATM    9  CBD   D T 601       9.844  -3.140  -1.011  1.00 42.74     0.096 A 
HETATM   10  CBE   D T 601      11.807  -2.443   2.989  1.00 42.11     0.086 A 
HETATM   11  CBF   D T 601      10.156  -3.838   1.479  1.00 42.67     0.059 A 
HETATM   12  CBG   D T 601      11.138  -2.690   1.635  1.00 42.82     0.016 A 
ENDROOT
BRANCH  10  13
HETATM   13  NAU   D T 601      12.763  -1.335   3.152  1.00 38.25    -0.249 NA
BRANCH  13  14
HETATM   14  CBB   D T 601      13.879  -1.249   2.227  1.00 33.72     0.072 A 
HETATM   15  CAJ   D T 601      14.100   0.036   1.464  1.00 33.21     0.098 A 
HETATM   16  CAX   D T 601      15.239   0.127   0.497  1.00 37.63     0.085 A 
HETATM   17  CAY   D T 601      16.146  -1.060   0.307  1.00 36.54     0.059 A 
HETATM   18 CL1    D T 601      17.469  -0.983  -0.795  1.00 50.79    -0.085 Cl
HETATM   19  CAI   D T 601      15.933  -2.329   1.057  1.00 37.60     0.079 A 
HETATM   20  CAZ   D T 601      14.797  -2.427   2.017  1.00 38.37     0.055 A 
HETATM   21 CL2    D T 601      14.587  -3.913   2.881  1.00 54.43    -0.085 Cl
BRANCH  16  22
HETATM   22  O02   D T 601      15.456   1.294  -0.210  1.00 44.36    -0.331 OA
HETATM   23  C01   D T 601      14.967   1.449  -1.504  1.00 40.82     0.181 C 
ENDBRANCH  16  22
ENDBRANCH  13  14
ENDBRANCH  10  13
BRANCH   8  24
HETATM   24  OAV   D T 601      11.098  -1.193  -1.894  1.00 49.70    -0.330 OA
HETATM   25  CAA   D T 601      12.407  -1.170  -2.372  1.00 47.61     0.181 C 
ENDBRANCH   8  24
BRANCH   9  26
HETATM   26  OAW   D T 601       9.250  -3.316  -2.258  1.00 41.04    -0.333 OA
BRANCH  26  27
HETATM   27  CAN   D T 601       7.908  -2.990  -2.443  1.00 40.75     0.150 C 
BRANCH  27  28
HETATM   28  CAM   D T 601       7.812  -1.764  -3.351  1.00 48.68     0.056 C 
BRANCH  28  29
HETATM   29  CAC   D T 601       8.786  -1.908  -4.510  1.00 51.94     0.100 C 
BRANCH  29  30
HETATM   30  NBH   D T 601       8.884  -0.582  -5.209  1.00 61.07    -0.365 N 
HETATM   31  CAP   D T 601       9.661   0.553  -4.695  1.00 58.61     0.121 C 
HETATM   32  CAR   D T 601      10.025   1.465  -5.883  1.00 61.37     0.121 C 
HETATM   33  NBI   D T 601       8.838   1.874  -6.596  1.00 69.25    -0.364 N 
HETATM   34  CAO   D T 601       9.030   2.992  -7.512  1.00 67.03     0.121 C 
HETATM   35  CAS   D T 601       8.019   0.758  -6.988  1.00 66.03     0.121 C 
HETATM   36  CAQ   D T 601       7.663  -0.089  -5.805  1.00 59.16     0.121 C 
ENDBRANCH  29  30
ENDBRANCH  28  29
ENDBRANCH  27  28
ENDBRANCH  26  27
ENDBRANCH   9  26
TORSDOF 9
ENDMDL
MODEL 9
REMARK VINA RESULT:    -5.917      3.094      4.785
REMARK INTER + INTRA:         -10.240
REMARK INTER:                  -8.877
REMARK INTRA:                  -1.363
REMARK UNBOUND:                -1.210
REMARK  9 active torsions:
REMARK  status: ('A' for Active; 'I' for Inactive)
REMARK    1  A    between atoms: O02_2  and  CAX_24 
REMARK    2  A    between atoms: CAC_3  and  CAM_13 
REMARK    3  A    between atoms: CAC_3  and  NBH_34 
REMARK    4  A    between atoms: CAM_13  and  CAN_14 
REMARK    5  A    between atoms: CAN_14  and  OAW_23 
REMARK    6  A    between atoms: NAU_21  and  CBB_28 
REMARK    7  A    between atoms: NAU_21  and  CBE_31 
REMARK    8  A    between atoms: OAV_22  and  CBC_29 
REMARK    9  A    between atoms: OAW_23  and  CBD_30 
ROOT
HETATM    1  NAD   D T 601       8.652  -9.949   1.915  1.00 36.67    -0.191 NA
HETATM    2  CAG   D T 601       8.755  -9.044   1.223  1.00 40.62     0.100 C 
HETATM    3  CAH   D T 601       8.691  -7.855  -1.116  1.00 40.82     0.163 A 
HETATM    4  CAK   D T 601       9.356  -4.166  -2.230  1.00 41.85     0.098 A 
HETATM    5  CAL   D T 601       9.830  -3.963   0.751  1.00 41.71     0.082 A 
HETATM    6  NAT   D T 601       8.838  -6.681  -1.929  1.00 40.70    -0.269 NA
HETATM    7  CBA   D T 601       8.912  -7.818   0.370  1.00 42.63     0.088 A 
HETATM    8  CBC   D T 601       9.973  -2.766  -0.125  1.00 44.75     0.095 A 
HETATM    9  CBD   D T 601       9.739  -2.866  -1.589  1.00 42.74     0.096 A 
HETATM   10  CBE   D T 601       9.301  -6.510   1.031  1.00 42.11     0.086 A 
HETATM   11  CBF   D T 601       9.207  -5.405  -1.361  1.00 42.67     0.059 A 
HETATM   12  CBG   D T 601       9.450  -5.280   0.133  1.00 42.82     0.016 A 
ENDROOT
BRANCH  10  13
HETATM   13  NAU   D T 601       9.536  -6.402   2.480  1.00 38.25    -0.249 NA
BRANCH  13  14
HETATM   14  CBB   D T 601      10.908  -6.416   2.956  1.00 33.72     0.072 A 
HETATM   15  CAJ   D T 601      11.858  -7.462   2.422  1.00 33.21     0.098 A 
HETATM   16  CAX   D T 601      13.269  -7.492   2.921  1.00 37.63     0.085 A 
HETATM   17  CAY   D T 601      13.717  -6.478   3.939  1.00 36.54     0.059 A 
HETATM   18 CL1    D T 601      15.337  -6.484   4.527  1.00 50.79    -0.085 Cl
HETATM   19  CAI   D T 601      12.785  -5.444   4.469  1.00 37.60     0.079 A 
HETATM   20  CAZ   D T 601      11.377  -5.413   3.980  1.00 38.37     0.055 A 
HETATM   21 CL2    D T 601      10.324  -4.189   4.608  1.00 54.43    -0.085 Cl
BRANCH  16  22
HETATM   22  O02   D T 601      14.152  -8.442   2.444  1.00 44.36    -0.331 OA
HETATM   23  C01   D T 601      14.478  -8.502   1.092  1.00 40.82     0.181 C 
ENDBRANCH  16  22
ENDBRANCH  13  14
ENDBRANCH  10  13
BRANCH   8  24
HETATM   24  OAV   D T 601      10.316  -1.557   0.436  1.00 49.70    -0.330 OA
HETATM   25  CAA   D T 601      11.562  -1.448   1.049  1.00 47.61     0.181 C 
ENDBRANCH   8  24
BRANCH   9  26
HETATM   26  OAW   D T 601       9.873  -1.716  -2.363  1.00 41.04    -0.333 OA
BRANCH  26  27
HETATM   27  CAN   D T 601       8.810  -0.822  -2.473  1.00 40.75     0.150 C 
BRANCH  27  28
HETATM   28  CAM   D T 601       8.035  -1.124  -3.755  1.00 48.68     0.056 C 
BRANCH  28  29
HETATM   29  CAC   D T 601       8.997  -1.203  -4.929  1.00 51.94     0.100 C 
BRANCH  29  30
HETATM   30  NBH   D T 601       8.973   0.115  -5.648  1.00 61.07    -0.365 N 
HETATM   31  CAP   D T 601       9.776   1.277  -5.242  1.00 58.61     0.121 C 
HETATM   32  CAR   D T 601       9.968   2.183  -6.475  1.00 61.37     0.121 C 
HETATM   33  NBI   D T 601       8.692   2.552  -7.041  1.00 69.25    -0.364 N 
HETATM   34  CAO   D T 601       8.741   3.663  -7.984  1.00 67.03     0.121 C 
HETATM   35  CAS   D T 601       7.862   1.411  -7.319  1.00 66.03     0.121 C 
HETATM   36  CAQ   D T 601       7.676   0.569  -6.094  1.00 59.16     0.121 C 
ENDBRANCH  29  30
ENDBRANCH  28  29
ENDBRANCH  27  28
ENDBRANCH  26  27
ENDBRANCH   9  26
TORSDOF 9
ENDMDL
