MODEL 1
REMARK VINA RESULT:    -7.912      0.000      0.000
REMARK INTER + INTRA:         -13.345
REMARK INTER:                 -12.075
REMARK INTRA:                  -1.270
REMARK UNBOUND:                -1.270
REMARK  9 active torsions:
REMARK  status: ('A' for Active; 'I' for Inactive)
REMARK    1  A    between atoms: O02_2  and  CAX_24 
REMARK    2  A    between atoms: CAC_3  and  CAM_13 
REMARK    3  A    between atoms: CAC_3  and  NBH_34 
REMARK    4  A    between atoms: CAM_13  and  CAN_14 
REMARK    5  A    between atoms: CAN_14  and  OAW_23 
REMARK    6  A    between atoms: NAU_21  and  CBB_28 
REMARK    7  A    between atoms: NAU_21  and  CBE_31 
REMARK    8  A    between atoms: OAV_22  and  CBC_29 
REMARK    9  A    between atoms: OAW_23  and  CBD_30 
ROOT
HETATM    1  NAD   D T 601      13.298   0.925   3.810  1.00 36.67    -0.191 NA
HETATM    2  CAG   D T 601      12.928   1.507   2.898  1.00 40.62     0.100 C 
HETATM    3  CAH   D T 601      13.117   3.379   1.068  1.00 40.82     0.163 A 
HETATM    4  CAK   D T 601      10.787   4.433  -1.891  1.00 41.85     0.098 A 
HETATM    5  CAL   D T 601       9.209   2.142  -0.704  1.00 41.71     0.082 A 
HETATM    6  NAT   D T 601      12.593   4.070  -0.077  1.00 40.70    -0.269 NA
HETATM    7  CBA   D T 601      12.380   2.233   1.703  1.00 42.63     0.088 A 
HETATM    8  CBC   D T 601       8.697   2.881  -1.892  1.00 44.75     0.095 A 
HETATM    9  CBD   D T 601       9.474   4.006  -2.476  1.00 42.74     0.096 A 
HETATM   10  CBE   D T 601      11.050   1.791   1.122  1.00 42.11     0.086 A 
HETATM   11  CBF   D T 601      11.332   3.698  -0.676  1.00 42.67     0.059 A 
HETATM   12  CBG   D T 601      10.522   2.551  -0.097  1.00 42.82     0.016 A 
ENDROOT
BRANCH  10  13
HETATM   13  NAU   D T 601      10.273   0.679   1.696  1.00 38.25    -0.249 NA
BRANCH  13  14
HETATM   14  CBB   D T 601      10.807  -0.665   1.577  1.00 33.72     0.072 A 
HETATM   15  CAJ   D T 601      11.246  -1.162   0.220  1.00 33.21     0.098 A 
HETATM   16  CAX   D T 601      11.783  -2.553   0.088  1.00 37.63     0.085 A 
HETATM   17  CAY   D T 601      11.881  -3.428   1.308  1.00 36.54     0.059 A 
HETATM   18 CL1    D T 601      12.501  -5.033   1.189  1.00 50.79    -0.085 Cl
HETATM   19  CAI   D T 601      11.450  -2.944   2.650  1.00 37.60     0.079 A 
HETATM   20  CAZ   D T 601      10.909  -1.561   2.785  1.00 38.37     0.055 A 
HETATM   21 CL2    D T 601      10.430  -1.026   4.361  1.00 54.43    -0.085 Cl
BRANCH  16  22
HETATM   22  O02   D T 601      12.188  -3.025  -1.147  1.00 44.36    -0.331 OA
HETATM   23  C01   D T 601      12.383  -2.156  -2.217  1.00 40.82     0.181 C 
ENDBRANCH  16  22
ENDBRANCH  13  14
ENDBRANCH  10  13
BRANCH   8  24
HETATM   24  OAV   D T 601       7.499   2.508  -2.454  1.00 49.70    -0.330 OA
HETATM   25  CAA   D T 601       7.469   1.349  -3.226  1.00 47.61     0.181 C 
ENDBRANCH   8  24
BRANCH   9  26
HETATM   26  OAW   D T 601       8.959   4.658  -3.594  1.00 41.04    -0.333 OA
BRANCH  26  27
HETATM   27  CAN   D T 601       9.641   4.603  -4.808  1.00 40.75     0.150 C 
BRANCH  27  28
HETATM   28  CAM   D T 601       8.640   4.764  -5.951  1.00 48.68     0.056 C 
BRANCH  28  29
HETATM   29  CAC   D T 601       8.169   3.395  -6.417  1.00 51.94     0.100 C 
BRANCH  29  30
HETATM   30  NBH   D T 601       7.087   3.592  -7.439  1.00 61.07    -0.365 N 
HETATM   31  CAP   D T 601       6.368   4.859  -7.629  1.00 58.61     0.121 C 
HETATM   32  CAR   D T 601       5.813   4.887  -9.068  1.00 61.37     0.121 C 
HETATM   33  NBI   D T 601       4.988   3.730  -9.319  1.00 69.25    -0.364 N 
HETATM   34  CAO   D T 601       4.151   3.823 -10.510  1.00 67.03     0.121 C 
HETATM   35  CAS   D T 601       5.660   2.496  -9.012  1.00 66.03     0.121 C 
HETATM   36  CAQ   D T 601       6.161   2.493  -7.600  1.00 59.16     0.121 C 
ENDBRANCH  29  30
ENDBRANCH  28  29
ENDBRANCH  27  28
ENDBRANCH  26  27
ENDBRANCH   9  26
TORSDOF 9
ENDMDL
MODEL 2
REMARK VINA RESULT:    -7.279      2.584      3.854
REMARK INTER + INTRA:         -12.380
REMARK INTER:                 -11.147
REMARK INTRA:                  -1.233
REMARK UNBOUND:                -1.270
REMARK  9 active torsions:
REMARK  status: ('A' for Active; 'I' for Inactive)
REMARK    1  A    between atoms: O02_2  and  CAX_24 
REMARK    2  A    between atoms: CAC_3  and  CAM_13 
REMARK    3  A    between atoms: CAC_3  and  NBH_34 
REMARK    4  A    between atoms: CAM_13  and  CAN_14 
REMARK    5  A    between atoms: CAN_14  and  OAW_23 
REMARK    6  A    between atoms: NAU_21  and  CBB_28 
REMARK    7  A    between atoms: NAU_21  and  CBE_31 
REMARK    8  A    between atoms: OAV_22  and  CBC_29 
REMARK    9  A    between atoms: OAW_23  and  CBD_30 
ROOT
HETATM    1  NAD   D T 601      10.868   3.715   2.413  1.00 36.67    -0.191 NA
HETATM    2  CAG   D T 601      10.377   3.573   1.390  1.00 40.62     0.100 C 
HETATM    3  CAH   D T 601       8.507   4.007  -0.400  1.00 40.82     0.163 A 
HETATM    4  CAK   D T 601       7.964   2.678  -4.038  1.00 41.85     0.098 A 
HETATM    5  CAL   D T 601      10.535   1.272  -3.289  1.00 41.71     0.082 A 
HETATM    6  NAT   D T 601       7.941   3.783  -1.701  1.00 40.70    -0.269 NA
HETATM    7  CBA   D T 601       9.782   3.339   0.032  1.00 42.63     0.088 A 
HETATM    8  CBC   D T 601       9.920   1.065  -4.629  1.00 44.75     0.095 A 
HETATM    9  CBD   D T 601       8.657   1.758  -4.997  1.00 42.74     0.096 A 
HETATM   10  CBE   D T 601      10.493   2.403  -0.929  1.00 42.11     0.086 A 
HETATM   11  CBF   D T 601       8.569   2.905  -2.660  1.00 42.67     0.059 A 
HETATM   12  CBG   D T 601       9.861   2.189  -2.306  1.00 42.82     0.016 A 
ENDROOT
BRANCH  10  13
HETATM   13  NAU   D T 601      11.743   1.712  -0.572  1.00 38.25    -0.249 NA
BRANCH  13  14
HETATM   14  CBB   D T 601      11.652   0.382   0.003  1.00 33.72     0.072 A 
HETATM   15  CAJ   D T 601      11.101   0.225   1.400  1.00 33.21     0.098 A 
HETATM   16  CAX   D T 601      11.020  -1.142   2.006  1.00 37.63     0.085 A 
HETATM   17  CAY   D T 601      11.482  -2.333   1.211  1.00 36.54     0.059 A 
HETATM   18 CL1    D T 601      11.396  -3.920   1.879  1.00 50.79    -0.085 Cl
HETATM   19  CAI   D T 601      12.027  -2.184  -0.168  1.00 37.60     0.079 A 
HETATM   20  CAZ   D T 601      12.116  -0.824  -0.773  1.00 38.37     0.055 A 
HETATM   21 CL2    D T 601      12.742  -0.689  -2.382  1.00 54.43    -0.085 Cl
BRANCH  16  22
HETATM   22  O02   D T 601      10.518  -1.305   3.284  1.00 44.36    -0.331 OA
HETATM   23  C01   D T 601      10.723  -0.337   4.262  1.00 40.82     0.181 C 
ENDBRANCH  16  22
ENDBRANCH  13  14
ENDBRANCH  10  13
BRANCH   8  24
HETATM   24  OAV   D T 601      10.537   0.232  -5.532  1.00 49.70    -0.330 OA
HETATM   25  CAA   D T 601      11.890   0.432  -5.793  1.00 47.61     0.181 C 
ENDBRANCH   8  24
BRANCH   9  26
HETATM   26  OAW   D T 601       8.128   1.541  -6.268  1.00 41.04    -0.333 OA
BRANCH  26  27
HETATM   27  CAN   D T 601       6.986   0.757  -6.421  1.00 40.75     0.150 C 
BRANCH  27  28
HETATM   28  CAM   D T 601       5.857   1.625  -6.977  1.00 48.68     0.056 C 
BRANCH  28  29
HETATM   29  CAC   D T 601       6.346   2.381  -8.202  1.00 51.94     0.100 C 
BRANCH  29  30
HETATM   30  NBH   D T 601       6.311   3.851  -7.894  1.00 61.07    -0.365 N 
HETATM   31  CAP   D T 601       5.298   4.769  -8.432  1.00 58.61     0.121 C 
HETATM   32  CAR   D T 601       5.198   5.982  -7.485  1.00 61.37     0.121 C 
HETATM   33  NBI   D T 601       6.488   6.605  -7.314  1.00 69.25    -0.364 N 
HETATM   34  CAO   D T 601       6.450   7.938  -6.724  1.00 67.03     0.121 C 
HETATM   35  CAS   D T 601       7.503   5.671  -6.907  1.00 66.03     0.121 C 
HETATM   36  CAQ   D T 601       7.591   4.522  -7.863  1.00 59.16     0.121 C 
ENDBRANCH  29  30
ENDBRANCH  28  29
ENDBRANCH  27  28
ENDBRANCH  26  27
ENDBRANCH   9  26
TORSDOF 9
ENDMDL
MODEL 3
REMARK VINA RESULT:    -7.174      3.498      9.416
REMARK INTER + INTRA:         -12.219
REMARK INTER:                 -11.058
REMARK INTRA:                  -1.161
REMARK UNBOUND:                -1.270
REMARK  9 active torsions:
REMARK  status: ('A' for Active; 'I' for Inactive)
REMARK    1  A    between atoms: O02_2  and  CAX_24 
REMARK    2  A    between atoms: CAC_3  and  CAM_13 
REMARK    3  A    between atoms: CAC_3  and  NBH_34 
REMARK    4  A    between atoms: CAM_13  and  CAN_14 
REMARK    5  A    between atoms: CAN_14  and  OAW_23 
REMARK    6  A    between atoms: NAU_21  and  CBB_28 
REMARK    7  A    between atoms: NAU_21  and  CBE_31 
REMARK    8  A    between atoms: OAV_22  and  CBC_29 
REMARK    9  A    between atoms: OAW_23  and  CBD_30 
ROOT
HETATM    1  NAD   D T 601       9.638   6.972  -5.112  1.00 36.67    -0.191 NA
HETATM    2  CAG   D T 601       9.695   6.443  -4.101  1.00 40.62     0.100 C 
HETATM    3  CAH   D T 601       9.501   6.346  -1.485  1.00 40.82     0.163 A 
HETATM    4  CAK   D T 601      10.061   3.469   1.106  1.00 41.85     0.098 A 
HETATM    5  CAL   D T 601      10.674   2.037  -1.486  1.00 41.71     0.082 A 
HETATM    6  NAT   D T 601       9.594   5.622  -0.247  1.00 40.70    -0.269 NA
HETATM    7  CBA   D T 601       9.793   5.690  -2.806  1.00 42.63     0.088 A 
HETATM    8  CBC   D T 601      10.758   1.319  -0.184  1.00 44.75     0.095 A 
HETATM    9  CBD   D T 601      10.455   2.023   1.089  1.00 42.74     0.096 A 
HETATM   10  CBE   D T 601      10.194   4.227  -2.836  1.00 42.11     0.086 A 
HETATM   11  CBF   D T 601       9.971   4.228  -0.209  1.00 42.67     0.059 A 
HETATM   12  CBG   D T 601      10.283   3.488  -1.499  1.00 42.82     0.016 A 
ENDROOT
BRANCH  10  13
HETATM   13  NAU   D T 601      10.498   3.522  -4.093  1.00 38.25    -0.249 NA
BRANCH  13  14
HETATM   14  CBB   D T 601       9.400   2.917  -4.824  1.00 33.72     0.072 A 
HETATM   15  CAJ   D T 601       8.302   3.804  -5.362  1.00 33.21     0.098 A 
HETATM   16  CAX   D T 601       7.157   3.185  -6.103  1.00 37.63     0.085 A 
HETATM   17  CAY   D T 601       7.125   1.694  -6.304  1.00 36.54     0.059 A 
HETATM   18 CL1    D T 601       5.824   0.952  -7.159  1.00 50.79    -0.085 Cl
HETATM   19  CAI   D T 601       8.206   0.814  -5.777  1.00 37.60     0.079 A 
HETATM   20  CAZ   D T 601       9.344   1.425  -5.032  1.00 38.37     0.055 A 
HETATM   21 CL2    D T 601      10.588   0.374  -4.444  1.00 54.43    -0.085 Cl
BRANCH  16  22
HETATM   22  O02   D T 601       6.143   3.981  -6.602  1.00 44.36    -0.331 OA
HETATM   23  C01   D T 601       6.389   5.294  -6.990  1.00 40.82     0.181 C 
ENDBRANCH  16  22
ENDBRANCH  13  14
ENDBRANCH  10  13
BRANCH   8  24
HETATM   24  OAV   D T 601      11.111  -0.011  -0.169  1.00 49.70    -0.330 OA
HETATM   25  CAA   D T 601      12.028  -0.458  -1.117  1.00 47.61     0.181 C 
ENDBRANCH   8  24
BRANCH   9  26
HETATM   26  OAW   D T 601      10.536   1.304   2.280  1.00 41.04    -0.333 OA
BRANCH  26  27
HETATM   27  CAN   D T 601      11.703   1.347   3.041  1.00 40.75     0.150 C 
BRANCH  27  28
HETATM   28  CAM   D T 601      11.886   0.005   3.748  1.00 48.68     0.056 C 
BRANCH  28  29
HETATM   29  CAC   D T 601      10.700  -0.899   3.450  1.00 51.94     0.100 C 
BRANCH  29  30
HETATM   30  NBH   D T 601      11.204  -2.116   2.729  1.00 61.07    -0.365 N 
HETATM   31  CAP   D T 601      12.622  -2.348   2.419  1.00 58.61     0.121 C 
HETATM   32  CAR   D T 601      12.834  -3.866   2.249  1.00 61.37     0.121 C 
HETATM   33  NBI   D T 601      11.944  -4.397   1.244  1.00 69.25    -0.364 N 
HETATM   34  CAO   D T 601      12.288  -5.731   0.767  1.00 67.03     0.121 C 
HETATM   35  CAS   D T 601      10.568  -4.057   1.490  1.00 66.03     0.121 C 
HETATM   36  CAQ   D T 601      10.395  -2.576   1.622  1.00 59.16     0.121 C 
ENDBRANCH  29  30
ENDBRANCH  28  29
ENDBRANCH  27  28
ENDBRANCH  26  27
ENDBRANCH   9  26
TORSDOF 9
ENDMDL
MODEL 4
REMARK VINA RESULT:    -6.990     11.094     15.016
REMARK INTER + INTRA:         -11.938
REMARK INTER:                 -10.663
REMARK INTRA:                  -1.275
REMARK UNBOUND:                -1.270
REMARK  9 active torsions:
REMARK  status: ('A' for Active; 'I' for Inactive)
REMARK    1  A    between atoms: O02_2  and  CAX_24 
REMARK    2  A    between atoms: CAC_3  and  CAM_13 
REMARK    3  A    between atoms: CAC_3  and  NBH_34 
REMARK    4  A    between atoms: CAM_13  and  CAN_14 
REMARK    5  A    between atoms: CAN_14  and  OAW_23 
REMARK    6  A    between atoms: NAU_21  and  CBB_28 
REMARK    7  A    between atoms: NAU_21  and  CBE_31 
REMARK    8  A    between atoms: OAV_22  and  CBC_29 
REMARK    9  A    between atoms: OAW_23  and  CBD_30 
ROOT
HETATM    1  NAD   D T 601       7.426  18.400   2.038  1.00 36.67    -0.191 NA
HETATM    2  CAG   D T 601       7.735  17.371   1.651  1.00 40.62     0.100 C 
HETATM    3  CAH   D T 601       9.345  15.303   1.498  1.00 40.82     0.163 A 
HETATM    4  CAK   D T 601       9.171  11.956  -0.518  1.00 41.85     0.098 A 
HETATM    5  CAL   D T 601       6.605  13.292  -1.399  1.00 41.71     0.082 A 
HETATM    6  NAT   D T 601       9.676  14.009   0.970  1.00 40.70    -0.269 NA
HETATM    7  CBA   D T 601       8.085  16.018   1.099  1.00 42.63     0.088 A 
HETATM    8  CBC   D T 601       6.980  11.950  -1.923  1.00 44.75     0.095 A 
HETATM    9  CBD   D T 601       8.240  11.292  -1.489  1.00 42.74     0.096 A 
HETATM   10  CBE   D T 601       7.135  15.359   0.116  1.00 42.11     0.086 A 
HETATM   11  CBF   D T 601       8.814  13.329   0.031  1.00 42.67     0.059 A 
HETATM   12  CBG   D T 601       7.520  13.981  -0.425  1.00 42.82     0.016 A 
ENDROOT
BRANCH  10  13
HETATM   13  NAU   D T 601       5.885  16.004  -0.322  1.00 38.25    -0.249 NA
BRANCH  13  14
HETATM   14  CBB   D T 601       5.974  17.117  -1.249  1.00 33.72     0.072 A 
HETATM   15  CAJ   D T 601       6.913  17.015  -2.428  1.00 33.21     0.098 A 
HETATM   16  CAX   D T 601       7.022  18.166  -3.379  1.00 37.63     0.085 A 
HETATM   17  CAY   D T 601       6.192  19.400  -3.148  1.00 36.54     0.059 A 
HETATM   18 CL1    D T 601       6.291  20.739  -4.228  1.00 50.79    -0.085 Cl
HETATM   19  CAI   D T 601       5.264  19.506  -1.986  1.00 37.60     0.079 A 
HETATM   20  CAZ   D T 601       5.156  18.365  -1.033  1.00 38.37     0.055 A 
HETATM   21 CL2    D T 601       4.059  18.518   0.298  1.00 54.43    -0.085 Cl
BRANCH  16  22
HETATM   22  O02   D T 601       7.877  18.091  -4.463  1.00 44.36    -0.331 OA
HETATM   23  C01   D T 601       7.439  17.591  -5.686  1.00 40.82     0.181 C 
ENDBRANCH  16  22
ENDBRANCH  13  14
ENDBRANCH  10  13
BRANCH   8  24
HETATM   24  OAV   D T 601       6.143  11.314  -2.811  1.00 49.70    -0.330 OA
HETATM   25  CAA   D T 601       6.270  11.616  -4.164  1.00 47.61     0.181 C 
ENDBRANCH   8  24
BRANCH   9  26
HETATM   26  OAW   D T 601       8.541  10.031  -1.999  1.00 41.04    -0.333 OA
BRANCH  26  27
HETATM   27  CAN   D T 601       9.556   9.271  -1.421  1.00 40.75     0.150 C 
BRANCH  27  28
HETATM   28  CAM   D T 601       8.932   8.238  -0.483  1.00 48.68     0.056 C 
BRANCH  28  29
HETATM   29  CAC   D T 601       8.910   6.877  -1.159  1.00 51.94     0.100 C 
BRANCH  29  30
HETATM   30  NBH   D T 601       9.552   5.881  -0.236  1.00 61.07    -0.365 N 
HETATM   31  CAP   D T 601       9.717   6.100   1.207  1.00 58.61     0.121 C 
HETATM   32  CAR   D T 601       9.833   4.723   1.892  1.00 61.37     0.121 C 
HETATM   33  NBI   D T 601      10.908   3.953   1.313  1.00 69.25    -0.364 N 
HETATM   34  CAO   D T 601      11.321   2.795   2.097  1.00 67.03     0.121 C 
HETATM   35  CAS   D T 601      10.805   3.850  -0.118  1.00 66.03     0.121 C 
HETATM   36  CAQ   D T 601      10.722   5.205  -0.750  1.00 59.16     0.121 C 
ENDBRANCH  29  30
ENDBRANCH  28  29
ENDBRANCH  27  28
ENDBRANCH  26  27
ENDBRANCH   9  26
TORSDOF 9
ENDMDL
MODEL 5
REMARK VINA RESULT:    -6.983      4.625      8.450
REMARK INTER + INTRA:         -11.927
REMARK INTER:                  -9.861
REMARK INTRA:                  -2.066
REMARK UNBOUND:                -1.270
REMARK  9 active torsions:
REMARK  status: ('A' for Active; 'I' for Inactive)
REMARK    1  A    between atoms: O02_2  and  CAX_24 
REMARK    2  A    between atoms: CAC_3  and  CAM_13 
REMARK    3  A    between atoms: CAC_3  and  NBH_34 
REMARK    4  A    between atoms: CAM_13  and  CAN_14 
REMARK    5  A    between atoms: CAN_14  and  OAW_23 
REMARK    6  A    between atoms: NAU_21  and  CBB_28 
REMARK    7  A    between atoms: NAU_21  and  CBE_31 
REMARK    8  A    between atoms: OAV_22  and  CBC_29 
REMARK    9  A    between atoms: OAW_23  and  CBD_30 
ROOT
HETATM    1  NAD   D T 601      11.992   0.088  -1.862  1.00 36.67    -0.191 NA
HETATM    2  CAG   D T 601      11.622   0.994  -1.271  1.00 40.62     0.100 C 
HETATM    3  CAH   D T 601      10.957   2.246   0.938  1.00 40.82     0.163 A 
HETATM    4  CAK   D T 601       9.655   5.867   1.639  1.00 41.85     0.098 A 
HETATM    5  CAL   D T 601       9.953   5.935  -1.370  1.00 41.71     0.082 A 
HETATM    6  NAT   D T 601      10.485   3.419   1.621  1.00 40.70    -0.269 NA
HETATM    7  CBA   D T 601      11.126   2.217  -0.555  1.00 42.63     0.088 A 
HETATM    8  CBC   D T 601       9.468   7.132  -0.629  1.00 44.75     0.095 A 
HETATM    9  CBD   D T 601       9.323   7.099   0.850  1.00 42.74     0.096 A 
HETATM   10  CBE   D T 601      10.792   3.456  -1.365  1.00 42.11     0.086 A 
HETATM   11  CBF   D T 601      10.150   4.629   0.907  1.00 42.67     0.059 A 
HETATM   12  CBG   D T 601      10.292   4.686  -0.605  1.00 42.82     0.016 A 
ENDROOT
BRANCH  10  13
HETATM   13  NAU   D T 601      10.931   3.497  -2.831  1.00 38.25    -0.249 NA
BRANCH  13  14
HETATM   14  CBB   D T 601       9.761   3.209  -3.640  1.00 33.72     0.072 A 
HETATM   15  CAJ   D T 601       9.107   1.851  -3.525  1.00 33.21     0.098 A 
HETATM   16  CAX   D T 601       7.910   1.541  -4.368  1.00 37.63     0.085 A 
HETATM   17  CAY   D T 601       7.376   2.587  -5.309  1.00 36.54     0.059 A 
HETATM   18 CL1    D T 601       5.995   2.261  -6.289  1.00 50.79    -0.085 Cl
HETATM   19  CAI   D T 601       8.016   3.927  -5.427  1.00 37.60     0.079 A 
HETATM   20  CAZ   D T 601       9.212   4.239  -4.594  1.00 38.37     0.055 A 
HETATM   21 CL2    D T 601       9.923   5.811  -4.747  1.00 54.43    -0.085 Cl
BRANCH  16  22
HETATM   22  O02   D T 601       7.300   0.304  -4.276  1.00 44.36    -0.331 OA
HETATM   23  C01   D T 601       7.721  -0.762  -5.066  1.00 40.82     0.181 C 
ENDBRANCH  16  22
ENDBRANCH  13  14
ENDBRANCH  10  13
BRANCH   8  24
HETATM   24  OAV   D T 601       9.161   8.278  -1.325  1.00 49.70    -0.330 OA
HETATM   25  CAA   D T 601      10.167   9.223  -1.508  1.00 47.61     0.181 C 
ENDBRANCH   8  24
BRANCH   9  26
HETATM   26  OAW   D T 601       8.876   8.248   1.499  1.00 41.04    -0.333 OA
BRANCH  26  27
HETATM   27  CAN   D T 601       9.604   8.772   2.566  1.00 40.75     0.150 C 
BRANCH  27  28
HETATM   28  CAM   D T 601      10.709   9.675   2.019  1.00 48.68     0.056 C 
BRANCH  28  29
HETATM   29  CAC   D T 601      12.066   9.153   2.466  1.00 51.94     0.100 C 
BRANCH  29  30
HETATM   30  NBH   D T 601      12.823   8.706   1.249  1.00 61.07    -0.365 N 
HETATM   31  CAP   D T 601      13.042   7.295   0.901  1.00 58.61     0.121 C 
HETATM   32  CAR   D T 601      13.291   7.208  -0.618  1.00 61.37     0.121 C 
HETATM   33  NBI   D T 601      14.390   8.060  -1.005  1.00 69.25    -0.364 N 
HETATM   34  CAO   D T 601      14.924   7.801  -2.337  1.00 67.03     0.121 C 
HETATM   35  CAS   D T 601      14.225   9.414  -0.551  1.00 66.03     0.121 C 
HETATM   36  CAQ   D T 601      14.013   9.463   0.931  1.00 59.16     0.121 C 
ENDBRANCH  29  30
ENDBRANCH  28  29
ENDBRANCH  27  28
ENDBRANCH  26  27
ENDBRANCH   9  26
TORSDOF 9
ENDMDL
MODEL 6
REMARK VINA RESULT:    -6.956     11.463     15.425
REMARK INTER + INTRA:         -11.886
REMARK INTER:                 -10.115
REMARK INTRA:                  -1.771
REMARK UNBOUND:                -1.270
REMARK  9 active torsions:
REMARK  status: ('A' for Active; 'I' for Inactive)
REMARK    1  A    between atoms: O02_2  and  CAX_24 
REMARK    2  A    between atoms: CAC_3  and  CAM_13 
REMARK    3  A    between atoms: CAC_3  and  NBH_34 
REMARK    4  A    between atoms: CAM_13  and  CAN_14 
REMARK    5  A    between atoms: CAN_14  and  OAW_23 
REMARK    6  A    between atoms: NAU_21  and  CBB_28 
REMARK    7  A    between atoms: NAU_21  and  CBE_31 
REMARK    8  A    between atoms: OAV_22  and  CBC_29 
REMARK    9  A    between atoms: OAW_23  and  CBD_30 
ROOT
HETATM    1  NAD   D T 601       7.310  18.221   2.272  1.00 36.67    -0.191 NA
HETATM    2  CAG   D T 601       7.647  17.214   1.850  1.00 40.62     0.100 C 
HETATM    3  CAH   D T 601       9.294  15.179   1.654  1.00 40.82     0.163 A 
HETATM    4  CAK   D T 601       9.231  11.921  -0.508  1.00 41.85     0.098 A 
HETATM    5  CAL   D T 601       6.670  13.256  -1.404  1.00 41.71     0.082 A 
HETATM    6  NAT   D T 601       9.661  13.914   1.081  1.00 40.70    -0.269 NA
HETATM    7  CBA   D T 601       8.034  15.892   1.251  1.00 42.63     0.088 A 
HETATM    8  CBC   D T 601       7.081  11.943  -1.975  1.00 44.75     0.095 A 
HETATM    9  CBD   D T 601       8.340  11.287  -1.533  1.00 42.74     0.096 A 
HETATM   10  CBE   D T 601       7.123  15.263   0.213  1.00 42.11     0.086 A 
HETATM   11  CBF   D T 601       8.837  13.263   0.089  1.00 42.67     0.059 A 
HETATM   12  CBG   D T 601       7.546  13.915  -0.375  1.00 42.82     0.016 A 
ENDROOT
BRANCH  10  13
HETATM   13  NAU   D T 601       5.876  15.907  -0.232  1.00 38.25    -0.249 NA
BRANCH  13  14
HETATM   14  CBB   D T 601       5.971  17.026  -1.151  1.00 33.72     0.072 A 
HETATM   15  CAJ   D T 601       6.901  16.923  -2.337  1.00 33.21     0.098 A 
HETATM   16  CAX   D T 601       7.017  18.080  -3.281  1.00 37.63     0.085 A 
HETATM   17  CAY   D T 601       6.200  19.320  -3.035  1.00 36.54     0.059 A 
HETATM   18 CL1    D T 601       6.307  20.666  -4.107  1.00 50.79    -0.085 Cl
HETATM   19  CAI   D T 601       5.280  19.428  -1.867  1.00 37.60     0.079 A 
HETATM   20  CAZ   D T 601       5.167  18.280  -0.921  1.00 38.37     0.055 A 
HETATM   21 CL2    D T 601       4.079  18.435   0.417  1.00 54.43    -0.085 Cl
BRANCH  16  22
HETATM   22  O02   D T 601       7.864  18.004  -4.371  1.00 44.36    -0.331 OA
HETATM   23  C01   D T 601       7.489  17.317  -5.522  1.00 40.82     0.181 C 
ENDBRANCH  16  22
ENDBRANCH  13  14
ENDBRANCH  10  13
BRANCH   8  24
HETATM   24  OAV   D T 601       6.280  11.335  -2.913  1.00 49.70    -0.330 OA
HETATM   25  CAA   D T 601       6.437  11.700  -4.247  1.00 47.61     0.181 C 
ENDBRANCH   8  24
BRANCH   9  26
HETATM   26  OAW   D T 601       8.675  10.054  -2.088  1.00 41.04    -0.333 OA
BRANCH  26  27
HETATM   27  CAN   D T 601       8.931   8.963  -1.259  1.00 40.75     0.150 C 
BRANCH  27  28
HETATM   28  CAM   D T 601      10.336   8.437  -1.547  1.00 48.68     0.056 C 
BRANCH  28  29
HETATM   29  CAC   D T 601      11.129   8.358  -0.252  1.00 51.94     0.100 C 
BRANCH  29  30
HETATM   30  NBH   D T 601      11.958   9.605  -0.130  1.00 61.07    -0.365 N 
HETATM   31  CAP   D T 601      13.066   9.936  -1.035  1.00 58.61     0.121 C 
HETATM   32  CAR   D T 601      13.269  11.465  -1.007  1.00 61.37     0.121 C 
HETATM   33  NBI   D T 601      13.487  11.927   0.342  1.00 69.25    -0.364 N 
HETATM   34  CAO   D T 601      14.020  13.280   0.446  1.00 67.03     0.121 C 
HETATM   35  CAS   D T 601      12.458  11.491   1.248  1.00 66.03     0.121 C 
HETATM   36  CAQ   D T 601      12.308  10.002   1.216  1.00 59.16     0.121 C 
ENDBRANCH  29  30
ENDBRANCH  28  29
ENDBRANCH  27  28
ENDBRANCH  26  27
ENDBRANCH   9  26
TORSDOF 9
ENDMDL
MODEL 7
REMARK VINA RESULT:    -6.808     11.308     15.411
REMARK INTER + INTRA:         -11.660
REMARK INTER:                 -10.005
REMARK INTRA:                  -1.655
REMARK UNBOUND:                -1.270
REMARK  9 active torsions:
REMARK  status: ('A' for Active; 'I' for Inactive)
REMARK    1  A    between atoms: O02_2  and  CAX_24 
REMARK    2  A    between atoms: CAC_3  and  CAM_13 
REMARK    3  A    between atoms: CAC_3  and  NBH_34 
REMARK    4  A    between atoms: CAM_13  and  CAN_14 
REMARK    5  A    between atoms: CAN_14  and  OAW_23 
REMARK    6  A    between atoms: NAU_21  and  CBB_28 
REMARK    7  A    between atoms: NAU_21  and  CBE_31 
REMARK    8  A    between atoms: OAV_22  and  CBC_29 
REMARK    9  A    between atoms: OAW_23  and  CBD_30 
ROOT
HETATM    1  NAD   D T 601       6.737  18.299   2.057  1.00 36.67    -0.191 NA
HETATM    2  CAG   D T 601       7.201  17.307   1.731  1.00 40.62     0.100 C 
HETATM    3  CAH   D T 601       8.995  15.395   1.861  1.00 40.82     0.163 A 
HETATM    4  CAK   D T 601       9.476  12.074  -0.148  1.00 41.85     0.098 A 
HETATM    5  CAL   D T 601       6.988  13.185  -1.460  1.00 41.71     0.082 A 
HETATM    6  NAT   D T 601       9.529  14.144   1.401  1.00 40.70    -0.269 NA
HETATM    7  CBA   D T 601       7.762  16.000   1.250  1.00 42.63     0.088 A 
HETATM    8  CBC   D T 601       7.569  11.890  -1.909  1.00 44.75     0.095 A 
HETATM    9  CBD   D T 601       8.791  11.343  -1.263  1.00 42.74     0.096 A 
HETATM   10  CBE   D T 601       7.059  15.271   0.119  1.00 42.11     0.086 A 
HETATM   11  CBF   D T 601       8.907  13.402   0.329  1.00 42.67     0.059 A 
HETATM   12  CBG   D T 601       7.656  13.941  -0.344  1.00 42.82     0.016 A 
ENDROOT
BRANCH  10  13
HETATM   13  NAU   D T 601       5.850  15.806  -0.528  1.00 38.25    -0.249 NA
BRANCH  13  14
HETATM   14  CBB   D T 601       6.003  16.888  -1.483  1.00 33.72     0.072 A 
HETATM   15  CAJ   D T 601       7.027  16.753  -2.586  1.00 33.21     0.098 A 
HETATM   16  CAX   D T 601       7.201  17.872  -3.565  1.00 37.63     0.085 A 
HETATM   17  CAY   D T 601       6.351  19.107  -3.437  1.00 36.54     0.059 A 
HETATM   18 CL1    D T 601       6.525  20.410  -4.552  1.00 50.79    -0.085 Cl
HETATM   19  CAI   D T 601       5.339  19.247  -2.352  1.00 37.60     0.079 A 
HETATM   20  CAZ   D T 601       5.166  18.137  -1.371  1.00 38.37     0.055 A 
HETATM   21 CL2    D T 601       3.973  18.328  -0.130  1.00 54.43    -0.085 Cl
BRANCH  16  22
HETATM   22  O02   D T 601       8.134  17.766  -4.579  1.00 44.36    -0.331 OA
HETATM   23  C01   D T 601       9.382  18.373  -4.472  1.00 40.82     0.181 C 
ENDBRANCH  16  22
ENDBRANCH  13  14
ENDBRANCH  10  13
BRANCH   8  24
HETATM   24  OAV   D T 601       6.958  11.194  -2.926  1.00 49.70    -0.330 OA
HETATM   25  CAA   D T 601       6.398  11.919  -3.975  1.00 47.61     0.181 C 
ENDBRANCH   8  24
BRANCH   9  26
HETATM   26  OAW   D T 601       9.288  10.122  -1.711  1.00 41.04    -0.333 OA
BRANCH  26  27
HETATM   27  CAN   D T 601       9.230   9.001  -0.885  1.00 40.75     0.150 C 
BRANCH  27  28
HETATM   28  CAM   D T 601      10.211   7.949  -1.401  1.00 48.68     0.056 C 
BRANCH  28  29
HETATM   29  CAC   D T 601      11.627   8.323  -0.991  1.00 51.94     0.100 C 
BRANCH  29  30
HETATM   30  NBH   D T 601      11.601   8.759   0.446  1.00 61.07    -0.365 N 
HETATM   31  CAP   D T 601      12.343   9.920   0.957  1.00 58.61     0.121 C 
HETATM   32  CAR   D T 601      11.644  10.411   2.240  1.00 61.37     0.121 C 
HETATM   33  NBI   D T 601      11.538   9.343   3.205  1.00 69.25    -0.364 N 
HETATM   34  CAO   D T 601      11.210   9.772   4.559  1.00 67.03     0.121 C 
HETATM   35  CAS   D T 601      10.921   8.164   2.658  1.00 66.03     0.121 C 
HETATM   36  CAQ   D T 601      11.642   7.700   1.430  1.00 59.16     0.121 C 
ENDBRANCH  29  30
ENDBRANCH  28  29
ENDBRANCH  27  28
ENDBRANCH  26  27
ENDBRANCH   9  26
TORSDOF 9
ENDMDL
MODEL 8
REMARK VINA RESULT:    -6.653     10.047     11.986
REMARK INTER + INTRA:         -11.424
REMARK INTER:                 -10.552
REMARK INTRA:                  -0.872
REMARK UNBOUND:                -1.270
REMARK  9 active torsions:
REMARK  status: ('A' for Active; 'I' for Inactive)
REMARK    1  A    between atoms: O02_2  and  CAX_24 
REMARK    2  A    between atoms: CAC_3  and  CAM_13 
REMARK    3  A    between atoms: CAC_3  and  NBH_34 
REMARK    4  A    between atoms: CAM_13  and  CAN_14 
REMARK    5  A    between atoms: CAN_14  and  OAW_23 
REMARK    6  A    between atoms: NAU_21  and  CBB_28 
REMARK    7  A    between atoms: NAU_21  and  CBE_31 
REMARK    8  A    between atoms: OAV_22  and  CBC_29 
REMARK    9  A    between atoms: OAW_23  and  CBD_30 
ROOT
HETATM    1  NAD   D T 601      13.682   7.814  -0.476  1.00 36.67    -0.191 NA
HETATM    2  CAG   D T 601      12.955   8.690  -0.379  1.00 40.62     0.100 C 
HETATM    3  CAH   D T 601      12.193  11.019   0.561  1.00 40.82     0.163 A 
HETATM    4  CAK   D T 601       8.986  13.184  -0.010  1.00 41.85     0.098 A 
HETATM    5  CAL   D T 601       8.387  10.794  -1.764  1.00 41.71     0.082 A 
HETATM    6  NAT   D T 601      11.235  12.086   0.640  1.00 40.70    -0.269 NA
HETATM    7  CBA   D T 601      11.953   9.806  -0.293  1.00 42.63     0.088 A 
HETATM    8  CBC   D T 601       7.417  11.920  -1.658  1.00 44.75     0.095 A 
HETATM    9  CBD   D T 601       7.713  13.095  -0.798  1.00 42.74     0.096 A 
HETATM   10  CBE   D T 601      10.668   9.702  -1.093  1.00 42.11     0.086 A 
HETATM   11  CBF   D T 601       9.993  12.047  -0.097  1.00 42.67     0.059 A 
HETATM   12  CBG   D T 601       9.671  10.857  -0.984  1.00 42.82     0.016 A 
ENDROOT
BRANCH  10  13
HETATM   13  NAU   D T 601      10.366   8.540  -1.947  1.00 38.25    -0.249 NA
BRANCH  13  14
HETATM   14  CBB   D T 601       9.976   7.299  -1.305  1.00 33.72     0.072 A 
HETATM   15  CAJ   D T 601       9.787   7.277   0.194  1.00 33.21     0.098 A 
HETATM   16  CAX   D T 601       9.400   5.996   0.865  1.00 37.63     0.085 A 
HETATM   17  CAY   D T 601       9.201   4.756   0.035  1.00 36.54     0.059 A 
HETATM   18 CL1    D T 601       8.749   3.267   0.778  1.00 50.79    -0.085 Cl
HETATM   19  CAI   D T 601       9.385   4.771  -1.443  1.00 37.60     0.079 A 
HETATM   20  CAZ   D T 601       9.776   6.043  -2.116  1.00 38.37     0.055 A 
HETATM   21 CL2    D T 601       9.969   6.028  -3.836  1.00 54.43    -0.085 Cl
BRANCH  16  22
HETATM   22  O02   D T 601       9.224   5.957   2.236  1.00 44.36    -0.331 OA
HETATM   23  C01   D T 601      10.262   5.573   3.080  1.00 40.82     0.181 C 
ENDBRANCH  16  22
ENDBRANCH  13  14
ENDBRANCH  10  13
BRANCH   8  24
HETATM   24  OAV   D T 601       6.244  11.869  -2.374  1.00 49.70    -0.330 OA
HETATM   25  CAA   D T 601       6.319  11.615  -3.741  1.00 47.61     0.181 C 
ENDBRANCH   8  24
BRANCH   9  26
HETATM   26  OAW   D T 601       6.780  14.128  -0.741  1.00 41.04    -0.333 OA
BRANCH  26  27
HETATM   27  CAN   D T 601       6.502  14.750   0.474  1.00 40.75     0.150 C 
BRANCH  27  28
HETATM   28  CAM   D T 601       6.141  16.212   0.215  1.00 48.68     0.056 C 
BRANCH  28  29
HETATM   29  CAC   D T 601       6.496  17.051   1.433  1.00 51.94     0.100 C 
BRANCH  29  30
HETATM   30  NBH   D T 601       5.516  18.186   1.525  1.00 61.07    -0.365 N 
HETATM   31  CAP   D T 601       4.893  18.622   2.781  1.00 58.61     0.121 C 
HETATM   32  CAR   D T 601       4.462  20.094   2.620  1.00 61.37     0.121 C 
HETATM   33  NBI   D T 601       3.593  20.249   1.478  1.00 69.25    -0.364 N 
HETATM   34  CAO   D T 601       2.865  21.511   1.431  1.00 67.03     0.121 C 
HETATM   35  CAS   D T 601       4.162  19.706   0.273  1.00 66.03     0.121 C 
HETATM   36  CAQ   D T 601       4.543  18.269   0.458  1.00 59.16     0.121 C 
ENDBRANCH  29  30
ENDBRANCH  28  29
ENDBRANCH  27  28
ENDBRANCH  26  27
ENDBRANCH   9  26
TORSDOF 9
ENDMDL
MODEL 9
REMARK VINA RESULT:    -6.440      6.000     10.385
REMARK INTER + INTRA:         -11.099
REMARK INTER:                  -9.893
REMARK INTRA:                  -1.207
REMARK UNBOUND:                -1.270
REMARK  9 active torsions:
REMARK  status: ('A' for Active; 'I' for Inactive)
REMARK    1  A    between atoms: O02_2  and  CAX_24 
REMARK    2  A    between atoms: CAC_3  and  CAM_13 
REMARK    3  A    between atoms: CAC_3  and  NBH_34 
REMARK    4  A    between atoms: CAM_13  and  CAN_14 
REMARK    5  A    between atoms: CAN_14  and  OAW_23 
REMARK    6  A    between atoms: NAU_21  and  CBB_28 
REMARK    7  A    between atoms: NAU_21  and  CBE_31 
REMARK    8  A    between atoms: OAV_22  and  CBC_29 
REMARK    9  A    between atoms: OAW_23  and  CBD_30 
ROOT
HETATM    1  NAD   D T 601      14.374  11.907   1.200  1.00 36.67    -0.191 NA
HETATM    2  CAG   D T 601      14.263  10.788   0.997  1.00 40.62     0.100 C 
HETATM    3  CAH   D T 601      15.195   8.360   0.636  1.00 40.82     0.163 A 
HETATM    4  CAK   D T 601      13.451   4.936  -0.088  1.00 41.85     0.098 A 
HETATM    5  CAL   D T 601      11.058   6.780   0.060  1.00 41.71     0.082 A 
HETATM    6  NAT   D T 601      14.986   6.964   0.375  1.00 40.70    -0.269 NA
HETATM    7  CBA   D T 601      14.047   9.327   0.722  1.00 42.63     0.088 A 
HETATM    8  CBC   D T 601      10.880   5.326  -0.207  1.00 44.75     0.095 A 
HETATM    9  CBD   D T 601      12.056   4.419  -0.278  1.00 42.74     0.096 A 
HETATM   10  CBE   D T 601      12.630   8.819   0.530  1.00 42.11     0.086 A 
HETATM   11  CBF   D T 601      13.662   6.417   0.183  1.00 42.67     0.059 A 
HETATM   12  CBG   D T 601      12.446   7.325   0.253  1.00 42.82     0.016 A 
ENDROOT
BRANCH  10  13
HETATM   13  NAU   D T 601      11.460   9.709   0.596  1.00 38.25    -0.249 NA
BRANCH  13  14
HETATM   14  CBB   D T 601      10.697   9.751   1.831  1.00 33.72     0.072 A 
HETATM   15  CAJ   D T 601      11.406  10.099   3.118  1.00 33.21     0.098 A 
HETATM   16  CAX   D T 601      10.629  10.127   4.398  1.00 37.63     0.085 A 
HETATM   17  CAY   D T 601       9.157   9.815   4.378  1.00 36.54     0.059 A 
HETATM   18 CL1    D T 601       8.234   9.846   5.833  1.00 50.79    -0.085 Cl
HETATM   19  CAI   D T 601       8.452   9.472   3.110  1.00 37.60     0.079 A 
HETATM   20  CAZ   D T 601       9.223   9.436   1.835  1.00 38.37     0.055 A 
HETATM   21 CL2    D T 601       8.369   9.045   0.379  1.00 54.43    -0.085 Cl
BRANCH  16  22
HETATM   22  O02   D T 601      11.262  10.443   5.586  1.00 44.36    -0.331 OA
HETATM   23  C01   D T 601      11.601   9.451   6.502  1.00 40.82     0.181 C 
ENDBRANCH  16  22
ENDBRANCH  13  14
ENDBRANCH  10  13
BRANCH   8  24
HETATM   24  OAV   D T 601       9.611   4.822  -0.380  1.00 49.70    -0.330 OA
HETATM   25  CAA   D T 601       8.612   5.693  -0.806  1.00 47.61     0.181 C 
ENDBRANCH   8  24
BRANCH   9  26
HETATM   26  OAW   D T 601      11.836   3.065  -0.519  1.00 41.04    -0.333 OA
BRANCH  26  27
HETATM   27  CAN   D T 601      11.821   2.163   0.543  1.00 40.75     0.150 C 
BRANCH  27  28
HETATM   28  CAM   D T 601      10.876   1.010   0.205  1.00 48.68     0.056 C 
BRANCH  28  29
HETATM   29  CAC   D T 601      10.300   0.427   1.486  1.00 51.94     0.100 C 
BRANCH  29  30
HETATM   30  NBH   D T 601      10.884  -0.943   1.684  1.00 61.07    -0.365 N 
HETATM   31  CAP   D T 601      10.083  -2.175   1.689  1.00 58.61     0.121 C 
HETATM   32  CAR   D T 601      11.008  -3.351   1.317  1.00 61.37     0.121 C 
HETATM   33  NBI   D T 601      12.141  -3.413   2.209  1.00 69.25    -0.364 N 
HETATM   34  CAO   D T 601      12.886  -4.665   2.165  1.00 67.03     0.121 C 
HETATM   35  CAS   D T 601      12.846  -2.162   2.293  1.00 66.03     0.121 C 
HETATM   36  CAQ   D T 601      11.924  -1.049   2.683  1.00 59.16     0.121 C 
ENDBRANCH  29  30
ENDBRANCH  28  29
ENDBRANCH  27  28
ENDBRANCH  26  27
ENDBRANCH   9  26
TORSDOF 9
ENDMDL
