MODEL 1
REMARK VINA RESULT:    -8.162      0.000      0.000
REMARK INTER + INTRA:         -13.936
REMARK INTER:                 -12.456
REMARK INTRA:                  -1.480
REMARK UNBOUND:                -1.480
REMARK  9 active torsions:
REMARK  status: ('A' for Active; 'I' for Inactive)
REMARK    1  A    between atoms: O02_2  and  CAX_24 
REMARK    2  A    between atoms: CAC_3  and  CAM_13 
REMARK    3  A    between atoms: CAC_3  and  NBH_34 
REMARK    4  A    between atoms: CAM_13  and  CAN_14 
REMARK    5  A    between atoms: CAN_14  and  OAW_23 
REMARK    6  A    between atoms: NAU_21  and  CBB_28 
REMARK    7  A    between atoms: NAU_21  and  CBE_31 
REMARK    8  A    between atoms: OAV_22  and  CBC_29 
REMARK    9  A    between atoms: OAW_23  and  CBD_30 
ROOT
HETATM    1  NAD   D T 601      -9.582   0.773  -8.908  1.00 53.32    -0.191 NA
HETATM    2  CAG   D T 601      -9.914   1.405  -8.024  1.00 54.51     0.104 C 
HETATM    3  CAH   D T 601      -9.276   2.841  -5.994  1.00 43.80     0.110 A 
HETATM    4  CAK   D T 601     -11.188   5.265  -3.652  1.00 48.43     0.098 A 
HETATM    5  CAL   D T 601     -13.470   4.144  -5.291  1.00 51.67     0.082 A 
HETATM    6  NAT   D T 601      -9.559   3.802  -4.978  1.00 45.65    -0.247 NA
HETATM    7  CBA   D T 601     -10.346   2.231  -6.851  1.00 49.31     0.105 A 
HETATM    8  CBC   D T 601     -13.722   5.157  -4.217  1.00 53.00     0.095 A 
HETATM    9  CBD   D T 601     -12.596   5.710  -3.403  1.00 51.16     0.096 A 
HETATM   10  CBE   D T 601     -11.803   2.641  -6.650  1.00 54.84     0.090 A 
HETATM   11  CBF   D T 601     -10.906   4.239  -4.734  1.00 47.85     0.064 A 
HETATM   12  CBG   D T 601     -12.064   3.681  -5.551  1.00 51.63     0.017 A 
ENDROOT
BRANCH  10  13
HETATM   13  NAU   D T 601     -12.949   2.127  -7.437  1.00 54.01    -0.248 NA
BRANCH  13  14
HETATM   14  CBB   D T 601     -13.340   0.727  -7.391  1.00 54.80     0.072 A 
HETATM   15  CAJ   D T 601     -13.309  -0.050  -8.679  1.00 55.55     0.098 A 
HETATM   16  CAX   D T 601     -13.713  -1.488  -8.682  1.00 62.83     0.085 A 
HETATM   17  CAY   D T 601     -14.143  -2.164  -7.407  1.00 63.63     0.059 A 
HETATM   18 CL1    D T 601     -14.618  -3.827  -7.356  1.00 71.73    -0.085 Cl
HETATM   19  CAI   D T 601     -14.166  -1.395  -6.137  1.00 58.17     0.079 A 
HETATM   20  CAZ   D T 601     -13.771   0.040  -6.115  1.00 58.48     0.055 A 
HETATM   21 CL2    D T 601     -13.833   0.840  -4.573  1.00 88.78    -0.085 Cl
BRANCH  16  22
HETATM   22  O02   D T 601     -13.679  -2.159  -9.880  1.00 70.52    -0.331 OA
HETATM   23  C01   D T 601     -12.579  -2.967 -10.162  1.00 60.10     0.181 C 
ENDBRANCH  16  22
ENDBRANCH  13  14
ENDBRANCH  10  13
BRANCH   8  24
HETATM   24  OAV   D T 601     -15.027   5.536  -4.020  1.00 53.06    -0.330 OA
HETATM   25  CAA   D T 601     -15.980   4.525  -3.995  1.00 49.21     0.181 C 
ENDBRANCH   8  24
BRANCH   9  26
HETATM   26  OAW   D T 601     -12.814   6.661  -2.397  1.00 56.28    -0.333 OA
BRANCH  26  27
HETATM   27  CAN   D T 601     -12.614   6.286  -1.059  1.00 46.95     0.150 C 
BRANCH  27  28
HETATM   28  CAM   D T 601     -13.960   5.890  -0.454  1.00 47.26     0.056 C 
BRANCH  28  29
HETATM   29  CAC   D T 601     -14.138   4.383  -0.582  1.00 49.87     0.100 C 
BRANCH  29  30
HETATM   30  NBH   D T 601     -15.550   4.015  -0.209  1.00 58.32    -0.365 N 
HETATM   31  CAP   D T 601     -16.156   4.369   1.083  1.00 59.29     0.121 C 
HETATM   32  CAR   D T 601     -17.696   4.270   1.002  1.00 66.32     0.121 C 
HETATM   33  NBI   D T 601     -18.109   2.987   0.478  1.00 67.85    -0.364 N 
HETATM   34  CAO   D T 601     -19.493   2.603   0.739  1.00 55.13     0.121 C 
HETATM   35  CAS   D T 601     -17.486   2.702  -0.785  1.00 63.26     0.121 C 
HETATM   36  CAQ   D T 601     -15.995   2.703  -0.627  1.00 57.65     0.121 C 
ENDBRANCH  29  30
ENDBRANCH  28  29
ENDBRANCH  27  28
ENDBRANCH  26  27
ENDBRANCH   9  26
TORSDOF 9
ENDMDL
MODEL 2
REMARK VINA RESULT:    -7.911      3.245      5.394
REMARK INTER + INTRA:         -13.553
REMARK INTER:                 -11.838
REMARK INTRA:                  -1.715
REMARK UNBOUND:                -1.480
REMARK  9 active torsions:
REMARK  status: ('A' for Active; 'I' for Inactive)
REMARK    1  A    between atoms: O02_2  and  CAX_24 
REMARK    2  A    between atoms: CAC_3  and  CAM_13 
REMARK    3  A    between atoms: CAC_3  and  NBH_34 
REMARK    4  A    between atoms: CAM_13  and  CAN_14 
REMARK    5  A    between atoms: CAN_14  and  OAW_23 
REMARK    6  A    between atoms: NAU_21  and  CBB_28 
REMARK    7  A    between atoms: NAU_21  and  CBE_31 
REMARK    8  A    between atoms: OAV_22  and  CBC_29 
REMARK    9  A    between atoms: OAW_23  and  CBD_30 
ROOT
HETATM    1  NAD   D T 601     -10.010   6.401  -3.032  1.00 53.32    -0.191 NA
HETATM    2  CAG   D T 601     -10.926   5.814  -2.706  1.00 54.51     0.104 C 
HETATM    3  CAH   D T 601     -12.357   4.865  -0.798  1.00 43.80     0.110 A 
HETATM    4  CAK   D T 601     -15.904   3.323  -0.548  1.00 48.43     0.098 A 
HETATM    5  CAL   D T 601     -15.614   3.590  -3.547  1.00 51.67     0.082 A 
HETATM    6  NAT   D T 601     -13.562   4.317  -0.265  1.00 45.65    -0.247 NA
HETATM    7  CBA   D T 601     -12.128   5.030  -2.271  1.00 49.31     0.105 A 
HETATM    8  CBC   D T 601     -16.862   3.023  -2.945  1.00 53.00     0.095 A 
HETATM    9  CBD   D T 601     -17.007   2.886  -1.462  1.00 51.16     0.096 A 
HETATM   10  CBE   D T 601     -13.212   4.606  -3.260  1.00 54.84     0.090 A 
HETATM   11  CBF   D T 601     -14.629   3.899  -1.133  1.00 47.85     0.064 A 
HETATM   12  CBG   D T 601     -14.494   4.027  -2.645  1.00 51.63     0.017 A 
ENDROOT
BRANCH  10  13
HETATM   13  NAU   D T 601     -13.116   4.730  -4.733  1.00 54.01    -0.248 NA
BRANCH  13  14
HETATM   14  CBB   D T 601     -12.343   3.790  -5.531  1.00 54.80     0.072 A 
HETATM   15  CAJ   D T 601     -10.848   3.956  -5.551  1.00 55.55     0.098 A 
HETATM   16  CAX   D T 601     -10.014   3.020  -6.364  1.00 62.83     0.085 A 
HETATM   17  CAY   D T 601     -10.659   1.913  -7.156  1.00 63.63     0.059 A 
HETATM   18 CL1    D T 601      -9.740   0.802  -8.111  1.00 71.73    -0.085 Cl
HETATM   19  CAI   D T 601     -12.135   1.750  -7.127  1.00 58.17     0.079 A 
HETATM   20  CAZ   D T 601     -12.982   2.675  -6.326  1.00 58.48     0.055 A 
HETATM   21 CL2    D T 601     -14.696   2.388  -6.364  1.00 88.78    -0.085 Cl
BRANCH  16  22
HETATM   22  O02   D T 601      -8.654   3.211  -6.363  1.00 70.52    -0.331 OA
HETATM   23  C01   D T 601      -7.851   2.284  -5.701  1.00 60.10     0.181 C 
ENDBRANCH  16  22
ENDBRANCH  13  14
ENDBRANCH  10  13
BRANCH   8  24
HETATM   24  OAV   D T 601     -17.848   2.634  -3.818  1.00 53.06    -0.330 OA
HETATM   25  CAA   D T 601     -18.122   3.489  -4.880  1.00 49.21     0.181 C 
ENDBRANCH   8  24
BRANCH   9  26
HETATM   26  OAW   D T 601     -18.170   2.362  -0.883  1.00 56.28    -0.333 OA
BRANCH  26  27
HETATM   27  CAN   D T 601     -19.271   3.212  -0.691  1.00 46.95     0.150 C 
BRANCH  27  28
HETATM   28  CAM   D T 601     -19.470   3.424   0.808  1.00 47.26     0.056 C 
BRANCH  28  29
HETATM   29  CAC   D T 601     -19.635   4.913   1.083  1.00 49.87     0.100 C 
BRANCH  29  30
HETATM   30  NBH   D T 601     -18.289   5.585   1.013  1.00 58.32    -0.365 N 
HETATM   31  CAP   D T 601     -17.460   5.844   2.200  1.00 59.29     0.121 C 
HETATM   32  CAR   D T 601     -15.996   6.113   1.787  1.00 66.32     0.121 C 
HETATM   33  NBI   D T 601     -15.921   7.136   0.768  1.00 67.85    -0.364 N 
HETATM   34  CAO   D T 601     -14.620   7.775   0.595  1.00 55.13     0.121 C 
HETATM   35  CAS   D T 601     -16.748   6.822  -0.365  1.00 63.26     0.121 C 
HETATM   36  CAQ   D T 601     -18.175   6.680   0.074  1.00 57.65     0.121 C 
ENDBRANCH  29  30
ENDBRANCH  28  29
ENDBRANCH  27  28
ENDBRANCH  26  27
ENDBRANCH   9  26
TORSDOF 9
ENDMDL
MODEL 3
REMARK VINA RESULT:    -7.667      2.841      5.193
REMARK INTER + INTRA:         -13.181
REMARK INTER:                 -11.755
REMARK INTRA:                  -1.426
REMARK UNBOUND:                -1.480
REMARK  9 active torsions:
REMARK  status: ('A' for Active; 'I' for Inactive)
REMARK    1  A    between atoms: O02_2  and  CAX_24 
REMARK    2  A    between atoms: CAC_3  and  CAM_13 
REMARK    3  A    between atoms: CAC_3  and  NBH_34 
REMARK    4  A    between atoms: CAM_13  and  CAN_14 
REMARK    5  A    between atoms: CAN_14  and  OAW_23 
REMARK    6  A    between atoms: NAU_21  and  CBB_28 
REMARK    7  A    between atoms: NAU_21  and  CBE_31 
REMARK    8  A    between atoms: OAV_22  and  CBC_29 
REMARK    9  A    between atoms: OAW_23  and  CBD_30 
ROOT
HETATM    1  NAD   D T 601     -10.038   6.619  -2.430  1.00 53.32    -0.191 NA
HETATM    2  CAG   D T 601     -10.960   5.988  -2.224  1.00 54.51     0.104 C 
HETATM    3  CAH   D T 601     -12.510   4.863  -0.514  1.00 43.80     0.110 A 
HETATM    4  CAK   D T 601     -16.020   3.228  -0.668  1.00 48.43     0.098 A 
HETATM    5  CAL   D T 601     -15.501   3.731  -3.605  1.00 51.67     0.082 A 
HETATM    6  NAT   D T 601     -13.737   4.249  -0.123  1.00 45.65    -0.247 NA
HETATM    7  CBA   D T 601     -12.169   5.146  -1.947  1.00 49.31     0.105 A 
HETATM    8  CBC   D T 601     -16.776   3.092  -3.150  1.00 53.00     0.095 A 
HETATM    9  CBD   D T 601     -17.034   2.839  -1.699  1.00 51.16     0.096 A 
HETATM   10  CBE   D T 601     -13.159   4.776  -3.049  1.00 54.84     0.090 A 
HETATM   11  CBF   D T 601     -14.719   3.876  -1.103  1.00 47.85     0.064 A 
HETATM   12  CBG   D T 601     -14.469   4.123  -2.585  1.00 51.63     0.017 A 
ENDROOT
BRANCH  10  13
HETATM   13  NAU   D T 601     -12.951   5.015  -4.497  1.00 54.01    -0.248 NA
BRANCH  13  14
HETATM   14  CBB   D T 601     -12.489   3.961  -5.387  1.00 54.80     0.072 A 
HETATM   15  CAJ   D T 601     -13.529   3.088  -6.034  1.00 55.55     0.098 A 
HETATM   16  CAX   D T 601     -13.100   1.985  -6.947  1.00 62.83     0.085 A 
HETATM   17  CAY   D T 601     -11.640   1.749  -7.227  1.00 63.63     0.059 A 
HETATM   18 CL1    D T 601     -11.091   0.489  -8.278  1.00 71.73    -0.085 Cl
HETATM   19  CAI   D T 601     -10.617   2.618  -6.591  1.00 58.17     0.079 A 
HETATM   20  CAZ   D T 601     -11.025   3.719  -5.675  1.00 58.48     0.055 A 
HETATM   21 CL2    D T 601      -9.745   4.674  -4.990  1.00 88.78    -0.085 Cl
BRANCH  16  22
HETATM   22  O02   D T 601     -14.080   1.205  -7.510  1.00 70.52    -0.331 OA
HETATM   23  C01   D T 601     -14.415   0.003  -6.890  1.00 60.10     0.181 C 
ENDBRANCH  16  22
ENDBRANCH  13  14
ENDBRANCH  10  13
BRANCH   8  24
HETATM   24  OAV   D T 601     -17.679   2.750  -4.127  1.00 53.06    -0.330 OA
HETATM   25  CAA   D T 601     -18.380   3.788  -4.729  1.00 49.21     0.181 C 
ENDBRANCH   8  24
BRANCH   9  26
HETATM   26  OAW   D T 601     -18.224   2.246  -1.256  1.00 56.28    -0.333 OA
BRANCH  26  27
HETATM   27  CAN   D T 601     -19.307   3.073  -0.921  1.00 46.95     0.150 C 
BRANCH  27  28
HETATM   28  CAM   D T 601     -19.351   3.233   0.597  1.00 47.26     0.056 C 
BRANCH  28  29
HETATM   29  CAC   D T 601     -19.573   4.701   0.938  1.00 49.87     0.100 C 
BRANCH  29  30
HETATM   30  NBH   D T 601     -18.249   5.418   0.943  1.00 58.32    -0.365 N 
HETATM   31  CAP   D T 601     -17.479   5.670   2.170  1.00 59.29     0.121 C 
HETATM   32  CAR   D T 601     -16.008   5.997   1.827  1.00 66.32     0.121 C 
HETATM   33  NBI   D T 601     -15.926   7.052   0.840  1.00 67.85    -0.364 N 
HETATM   34  CAO   D T 601     -14.641   7.738   0.740  1.00 55.13     0.121 C 
HETATM   35  CAS   D T 601     -16.695   6.743  -0.335  1.00 63.26     0.121 C 
HETATM   36  CAQ   D T 601     -18.133   6.543   0.040  1.00 57.65     0.121 C 
ENDBRANCH  29  30
ENDBRANCH  28  29
ENDBRANCH  27  28
ENDBRANCH  26  27
ENDBRANCH   9  26
TORSDOF 9
ENDMDL
MODEL 4
REMARK VINA RESULT:    -7.545      3.215      9.217
REMARK INTER + INTRA:         -12.995
REMARK INTER:                 -11.477
REMARK INTRA:                  -1.518
REMARK UNBOUND:                -1.480
REMARK  9 active torsions:
REMARK  status: ('A' for Active; 'I' for Inactive)
REMARK    1  A    between atoms: O02_2  and  CAX_24 
REMARK    2  A    between atoms: CAC_3  and  CAM_13 
REMARK    3  A    between atoms: CAC_3  and  NBH_34 
REMARK    4  A    between atoms: CAM_13  and  CAN_14 
REMARK    5  A    between atoms: CAN_14  and  OAW_23 
REMARK    6  A    between atoms: NAU_21  and  CBB_28 
REMARK    7  A    between atoms: NAU_21  and  CBE_31 
REMARK    8  A    between atoms: OAV_22  and  CBC_29 
REMARK    9  A    between atoms: OAW_23  and  CBD_30 
ROOT
HETATM    1  NAD   D T 601     -18.564   3.766   2.874  1.00 53.32    -0.191 NA
HETATM    2  CAG   D T 601     -17.824   4.287   2.188  1.00 54.51     0.104 C 
HETATM    3  CAH   D T 601     -15.774   5.810   1.926  1.00 43.80     0.110 A 
HETATM    4  CAK   D T 601     -13.386   6.703  -0.993  1.00 48.43     0.098 A 
HETATM    5  CAL   D T 601     -15.465   5.054  -2.446  1.00 51.67     0.082 A 
HETATM    6  NAT   D T 601     -14.680   6.353   1.188  1.00 45.65    -0.247 NA
HETATM    7  CBA   D T 601     -16.851   4.985   1.286  1.00 49.31     0.105 A 
HETATM    8  CBC   D T 601     -14.300   5.640  -3.182  1.00 53.00     0.095 A 
HETATM    9  CBD   D T 601     -13.272   6.459  -2.466  1.00 51.16     0.096 A 
HETATM   10  CBE   D T 601     -16.795   4.697  -0.213  1.00 54.84     0.090 A 
HETATM   11  CBF   D T 601     -14.558   6.121  -0.226  1.00 47.85     0.064 A 
HETATM   12  CBG   D T 601     -15.600   5.294  -0.968  1.00 51.63     0.017 A 
ENDROOT
BRANCH  10  13
HETATM   13  NAU   D T 601     -17.784   3.886  -0.961  1.00 54.01    -0.248 NA
BRANCH  13  14
HETATM   14  CBB   D T 601     -18.917   4.497  -1.638  1.00 54.80     0.072 A 
HETATM   15  CAJ   D T 601     -19.818   5.388  -0.828  1.00 55.55     0.098 A 
HETATM   16  CAX   D T 601     -21.001   6.028  -1.479  1.00 62.83     0.085 A 
HETATM   17  CAY   D T 601     -21.291   5.792  -2.937  1.00 63.63     0.059 A 
HETATM   18 CL1    D T 601     -22.645   6.511  -3.739  1.00 71.73    -0.085 Cl
HETATM   19  CAI   D T 601     -20.395   4.917  -3.735  1.00 58.17     0.079 A 
HETATM   20  CAZ   D T 601     -19.214   4.267  -3.103  1.00 58.48     0.055 A 
HETATM   21 CL2    D T 601     -18.235   3.267  -4.132  1.00 88.78    -0.085 Cl
BRANCH  16  22
HETATM   22  O02   D T 601     -21.803   6.828  -0.702  1.00 70.52    -0.331 OA
HETATM   23  C01   D T 601     -21.309   8.062  -0.283  1.00 60.10     0.181 C 
ENDBRANCH  16  22
ENDBRANCH  13  14
ENDBRANCH  10  13
BRANCH   8  24
HETATM   24  OAV   D T 601     -14.234   5.394  -4.531  1.00 53.06    -0.330 OA
HETATM   25  CAA   D T 601     -14.845   4.233  -4.990  1.00 49.21     0.181 C 
ENDBRANCH   8  24
BRANCH   9  26
HETATM   26  OAW   D T 601     -12.174   7.011  -3.139  1.00 56.28    -0.333 OA
BRANCH  26  27
HETATM   27  CAN   D T 601     -10.891   6.515  -2.857  1.00 46.95     0.150 C 
BRANCH  27  28
HETATM   28  CAM   D T 601     -10.158   6.275  -4.175  1.00 47.26     0.056 C 
BRANCH  28  29
HETATM   29  CAC   D T 601      -9.408   4.952  -4.094  1.00 49.87     0.100 C 
BRANCH  29  30
HETATM   30  NBH   D T 601      -9.937   4.013  -5.145  1.00 58.32    -0.365 N 
HETATM   31  CAP   D T 601     -11.328   3.535  -5.166  1.00 59.29     0.121 C 
HETATM   32  CAR   D T 601     -11.687   2.979  -6.563  1.00 66.32     0.121 C 
HETATM   33  NBI   D T 601     -10.712   2.006  -7.003  1.00 67.85    -0.364 N 
HETATM   34  CAO   D T 601     -11.136   1.113  -8.077  1.00 55.13     0.121 C 
HETATM   35  CAS   D T 601      -9.376   2.535  -6.963  1.00 63.26     0.121 C 
HETATM   36  CAQ   D T 601      -9.040   2.959  -5.564  1.00 57.65     0.121 C 
ENDBRANCH  29  30
ENDBRANCH  28  29
ENDBRANCH  27  28
ENDBRANCH  26  27
ENDBRANCH   9  26
TORSDOF 9
ENDMDL
MODEL 5
REMARK VINA RESULT:    -7.511      3.053      9.114
REMARK INTER + INTRA:         -12.943
REMARK INTER:                 -11.969
REMARK INTRA:                  -0.974
REMARK UNBOUND:                -1.480
REMARK  9 active torsions:
REMARK  status: ('A' for Active; 'I' for Inactive)
REMARK    1  A    between atoms: O02_2  and  CAX_24 
REMARK    2  A    between atoms: CAC_3  and  CAM_13 
REMARK    3  A    between atoms: CAC_3  and  NBH_34 
REMARK    4  A    between atoms: CAM_13  and  CAN_14 
REMARK    5  A    between atoms: CAN_14  and  OAW_23 
REMARK    6  A    between atoms: NAU_21  and  CBB_28 
REMARK    7  A    between atoms: NAU_21  and  CBE_31 
REMARK    8  A    between atoms: OAV_22  and  CBC_29 
REMARK    9  A    between atoms: OAW_23  and  CBD_30 
ROOT
HETATM    1  NAD   D T 601     -17.064   7.179   2.757  1.00 53.32    -0.191 NA
HETATM    2  CAG   D T 601     -16.534   6.940   1.780  1.00 54.51     0.104 C 
HETATM    3  CAH   D T 601     -14.348   6.838   0.439  1.00 43.80     0.110 A 
HETATM    4  CAK   D T 601     -13.281   5.255  -2.934  1.00 48.43     0.098 A 
HETATM    5  CAL   D T 601     -16.264   4.756  -2.993  1.00 51.67     0.082 A 
HETATM    6  NAT   D T 601     -13.550   6.397  -0.658  1.00 45.65    -0.247 NA
HETATM    7  CBA   D T 601     -15.833   6.636   0.491  1.00 49.31     0.105 A 
HETATM    8  CBC   D T 601     -15.389   4.307  -4.121  1.00 53.00     0.095 A 
HETATM    9  CBD   D T 601     -13.914   4.556  -4.097  1.00 51.16     0.096 A 
HETATM   10  CBE   D T 601     -16.543   5.929  -0.662  1.00 54.84     0.090 A 
HETATM   11  CBF   D T 601     -14.146   5.721  -1.777  1.00 47.85     0.064 A 
HETATM   12  CBG   D T 601     -15.647   5.465  -1.819  1.00 51.63     0.017 A 
ENDROOT
BRANCH  10  13
HETATM   13  NAU   D T 601     -17.997   5.654  -0.726  1.00 54.01    -0.248 NA
BRANCH  13  14
HETATM   14  CBB   D T 601     -18.584   4.488  -0.083  1.00 54.80     0.072 A 
HETATM   15  CAJ   D T 601     -18.630   4.469   1.420  1.00 55.55     0.098 A 
HETATM   16  CAX   D T 601     -19.214   3.287   2.124  1.00 62.83     0.085 A 
HETATM   17  CAY   D T 601     -19.759   2.123   1.339  1.00 63.63     0.059 A 
HETATM   18 CL1    D T 601     -20.448   0.733   2.105  1.00 71.73    -0.085 Cl
HETATM   19  CAI   D T 601     -19.718   2.150  -0.145  1.00 58.17     0.079 A 
HETATM   20  CAZ   D T 601     -19.136   3.317  -0.863  1.00 58.48     0.055 A 
HETATM   21 CL2    D T 601     -19.142   3.242  -2.599  1.00 88.78    -0.085 Cl
BRANCH  16  22
HETATM   22  O02   D T 601     -19.228   3.304   3.497  1.00 70.52    -0.331 OA
HETATM   23  C01   D T 601     -18.090   3.743   4.171  1.00 60.10     0.181 C 
ENDBRANCH  16  22
ENDBRANCH  13  14
ENDBRANCH  10  13
BRANCH   8  24
HETATM   24  OAV   D T 601     -16.009   3.671  -5.169  1.00 53.06    -0.330 OA
HETATM   25  CAA   D T 601     -16.870   2.627  -4.851  1.00 49.21     0.181 C 
ENDBRANCH   8  24
BRANCH   9  26
HETATM   26  OAW   D T 601     -13.080   4.139  -5.143  1.00 56.28    -0.333 OA
BRANCH  26  27
HETATM   27  CAN   D T 601     -11.754   3.785  -4.849  1.00 46.95     0.150 C 
BRANCH  27  28
HETATM   28  CAM   D T 601     -11.225   2.893  -5.971  1.00 47.26     0.056 C 
BRANCH  28  29
HETATM   29  CAC   D T 601     -12.322   2.694  -7.009  1.00 49.87     0.100 C 
BRANCH  29  30
HETATM   30  NBH   D T 601     -12.764   1.255  -6.997  1.00 58.32    -0.365 N 
HETATM   31  CAP   D T 601     -12.337   0.276  -8.007  1.00 59.29     0.121 C 
HETATM   32  CAR   D T 601     -12.567  -1.164  -7.496  1.00 66.32     0.121 C 
HETATM   33  NBI   D T 601     -13.924  -1.340  -7.028  1.00 67.85    -0.364 N 
HETATM   34  CAO   D T 601     -14.392  -2.719  -6.919  1.00 55.13     0.121 C 
HETATM   35  CAS   D T 601     -14.279  -0.357  -6.040  1.00 63.26     0.121 C 
HETATM   36  CAQ   D T 601     -14.142   1.018  -6.623  1.00 57.65     0.121 C 
ENDBRANCH  29  30
ENDBRANCH  28  29
ENDBRANCH  27  28
ENDBRANCH  26  27
ENDBRANCH   9  26
TORSDOF 9
ENDMDL
MODEL 6
REMARK VINA RESULT:    -7.488      3.680      8.914
REMARK INTER + INTRA:         -12.908
REMARK INTER:                 -11.935
REMARK INTRA:                  -0.973
REMARK UNBOUND:                -1.480
REMARK  9 active torsions:
REMARK  status: ('A' for Active; 'I' for Inactive)
REMARK    1  A    between atoms: O02_2  and  CAX_24 
REMARK    2  A    between atoms: CAC_3  and  CAM_13 
REMARK    3  A    between atoms: CAC_3  and  NBH_34 
REMARK    4  A    between atoms: CAM_13  and  CAN_14 
REMARK    5  A    between atoms: CAN_14  and  OAW_23 
REMARK    6  A    between atoms: NAU_21  and  CBB_28 
REMARK    7  A    between atoms: NAU_21  and  CBE_31 
REMARK    8  A    between atoms: OAV_22  and  CBC_29 
REMARK    9  A    between atoms: OAW_23  and  CBD_30 
ROOT
HETATM    1  NAD   D T 601     -19.687   3.741  -3.273  1.00 53.32    -0.191 NA
HETATM    2  CAG   D T 601     -18.551   3.783  -3.294  1.00 54.51     0.104 C 
HETATM    3  CAH   D T 601     -16.346   2.992  -4.342  1.00 43.80     0.110 A 
HETATM    4  CAK   D T 601     -12.654   4.154  -4.147  1.00 48.43     0.098 A 
HETATM    5  CAL   D T 601     -13.917   5.927  -2.046  1.00 51.67     0.082 A 
HETATM    6  NAT   D T 601     -14.946   3.104  -4.593  1.00 45.65    -0.247 NA
HETATM    7  CBA   D T 601     -17.053   3.829  -3.318  1.00 49.31     0.105 A 
HETATM    8  CBC   D T 601     -12.452   6.014  -2.343  1.00 53.00     0.095 A 
HETATM    9  CBD   D T 601     -11.824   5.136  -3.378  1.00 51.16     0.096 A 
HETATM   10  CBE   D T 601     -16.267   4.850  -2.499  1.00 54.84     0.090 A 
HETATM   11  CBF   D T 601     -14.141   4.047  -3.864  1.00 47.85     0.064 A 
HETATM   12  CBG   D T 601     -14.765   4.943  -2.803  1.00 51.63     0.017 A 
ENDROOT
BRANCH  10  13
HETATM   13  NAU   D T 601     -16.847   5.745  -1.471  1.00 54.01    -0.248 NA
BRANCH  13  14
HETATM   14  CBB   D T 601     -17.118   5.282  -0.119  1.00 54.80     0.072 A 
HETATM   15  CAJ   D T 601     -18.154   4.206   0.056  1.00 55.55     0.098 A 
HETATM   16  CAX   D T 601     -18.474   3.706   1.427  1.00 62.83     0.085 A 
HETATM   17  CAY   D T 601     -17.762   4.267   2.630  1.00 63.63     0.059 A 
HETATM   18 CL1    D T 601     -18.092   3.721   4.238  1.00 71.73    -0.085 Cl
HETATM   19  CAI   D T 601     -16.735   5.324   2.452  1.00 58.17     0.079 A 
HETATM   20  CAZ   D T 601     -16.406   5.838   1.094  1.00 58.48     0.055 A 
HETATM   21 CL2    D T 601     -15.187   7.073   1.004  1.00 88.78    -0.085 Cl
BRANCH  16  22
HETATM   22  O02   D T 601     -19.432   2.729   1.544  1.00 70.52    -0.331 OA
HETATM   23  C01   D T 601     -19.623   1.851   0.479  1.00 60.10     0.181 C 
ENDBRANCH  16  22
ENDBRANCH  13  14
ENDBRANCH  10  13
BRANCH   8  24
HETATM   24  OAV   D T 601     -11.728   6.926  -1.615  1.00 53.06    -0.330 OA
HETATM   25  CAA   D T 601     -11.912   8.268  -1.925  1.00 49.21     0.181 C 
ENDBRANCH   8  24
BRANCH   9  26
HETATM   26  OAW   D T 601     -10.456   5.208  -3.671  1.00 56.28    -0.333 OA
BRANCH  26  27
HETATM   27  CAN   D T 601     -10.032   4.960  -4.986  1.00 46.95     0.150 C 
BRANCH  27  28
HETATM   28  CAM   D T 601      -9.643   3.488  -5.107  1.00 47.26     0.056 C 
BRANCH  28  29
HETATM   29  CAC   D T 601      -9.281   3.185  -6.555  1.00 49.87     0.100 C 
BRANCH  29  30
HETATM   30  NBH   D T 601     -10.260   2.187  -7.114  1.00 58.32    -0.365 N 
HETATM   31  CAP   D T 601      -9.988   1.385  -8.317  1.00 59.29     0.121 C 
HETATM   32  CAR   D T 601     -10.937   0.167  -8.380  1.00 66.32     0.121 C 
HETATM   33  NBI   D T 601     -12.317   0.575  -8.231  1.00 67.85    -0.364 N 
HETATM   34  CAO   D T 601     -13.321  -0.383  -8.684  1.00 55.13     0.121 C 
HETATM   35  CAS   D T 601     -12.518   1.350  -7.037  1.00 63.26     0.121 C 
HETATM   36  CAQ   D T 601     -11.653   2.575  -7.077  1.00 57.65     0.121 C 
ENDBRANCH  29  30
ENDBRANCH  28  29
ENDBRANCH  27  28
ENDBRANCH  26  27
ENDBRANCH   9  26
TORSDOF 9
ENDMDL
MODEL 7
REMARK VINA RESULT:    -7.459      3.531      8.770
REMARK INTER + INTRA:         -12.864
REMARK INTER:                 -11.172
REMARK INTRA:                  -1.692
REMARK UNBOUND:                -1.480
REMARK  9 active torsions:
REMARK  status: ('A' for Active; 'I' for Inactive)
REMARK    1  A    between atoms: O02_2  and  CAX_24 
REMARK    2  A    between atoms: CAC_3  and  CAM_13 
REMARK    3  A    between atoms: CAC_3  and  NBH_34 
REMARK    4  A    between atoms: CAM_13  and  CAN_14 
REMARK    5  A    between atoms: CAN_14  and  OAW_23 
REMARK    6  A    between atoms: NAU_21  and  CBB_28 
REMARK    7  A    between atoms: NAU_21  and  CBE_31 
REMARK    8  A    between atoms: OAV_22  and  CBC_29 
REMARK    9  A    between atoms: OAW_23  and  CBD_30 
ROOT
HETATM    1  NAD   D T 601     -16.900   5.217  -1.049  1.00 53.32    -0.191 NA
HETATM    2  CAG   D T 601     -16.336   4.694  -1.886  1.00 54.51     0.104 C 
HETATM    3  CAH   D T 601     -16.405   3.392  -4.097  1.00 43.80     0.110 A 
HETATM    4  CAK   D T 601     -13.776   2.387  -6.761  1.00 48.43     0.098 A 
HETATM    5  CAL   D T 601     -11.993   3.577  -4.627  1.00 51.67     0.082 A 
HETATM    6  NAT   D T 601     -15.812   2.881  -5.290  1.00 45.65    -0.247 NA
HETATM    7  CBA   D T 601     -15.596   3.995  -2.987  1.00 49.31     0.105 A 
HETATM    8  CBC   D T 601     -11.412   3.033  -5.895  1.00 53.00     0.095 A 
HETATM    9  CBD   D T 601     -12.292   2.440  -6.951  1.00 51.16     0.096 A 
HETATM   10  CBE   D T 601     -14.077   4.082  -3.115  1.00 54.84     0.090 A 
HETATM   11  CBF   D T 601     -14.388   2.932  -5.484  1.00 47.85     0.064 A 
HETATM   12  CBG   D T 601     -13.480   3.527  -4.416  1.00 51.63     0.017 A 
ENDROOT
BRANCH  10  13
HETATM   13  NAU   D T 601     -13.168   4.666  -2.101  1.00 54.01    -0.248 NA
BRANCH  13  14
HETATM   14  CBB   D T 601     -13.032   6.105  -1.937  1.00 54.80     0.072 A 
HETATM   15  CAJ   D T 601     -12.467   6.889  -3.089  1.00 55.55     0.098 A 
HETATM   16  CAX   D T 601     -12.299   8.369  -2.961  1.00 62.83     0.085 A 
HETATM   17  CAY   D T 601     -12.695   9.076  -1.692  1.00 63.63     0.059 A 
HETATM   18 CL1    D T 601     -12.523  10.786  -1.494  1.00 71.73    -0.085 Cl
HETATM   19  CAI   D T 601     -13.258   8.298  -0.560  1.00 58.17     0.079 A 
HETATM   20  CAZ   D T 601     -13.430   6.823  -0.667  1.00 58.48     0.055 A 
HETATM   21 CL2    D T 601     -14.100   6.016   0.718  1.00 88.78    -0.085 Cl
BRANCH  16  22
HETATM   22  O02   D T 601     -11.771   9.047  -4.033  1.00 70.52    -0.331 OA
HETATM   23  C01   D T 601     -12.640   9.725  -4.886  1.00 60.10     0.181 C 
ENDBRANCH  16  22
ENDBRANCH  13  14
ENDBRANCH  10  13
BRANCH   8  24
HETATM   24  OAV   D T 601     -10.047   3.099  -6.029  1.00 53.06    -0.330 OA
HETATM   25  CAA   D T 601      -9.377   4.000  -5.208  1.00 49.21     0.181 C 
ENDBRANCH   8  24
BRANCH   9  26
HETATM   26  OAW   D T 601     -11.765   1.930  -8.145  1.00 56.28    -0.333 OA
BRANCH  26  27
HETATM   27  CAN   D T 601     -11.294   0.608  -8.164  1.00 46.95     0.150 C 
BRANCH  27  28
HETATM   28  CAM   D T 601     -12.411  -0.303  -8.671  1.00 47.26     0.056 C 
BRANCH  28  29
HETATM   29  CAC   D T 601     -12.585  -1.464  -7.702  1.00 49.87     0.100 C 
BRANCH  29  30
HETATM   30  NBH   D T 601     -14.034  -1.568  -7.303  1.00 58.32    -0.365 N 
HETATM   31  CAP   D T 601     -14.544  -1.094  -6.007  1.00 59.29     0.121 C 
HETATM   32  CAR   D T 601     -16.078  -0.916  -6.064  1.00 66.32     0.121 C 
HETATM   33  NBI   D T 601     -16.723  -2.110  -6.561  1.00 67.85    -0.364 N 
HETATM   34  CAO   D T 601     -18.149  -2.236  -6.274  1.00 55.13     0.121 C 
HETATM   35  CAS   D T 601     -16.184  -2.519  -7.830  1.00 63.26     0.121 C 
HETATM   36  CAQ   D T 601     -14.714  -2.784  -7.693  1.00 57.65     0.121 C 
ENDBRANCH  29  30
ENDBRANCH  28  29
ENDBRANCH  27  28
ENDBRANCH  26  27
ENDBRANCH   9  26
TORSDOF 9
ENDMDL
MODEL 8
REMARK VINA RESULT:    -7.415      3.826      9.898
REMARK INTER + INTRA:         -12.796
REMARK INTER:                 -11.607
REMARK INTRA:                  -1.188
REMARK UNBOUND:                -1.480
REMARK  9 active torsions:
REMARK  status: ('A' for Active; 'I' for Inactive)
REMARK    1  A    between atoms: O02_2  and  CAX_24 
REMARK    2  A    between atoms: CAC_3  and  CAM_13 
REMARK    3  A    between atoms: CAC_3  and  NBH_34 
REMARK    4  A    between atoms: CAM_13  and  CAN_14 
REMARK    5  A    between atoms: CAN_14  and  OAW_23 
REMARK    6  A    between atoms: NAU_21  and  CBB_28 
REMARK    7  A    between atoms: NAU_21  and  CBE_31 
REMARK    8  A    between atoms: OAV_22  and  CBC_29 
REMARK    9  A    between atoms: OAW_23  and  CBD_30 
ROOT
HETATM    1  NAD   D T 601     -14.366   8.255   2.655  1.00 53.32    -0.191 NA
HETATM    2  CAG   D T 601     -14.515   7.745   1.650  1.00 54.51     0.104 C 
HETATM    3  CAH   D T 601     -13.574   7.133  -0.659  1.00 43.80     0.110 A 
HETATM    4  CAK   D T 601     -14.636   4.707  -3.488  1.00 48.43     0.098 A 
HETATM    5  CAL   D T 601     -17.008   4.476  -1.624  1.00 51.67     0.082 A 
HETATM    6  NAT   D T 601     -13.566   6.375  -1.867  1.00 45.65    -0.247 NA
HETATM    7  CBA   D T 601     -14.710   7.082   0.320  1.00 49.31     0.105 A 
HETATM    8  CBC   D T 601     -16.957   3.696  -2.901  1.00 53.00     0.095 A 
HETATM    9  CBD   D T 601     -15.787   3.811  -3.826  1.00 51.16     0.096 A 
HETATM   10  CBE   D T 601     -15.915   6.188   0.037  1.00 54.84     0.090 A 
HETATM   11  CBF   D T 601     -14.664   5.508  -2.200  1.00 47.85     0.064 A 
HETATM   12  CBG   D T 601     -15.864   5.385  -1.271  1.00 51.63     0.017 A 
ENDROOT
BRANCH  10  13
HETATM   13  NAU   D T 601     -17.091   6.037   0.926  1.00 54.01    -0.248 NA
BRANCH  13  14
HETATM   14  CBB   D T 601     -18.434   6.372   0.481  1.00 54.80     0.072 A 
HETATM   15  CAJ   D T 601     -18.645   7.722  -0.148  1.00 55.55     0.098 A 
HETATM   16  CAX   D T 601     -20.010   8.115  -0.610  1.00 62.83     0.085 A 
HETATM   17  CAY   D T 601     -21.171   7.168  -0.457  1.00 63.63     0.059 A 
HETATM   18 CL1    D T 601     -22.770   7.572  -0.978  1.00 71.73    -0.085 Cl
HETATM   19  CAI   D T 601     -20.956   5.833   0.159  1.00 58.17     0.079 A 
HETATM   20  CAZ   D T 601     -19.604   5.426   0.629  1.00 58.48     0.055 A 
HETATM   21 CL2    D T 601     -19.469   3.842   1.330  1.00 88.78    -0.085 Cl
BRANCH  16  22
HETATM   22  O02   D T 601     -20.162   9.360  -1.171  1.00 70.52    -0.331 OA
HETATM   23  C01   D T 601     -20.508   9.447  -2.517  1.00 60.10     0.181 C 
ENDBRANCH  16  22
ENDBRANCH  13  14
ENDBRANCH  10  13
BRANCH   8  24
HETATM   24  OAV   D T 601     -18.034   2.888  -3.175  1.00 53.06    -0.330 OA
HETATM   25  CAA   D T 601     -19.101   2.938  -2.286  1.00 49.21     0.181 C 
ENDBRANCH   8  24
BRANCH   9  26
HETATM   26  OAW   D T 601     -15.723   3.085  -5.023  1.00 56.28    -0.333 OA
BRANCH  26  27
HETATM   27  CAN   D T 601     -14.779   2.052  -5.136  1.00 46.95     0.150 C 
BRANCH  27  28
HETATM   28  CAM   D T 601     -14.205   2.065  -6.551  1.00 47.26     0.056 C 
BRANCH  28  29
HETATM   29  CAC   D T 601     -13.427   3.357  -6.762  1.00 49.87     0.100 C 
BRANCH  29  30
HETATM   30  NBH   D T 601     -11.951   3.070  -6.672  1.00 58.32    -0.365 N 
HETATM   31  CAP   D T 601     -11.329   1.876  -7.262  1.00 59.29     0.121 C 
HETATM   32  CAR   D T 601      -9.804   2.076  -7.406  1.00 66.32     0.121 C 
HETATM   33  NBI   D T 601      -9.214   2.504  -6.157  1.00 67.85    -0.364 N 
HETATM   34  CAO   D T 601      -7.770   2.324  -6.034  1.00 55.13     0.121 C 
HETATM   35  CAS   D T 601      -9.862   3.676  -5.635  1.00 63.26     0.121 C 
HETATM   36  CAQ   D T 601     -11.318   3.393  -5.412  1.00 57.65     0.121 C 
ENDBRANCH  29  30
ENDBRANCH  28  29
ENDBRANCH  27  28
ENDBRANCH  26  27
ENDBRANCH   9  26
TORSDOF 9
ENDMDL
MODEL 9
REMARK VINA RESULT:    -7.185      3.005      8.902
REMARK INTER + INTRA:         -12.445
REMARK INTER:                 -11.358
REMARK INTRA:                  -1.087
REMARK UNBOUND:                -1.480
REMARK  9 active torsions:
REMARK  status: ('A' for Active; 'I' for Inactive)
REMARK    1  A    between atoms: O02_2  and  CAX_24 
REMARK    2  A    between atoms: CAC_3  and  CAM_13 
REMARK    3  A    between atoms: CAC_3  and  NBH_34 
REMARK    4  A    between atoms: CAM_13  and  CAN_14 
REMARK    5  A    between atoms: CAN_14  and  OAW_23 
REMARK    6  A    between atoms: NAU_21  and  CBB_28 
REMARK    7  A    between atoms: NAU_21  and  CBE_31 
REMARK    8  A    between atoms: OAV_22  and  CBC_29 
REMARK    9  A    between atoms: OAW_23  and  CBD_30 
ROOT
HETATM    1  NAD   D T 601     -12.303   9.071  -1.046  1.00 53.32    -0.191 NA
HETATM    2  CAG   D T 601     -12.047   8.257  -1.797  1.00 54.51     0.104 C 
HETATM    3  CAH   D T 601     -10.258   6.995  -3.137  1.00 43.80     0.110 A 
HETATM    4  CAK   D T 601     -10.203   3.728  -5.222  1.00 48.43     0.098 A 
HETATM    5  CAL   D T 601     -13.158   3.964  -4.618  1.00 51.67     0.082 A 
HETATM    6  NAT   D T 601      -9.796   5.890  -3.913  1.00 45.65    -0.247 NA
HETATM    7  CBA   D T 601     -11.705   7.192  -2.794  1.00 49.31     0.105 A 
HETATM    8  CBC   D T 601     -12.629   2.820  -5.426  1.00 53.00     0.095 A 
HETATM    9  CBD   D T 601     -11.169   2.703  -5.729  1.00 51.16     0.096 A 
HETATM   10  CBE   D T 601     -12.743   6.183  -3.279  1.00 54.84     0.090 A 
HETATM   11  CBF   D T 601     -10.714   4.898  -4.401  1.00 47.85     0.064 A 
HETATM   12  CBG   D T 601     -12.203   5.007  -4.106  1.00 51.63     0.017 A 
ENDROOT
BRANCH  10  13
HETATM   13  NAU   D T 601     -14.197   6.253  -2.997  1.00 54.01    -0.248 NA
BRANCH  13  14
HETATM   14  CBB   D T 601     -14.765   5.709  -1.774  1.00 54.80     0.072 A 
HETATM   15  CAJ   D T 601     -14.362   6.345  -0.473  1.00 55.55     0.098 A 
HETATM   16  CAX   D T 601     -14.913   5.812   0.810  1.00 62.83     0.085 A 
HETATM   17  CAY   D T 601     -15.870   4.650   0.806  1.00 63.63     0.059 A 
HETATM   18 CL1    D T 601     -16.538   3.997   2.262  1.00 71.73    -0.085 Cl
HETATM   19  CAI   D T 601     -16.271   4.029  -0.482  1.00 58.17     0.079 A 
HETATM   20  CAZ   D T 601     -15.729   4.544  -1.770  1.00 58.48     0.055 A 
HETATM   21 CL2    D T 601     -16.268   3.744  -3.215  1.00 88.78    -0.085 Cl
BRANCH  16  22
HETATM   22  O02   D T 601     -14.512   6.415   1.977  1.00 70.52    -0.331 OA
HETATM   23  C01   D T 601     -14.514   7.807   2.043  1.00 60.10     0.181 C 
ENDBRANCH  16  22
ENDBRANCH  13  14
ENDBRANCH  10  13
BRANCH   8  24
HETATM   24  OAV   D T 601     -13.548   1.903  -5.874  1.00 53.06    -0.330 OA
HETATM   25  CAA   D T 601     -14.000   0.964  -4.954  1.00 49.21     0.181 C 
ENDBRANCH   8  24
BRANCH   9  26
HETATM   26  OAW   D T 601     -10.658   1.636  -6.481  1.00 56.28    -0.333 OA
BRANCH  26  27
HETATM   27  CAN   D T 601     -10.790   1.670  -7.878  1.00 46.95     0.150 C 
BRANCH  27  28
HETATM   28  CAM   D T 601     -11.255   0.297  -8.360  1.00 47.26     0.056 C 
BRANCH  28  29
HETATM   29  CAC   D T 601     -12.767   0.319  -8.542  1.00 49.87     0.100 C 
BRANCH  29  30
HETATM   30  NBH   D T 601     -13.291  -1.093  -8.528  1.00 58.32    -0.365 N 
HETATM   31  CAP   D T 601     -13.413  -1.890  -7.298  1.00 59.29     0.121 C 
HETATM   32  CAR   D T 601     -14.373  -3.081  -7.519  1.00 66.32     0.121 C 
HETATM   33  NBI   D T 601     -13.999  -3.840  -8.692  1.00 67.85    -0.364 N 
HETATM   34  CAO   D T 601     -14.538  -5.194  -8.778  1.00 55.13     0.121 C 
HETATM   35  CAS   D T 601     -13.900  -3.006  -9.858  1.00 63.26     0.121 C 
HETATM   36  CAQ   D T 601     -12.877  -1.934  -9.630  1.00 57.65     0.121 C 
ENDBRANCH  29  30
ENDBRANCH  28  29
ENDBRANCH  27  28
ENDBRANCH  26  27
ENDBRANCH   9  26
TORSDOF 9
ENDMDL
