MODEL 1
REMARK VINA RESULT:    -7.141      0.000      0.000
REMARK INTER + INTRA:         -11.847
REMARK INTER:                 -10.898
REMARK INTRA:                  -0.950
REMARK UNBOUND:                -0.950
REMARK  9 active torsions:
REMARK  status: ('A' for Active; 'I' for Inactive)
REMARK    1  A    between atoms: O02_2  and  CAX_24 
REMARK    2  A    between atoms: CAC_3  and  CAM_13 
REMARK    3  A    between atoms: CAC_3  and  NBH_34 
REMARK    4  A    between atoms: CAM_13  and  CAN_14 
REMARK    5  A    between atoms: CAN_14  and  OAW_23 
REMARK    6  A    between atoms: NAU_21  and  CBB_28 
REMARK    7  A    between atoms: NAU_21  and  CBE_31 
REMARK    8  A    between atoms: OAV_22  and  CBC_29 
REMARK    9  A    between atoms: OAW_23  and  CBD_30 
ROOT
HETATM    1  NAD   D T 601       7.273  -2.103  -7.638  1.00 53.32    -0.191 NA
HETATM    2  CAG   D T 601       7.661  -2.542  -6.665  1.00 54.51     0.104 C 
HETATM    3  CAH   D T 601       8.660  -4.547  -5.409  1.00 43.80     0.110 A 
HETATM    4  CAK   D T 601      10.333  -5.048  -1.950  1.00 48.43     0.098 A 
HETATM    5  CAL   D T 601       9.415  -2.174  -1.724  1.00 51.67     0.082 A 
HETATM    6  NAT   D T 601       9.343  -5.144  -4.309  1.00 45.65    -0.247 NA
HETATM    7  CBA   D T 601       8.167  -3.130  -5.382  1.00 49.31     0.105 A 
HETATM    8  CBC   D T 601      10.140  -2.839  -0.594  1.00 53.00     0.095 A 
HETATM    9  CBD   D T 601      10.591  -4.261  -0.701  1.00 51.16     0.096 A 
HETATM   10  CBE   D T 601       8.399  -2.272  -4.141  1.00 54.84     0.090 A 
HETATM   11  CBF   D T 601       9.601  -4.396  -3.109  1.00 47.85     0.064 A 
HETATM   12  CBG   D T 601       9.143  -2.950  -2.982  1.00 51.63     0.017 A 
ENDROOT
BRANCH  10  13
HETATM   13  NAU   D T 601       7.977  -0.858  -3.992  1.00 54.01    -0.248 NA
BRANCH  13  14
HETATM   14  CBB   D T 601       8.392   0.166  -4.938  1.00 54.80     0.072 A 
HETATM   15  CAJ   D T 601       7.373   0.658  -5.928  1.00 55.55     0.098 A 
HETATM   16  CAX   D T 601       7.758   1.702  -6.925  1.00 62.83     0.085 A 
HETATM   17  CAY   D T 601       9.154   2.267  -6.938  1.00 63.63     0.059 A 
HETATM   18 CL1    D T 601       9.651   3.478  -8.070  1.00 71.73    -0.085 Cl
HETATM   19  CAI   D T 601      10.155   1.783  -5.955  1.00 58.17     0.079 A 
HETATM   20  CAZ   D T 601       9.791   0.740  -4.958  1.00 58.48     0.055 A 
HETATM   21 CL2    D T 601      11.040   0.252  -3.852  1.00 88.78    -0.085 Cl
BRANCH  16  22
HETATM   22  O02   D T 601       6.801   2.118  -7.818  1.00 70.52    -0.331 OA
HETATM   23  C01   D T 601       6.467   1.277  -8.877  1.00 60.10     0.181 C 
ENDBRANCH  16  22
ENDBRANCH  13  14
ENDBRANCH  10  13
BRANCH   8  24
HETATM   24  OAV   D T 601      10.354  -2.083   0.532  1.00 53.06    -0.330 OA
HETATM   25  CAA   D T 601      11.539  -1.360   0.590  1.00 49.21     0.181 C 
ENDBRANCH   8  24
BRANCH   9  26
HETATM   26  OAW   D T 601      11.273  -4.896   0.344  1.00 56.28    -0.333 OA
BRANCH  26  27
HETATM   27  CAN   D T 601      10.539  -5.362   1.445  1.00 46.95     0.150 C 
BRANCH  27  28
HETATM   28  CAM   D T 601       9.202  -5.907   0.949  1.00 47.26     0.056 C 
BRANCH  28  29
HETATM   29  CAC   D T 601       9.257  -7.429   0.943  1.00 49.87     0.100 C 
BRANCH  29  30
HETATM   30  NBH   D T 601       8.460  -7.953  -0.221  1.00 58.32    -0.365 N 
HETATM   31  CAP   D T 601       7.220  -8.729  -0.060  1.00 59.29     0.121 C 
HETATM   32  CAR   D T 601       6.410  -8.732  -1.376  1.00 66.32     0.121 C 
HETATM   33  NBI   D T 601       7.232  -9.142  -2.493  1.00 67.85    -0.364 N 
HETATM   34  CAO   D T 601       6.519  -9.592  -3.685  1.00 55.13     0.121 C 
HETATM   35  CAS   D T 601       8.424  -8.346  -2.599  1.00 63.26     0.121 C 
HETATM   36  CAQ   D T 601       9.227  -8.464  -1.337  1.00 57.65     0.121 C 
ENDBRANCH  29  30
ENDBRANCH  28  29
ENDBRANCH  27  28
ENDBRANCH  26  27
ENDBRANCH   9  26
TORSDOF 9
ENDMDL
MODEL 2
REMARK VINA RESULT:    -6.935      4.270      9.718
REMARK INTER + INTRA:         -11.533
REMARK INTER:                 -10.487
REMARK INTRA:                  -1.045
REMARK UNBOUND:                -0.950
REMARK  9 active torsions:
REMARK  status: ('A' for Active; 'I' for Inactive)
REMARK    1  A    between atoms: O02_2  and  CAX_24 
REMARK    2  A    between atoms: CAC_3  and  CAM_13 
REMARK    3  A    between atoms: CAC_3  and  NBH_34 
REMARK    4  A    between atoms: CAM_13  and  CAN_14 
REMARK    5  A    between atoms: CAN_14  and  OAW_23 
REMARK    6  A    between atoms: NAU_21  and  CBB_28 
REMARK    7  A    between atoms: NAU_21  and  CBE_31 
REMARK    8  A    between atoms: OAV_22  and  CBC_29 
REMARK    9  A    between atoms: OAW_23  and  CBD_30 
ROOT
HETATM    1  NAD   D T 601      13.109  -5.420   3.472  1.00 53.32    -0.191 NA
HETATM    2  CAG   D T 601      12.778  -4.700   2.658  1.00 54.51     0.104 C 
HETATM    3  CAH   D T 601      13.421  -3.051   0.798  1.00 43.80     0.110 A 
HETATM    4  CAK   D T 601      11.512  -1.314  -2.094  1.00 48.43     0.098 A 
HETATM    5  CAL   D T 601       9.227  -2.650  -0.630  1.00 51.67     0.082 A 
HETATM    6  NAT   D T 601      13.139  -2.279  -0.368  1.00 45.65    -0.247 NA
HETATM    7  CBA   D T 601      12.349  -3.744   1.587  1.00 49.31     0.105 A 
HETATM    8  CBC   D T 601       8.977  -1.833  -1.860  1.00 53.00     0.095 A 
HETATM    9  CBD   D T 601      10.105  -1.168  -2.584  1.00 51.16     0.096 A 
HETATM   10  CBE   D T 601      10.892  -3.637   1.141  1.00 54.84     0.090 A 
HETATM   11  CBF   D T 601      11.792  -2.137  -0.850  1.00 47.85     0.064 A 
HETATM   12  CBG   D T 601      10.633  -2.802  -0.121  1.00 51.63     0.017 A 
ENDROOT
BRANCH  10  13
HETATM   13  NAU   D T 601       9.744  -4.284   1.822  1.00 54.01    -0.248 NA
BRANCH  13  14
HETATM   14  CBB   D T 601       9.408  -5.680   1.591  1.00 54.80     0.072 A 
HETATM   15  CAJ   D T 601       9.002  -6.081   0.200  1.00 55.55     0.098 A 
HETATM   16  CAX   D T 601       8.638  -7.503  -0.081  1.00 62.83     0.085 A 
HETATM   17  CAY   D T 601       8.682  -8.533   1.017  1.00 63.63     0.059 A 
HETATM   18 CL1    D T 601       8.273 -10.192   0.745  1.00 71.73    -0.085 Cl
HETATM   19  CAI   D T 601       9.090  -8.134   2.387  1.00 58.17     0.079 A 
HETATM   20  CAZ   D T 601       9.451  -6.721   2.686  1.00 58.48     0.055 A 
HETATM   21 CL2    D T 601       9.918  -6.369   4.323  1.00 88.78    -0.085 Cl
BRANCH  16  22
HETATM   22  O02   D T 601       8.264  -7.826  -1.362  1.00 70.52    -0.331 OA
HETATM   23  C01   D T 601       9.236  -7.828  -2.360  1.00 60.10     0.181 C 
ENDBRANCH  16  22
ENDBRANCH  13  14
ENDBRANCH  10  13
BRANCH   8  24
HETATM   24  OAV   D T 601       7.672  -1.723  -2.273  1.00 53.06    -0.330 OA
HETATM   25  CAA   D T 601       7.309  -2.434  -3.410  1.00 49.21     0.181 C 
ENDBRANCH   8  24
BRANCH   9  26
HETATM   26  OAW   D T 601       9.888  -0.405  -3.738  1.00 56.28    -0.333 OA
BRANCH  26  27
HETATM   27  CAN   D T 601       9.477   0.930  -3.598  1.00 46.95     0.150 C 
BRANCH  27  28
HETATM   28  CAM   D T 601      10.368   1.812  -4.471  1.00 47.26     0.056 C 
BRANCH  28  29
HETATM   29  CAC   D T 601      10.556   1.143  -5.826  1.00 49.87     0.100 C 
BRANCH  29  30
HETATM   30  NBH   D T 601       9.355   1.420  -6.690  1.00 58.32    -0.365 N 
HETATM   31  CAP   D T 601       8.877   2.779  -6.986  1.00 59.29     0.121 C 
HETATM   32  CAR   D T 601       7.948   2.769  -8.220  1.00 66.32     0.121 C 
HETATM   33  NBI   D T 601       6.898   1.784  -8.074  1.00 67.85    -0.364 N 
HETATM   34  CAO   D T 601       5.734   1.951  -8.938  1.00 55.13     0.121 C 
HETATM   35  CAS   D T 601       7.429   0.478  -7.790  1.00 63.26     0.121 C 
HETATM   36  CAQ   D T 601       8.233   0.521  -6.524  1.00 57.65     0.121 C 
ENDBRANCH  29  30
ENDBRANCH  28  29
ENDBRANCH  27  28
ENDBRANCH  26  27
ENDBRANCH   9  26
TORSDOF 9
ENDMDL
MODEL 3
REMARK VINA RESULT:    -6.728      3.832     10.441
REMARK INTER + INTRA:         -11.217
REMARK INTER:                 -10.064
REMARK INTRA:                  -1.153
REMARK UNBOUND:                -0.950
REMARK  9 active torsions:
REMARK  status: ('A' for Active; 'I' for Inactive)
REMARK    1  A    between atoms: O02_2  and  CAX_24 
REMARK    2  A    between atoms: CAC_3  and  CAM_13 
REMARK    3  A    between atoms: CAC_3  and  NBH_34 
REMARK    4  A    between atoms: CAM_13  and  CAN_14 
REMARK    5  A    between atoms: CAN_14  and  OAW_23 
REMARK    6  A    between atoms: NAU_21  and  CBB_28 
REMARK    7  A    between atoms: NAU_21  and  CBE_31 
REMARK    8  A    between atoms: OAV_22  and  CBC_29 
REMARK    9  A    between atoms: OAW_23  and  CBD_30 
ROOT
HETATM    1  NAD   D T 601      12.980  -6.075   4.302  1.00 53.32    -0.191 NA
HETATM    2  CAG   D T 601      12.445  -5.457   3.512  1.00 54.51     0.104 C 
HETATM    3  CAH   D T 601      11.718  -3.148   2.658  1.00 43.80     0.110 A 
HETATM    4  CAK   D T 601      10.288  -1.794  -0.680  1.00 48.43     0.098 A 
HETATM    5  CAL   D T 601      10.260  -4.771  -1.218  1.00 51.67     0.082 A 
HETATM    6  NAT   D T 601      11.251  -2.257   1.646  1.00 45.65    -0.247 NA
HETATM    7  CBA   D T 601      11.735  -4.637   2.478  1.00 49.31     0.105 A 
HETATM    8  CBC   D T 601       9.782  -3.800  -2.254  1.00 53.00     0.095 A 
HETATM    9  CBD   D T 601       9.792  -2.327  -1.989  1.00 51.16     0.096 A 
HETATM   10  CBE   D T 601      11.244  -5.247   1.167  1.00 54.84     0.090 A 
HETATM   11  CBF   D T 601      10.778  -2.758   0.385  1.00 47.85     0.064 A 
HETATM   12  CBG   D T 601      10.756  -4.253   0.103  1.00 51.63     0.017 A 
ENDROOT
BRANCH  10  13
HETATM   13  NAU   D T 601      11.224  -6.697   0.857  1.00 54.01    -0.248 NA
BRANCH  13  14
HETATM   14  CBB   D T 601      10.116  -7.548   1.262  1.00 54.80     0.072 A 
HETATM   15  CAJ   D T 601       9.875  -7.731   2.735  1.00 55.55     0.098 A 
HETATM   16  CAX   D T 601       8.754  -8.604   3.196  1.00 62.83     0.085 A 
HETATM   17  CAY   D T 601       7.863  -9.294   2.197  1.00 63.63     0.059 A 
HETATM   18 CL1    D T 601       6.551 -10.314   2.678  1.00 71.73    -0.085 Cl
HETATM   19  CAI   D T 601       8.100  -9.105   0.744  1.00 58.17     0.079 A 
HETATM   20  CAZ   D T 601       9.215  -8.243   0.266  1.00 58.48     0.055 A 
HETATM   21 CL2    D T 601       9.396  -8.090  -1.456  1.00 88.78    -0.085 Cl
BRANCH  16  22
HETATM   22  O02   D T 601       8.575  -8.752   4.549  1.00 70.52    -0.331 OA
HETATM   23  C01   D T 601       9.684  -8.642   5.385  1.00 60.10     0.181 C 
ENDBRANCH  16  22
ENDBRANCH  13  14
ENDBRANCH  10  13
BRANCH   8  24
HETATM   24  OAV   D T 601       9.334  -4.331  -3.438  1.00 53.06    -0.330 OA
HETATM   25  CAA   D T 601      10.143  -4.156  -4.553  1.00 49.21     0.181 C 
ENDBRANCH   8  24
BRANCH   9  26
HETATM   26  OAW   D T 601       9.353  -1.405  -2.948  1.00 56.28    -0.333 OA
BRANCH  26  27
HETATM   27  CAN   D T 601      10.209  -0.356  -3.318  1.00 46.95     0.150 C 
BRANCH  27  28
HETATM   28  CAM   D T 601      10.424  -0.408  -4.829  1.00 47.26     0.056 C 
BRANCH  28  29
HETATM   29  CAC   D T 601      10.517   1.014  -5.366  1.00 49.87     0.100 C 
BRANCH  29  30
HETATM   30  NBH   D T 601       9.391   1.257  -6.335  1.00 58.32    -0.365 N 
HETATM   31  CAP   D T 601       9.022   2.596  -6.817  1.00 59.29     0.121 C 
HETATM   32  CAR   D T 601       8.169   2.493  -8.101  1.00 66.32     0.121 C 
HETATM   33  NBI   D T 601       7.050   1.596  -7.912  1.00 67.85    -0.364 N 
HETATM   34  CAO   D T 601       5.952   1.727  -8.866  1.00 55.13     0.121 C 
HETATM   35  CAS   D T 601       7.475   0.306  -7.444  1.00 63.26     0.121 C 
HETATM   36  CAQ   D T 601       8.204   0.452  -6.141  1.00 57.65     0.121 C 
ENDBRANCH  29  30
ENDBRANCH  28  29
ENDBRANCH  27  28
ENDBRANCH  26  27
ENDBRANCH   9  26
TORSDOF 9
ENDMDL
MODEL 4
REMARK VINA RESULT:    -6.714      2.987      5.420
REMARK INTER + INTRA:         -11.197
REMARK INTER:                  -9.461
REMARK INTRA:                  -1.736
REMARK UNBOUND:                -0.950
REMARK  9 active torsions:
REMARK  status: ('A' for Active; 'I' for Inactive)
REMARK    1  A    between atoms: O02_2  and  CAX_24 
REMARK    2  A    between atoms: CAC_3  and  CAM_13 
REMARK    3  A    between atoms: CAC_3  and  NBH_34 
REMARK    4  A    between atoms: CAM_13  and  CAN_14 
REMARK    5  A    between atoms: CAN_14  and  OAW_23 
REMARK    6  A    between atoms: NAU_21  and  CBB_28 
REMARK    7  A    between atoms: NAU_21  and  CBE_31 
REMARK    8  A    between atoms: OAV_22  and  CBC_29 
REMARK    9  A    between atoms: OAW_23  and  CBD_30 
ROOT
HETATM    1  NAD   D T 601       7.951  -3.215  -5.862  1.00 53.32    -0.191 NA
HETATM    2  CAG   D T 601       8.391  -3.498  -4.853  1.00 54.51     0.104 C 
HETATM    3  CAH   D T 601       9.520  -5.265  -3.372  1.00 43.80     0.110 A 
HETATM    4  CAK   D T 601      11.333  -5.208   0.053  1.00 48.43     0.098 A 
HETATM    5  CAL   D T 601      10.299  -2.368  -0.088  1.00 51.67     0.082 A 
HETATM    6  NAT   D T 601      10.267  -5.674  -2.227  1.00 45.65    -0.247 NA
HETATM    7  CBA   D T 601       8.967  -3.879  -3.523  1.00 49.31     0.105 A 
HETATM    8  CBC   D T 601      11.091  -2.838   1.093  1.00 53.00     0.095 A 
HETATM    9  CBD   D T 601      11.601  -4.243   1.167  1.00 51.16     0.096 A 
HETATM   10  CBE   D T 601       9.204  -2.845  -2.424  1.00 54.84     0.090 A 
HETATM   11  CBF   D T 601      10.534  -4.755  -1.155  1.00 47.85     0.064 A 
HETATM   12  CBG   D T 601      10.017  -3.324  -1.213  1.00 51.63     0.017 A 
ENDROOT
BRANCH  10  13
HETATM   13  NAU   D T 601       8.726  -1.442  -2.457  1.00 54.01    -0.248 NA
BRANCH  13  14
HETATM   14  CBB   D T 601       9.090  -0.537  -3.537  1.00 54.80     0.072 A 
HETATM   15  CAJ   D T 601       7.988  -0.028  -4.424  1.00 55.55     0.098 A 
HETATM   16  CAX   D T 601       8.316   0.895  -5.551  1.00 62.83     0.085 A 
HETATM   17  CAY   D T 601       9.739   1.323  -5.798  1.00 63.63     0.059 A 
HETATM   18 CL1    D T 601      10.173   2.392  -7.088  1.00 71.73    -0.085 Cl
HETATM   19  CAI   D T 601      10.823   0.824  -4.915  1.00 58.17     0.079 A 
HETATM   20  CAZ   D T 601      10.515  -0.101  -3.790  1.00 58.48     0.055 A 
HETATM   21 CL2    D T 601      11.861  -0.618  -2.819  1.00 88.78    -0.085 Cl
BRANCH  16  22
HETATM   22  O02   D T 601       7.282   1.329  -6.344  1.00 70.52    -0.331 OA
HETATM   23  C01   D T 601       7.164   0.808  -7.631  1.00 60.10     0.181 C 
ENDBRANCH  16  22
ENDBRANCH  13  14
ENDBRANCH  10  13
BRANCH   8  24
HETATM   24  OAV   D T 601      11.311  -1.923   2.093  1.00 53.06    -0.330 OA
HETATM   25  CAA   D T 601      12.124  -0.839   1.787  1.00 49.21     0.181 C 
ENDBRANCH   8  24
BRANCH   9  26
HETATM   26  OAW   D T 601      12.346  -4.698   2.262  1.00 56.28    -0.333 OA
BRANCH  26  27
HETATM   27  CAN   D T 601      13.475  -5.496   2.026  1.00 46.95     0.150 C 
BRANCH  27  28
HETATM   28  CAM   D T 601      14.720  -4.613   2.071  1.00 47.26     0.056 C 
BRANCH  28  29
HETATM   29  CAC   D T 601      15.218  -4.383   0.650  1.00 49.87     0.100 C 
BRANCH  29  30
HETATM   30  NBH   D T 601      15.334  -2.904   0.395  1.00 58.32    -0.365 N 
HETATM   31  CAP   D T 601      15.560  -1.921   1.466  1.00 59.29     0.121 C 
HETATM   32  CAR   D T 601      16.076  -0.590   0.877  1.00 66.32     0.121 C 
HETATM   33  NBI   D T 601      15.219  -0.124  -0.190  1.00 67.85    -0.364 N 
HETATM   34  CAO   D T 601      15.335   1.289  -0.540  1.00 55.13     0.121 C 
HETATM   35  CAS   D T 601      15.040  -1.126  -1.205  1.00 63.26     0.121 C 
HETATM   36  CAQ   D T 601      14.436  -2.359  -0.601  1.00 57.65     0.121 C 
ENDBRANCH  29  30
ENDBRANCH  28  29
ENDBRANCH  27  28
ENDBRANCH  26  27
ENDBRANCH   9  26
TORSDOF 9
ENDMDL
MODEL 5
REMARK VINA RESULT:    -6.711      3.821      9.145
REMARK INTER + INTRA:         -11.192
REMARK INTER:                 -10.184
REMARK INTRA:                  -1.008
REMARK UNBOUND:                -0.950
REMARK  9 active torsions:
REMARK  status: ('A' for Active; 'I' for Inactive)
REMARK    1  A    between atoms: O02_2  and  CAX_24 
REMARK    2  A    between atoms: CAC_3  and  CAM_13 
REMARK    3  A    between atoms: CAC_3  and  NBH_34 
REMARK    4  A    between atoms: CAM_13  and  CAN_14 
REMARK    5  A    between atoms: CAN_14  and  OAW_23 
REMARK    6  A    between atoms: NAU_21  and  CBB_28 
REMARK    7  A    between atoms: NAU_21  and  CBE_31 
REMARK    8  A    between atoms: OAV_22  and  CBC_29 
REMARK    9  A    between atoms: OAW_23  and  CBD_30 
ROOT
HETATM    1  NAD   D T 601      11.781  -9.109   1.689  1.00 53.32    -0.191 NA
HETATM    2  CAG   D T 601      11.675  -8.028   1.355  1.00 54.51     0.104 C 
HETATM    3  CAH   D T 601      12.789  -5.769   0.855  1.00 43.80     0.110 A 
HETATM    4  CAK   D T 601      11.677  -2.507  -0.917  1.00 48.43     0.098 A 
HETATM    5  CAL   D T 601       9.072  -4.045  -0.877  1.00 51.67     0.082 A 
HETATM    6  NAT   D T 601      12.816  -4.468   0.271  1.00 45.65    -0.247 NA
HETATM    7  CBA   D T 601      11.541  -6.600   0.921  1.00 49.31     0.105 A 
HETATM    8  CBC   D T 601       9.147  -2.676  -1.483  1.00 53.00     0.095 A 
HETATM    9  CBD   D T 601      10.433  -1.912  -1.501  1.00 51.16     0.096 A 
HETATM   10  CBE   D T 601      10.237  -6.054   0.343  1.00 54.84     0.090 A 
HETATM   11  CBF   D T 601      11.628  -3.891  -0.297  1.00 47.85     0.064 A 
HETATM   12  CBG   D T 601      10.311  -4.653  -0.281  1.00 51.63     0.017 A 
ENDROOT
BRANCH  10  13
HETATM   13  NAU   D T 601       8.943  -6.777   0.331  1.00 54.01    -0.248 NA
BRANCH  13  14
HETATM   14  CBB   D T 601       8.497  -7.527  -0.833  1.00 54.80     0.072 A 
HETATM   15  CAJ   D T 601       9.035  -7.117  -2.176  1.00 55.55     0.098 A 
HETATM   16  CAX   D T 601       8.597  -7.853  -3.401  1.00 62.83     0.085 A 
HETATM   17  CAY   D T 601       7.629  -9.002  -3.296  1.00 63.63     0.059 A 
HETATM   18 CL1    D T 601       7.092  -9.887  -4.683  1.00 71.73    -0.085 Cl
HETATM   19  CAI   D T 601       7.106  -9.406  -1.968  1.00 58.17     0.079 A 
HETATM   20  CAZ   D T 601       7.527  -8.683  -0.737  1.00 58.48     0.055 A 
HETATM   21 CL2    D T 601       6.855  -9.245   0.764  1.00 88.78    -0.085 Cl
BRANCH  16  22
HETATM   22  O02   D T 601       9.105  -7.442  -4.609  1.00 70.52    -0.331 OA
HETATM   23  C01   D T 601       9.424  -6.095  -4.775  1.00 60.10     0.181 C 
ENDBRANCH  16  22
ENDBRANCH  13  14
ENDBRANCH  10  13
BRANCH   8  24
HETATM   24  OAV   D T 601       7.983  -2.169  -2.005  1.00 53.06    -0.330 OA
HETATM   25  CAA   D T 601       7.641  -2.569  -3.290  1.00 49.21     0.181 C 
ENDBRANCH   8  24
BRANCH   9  26
HETATM   26  OAW   D T 601      10.520  -0.635  -2.067  1.00 56.28    -0.333 OA
BRANCH  26  27
HETATM   27  CAN   D T 601      10.799  -0.521  -3.438  1.00 46.95     0.150 C 
BRANCH  27  28
HETATM   28  CAM   D T 601       9.833   0.488  -4.054  1.00 47.26     0.056 C 
BRANCH  28  29
HETATM   29  CAC   D T 601      10.422   1.010  -5.358  1.00 49.87     0.100 C 
BRANCH  29  30
HETATM   30  NBH   D T 601       9.312   1.260  -6.343  1.00 58.32    -0.365 N 
HETATM   31  CAP   D T 601       8.975   2.599  -6.848  1.00 59.29     0.121 C 
HETATM   32  CAR   D T 601       8.134   2.494  -8.140  1.00 66.32     0.121 C 
HETATM   33  NBI   D T 601       6.996   1.621  -7.952  1.00 67.85    -0.364 N 
HETATM   34  CAO   D T 601       5.912   1.760  -8.919  1.00 55.13     0.121 C 
HETATM   35  CAS   D T 601       7.390   0.330  -7.461  1.00 63.26     0.121 C 
HETATM   36  CAQ   D T 601       8.107   0.481  -6.151  1.00 57.65     0.121 C 
ENDBRANCH  29  30
ENDBRANCH  28  29
ENDBRANCH  27  28
ENDBRANCH  26  27
ENDBRANCH   9  26
TORSDOF 9
ENDMDL
MODEL 6
REMARK VINA RESULT:    -6.654      3.739      8.716
REMARK INTER + INTRA:         -11.105
REMARK INTER:                 -10.000
REMARK INTRA:                  -1.104
REMARK UNBOUND:                -0.950
REMARK  9 active torsions:
REMARK  status: ('A' for Active; 'I' for Inactive)
REMARK    1  A    between atoms: O02_2  and  CAX_24 
REMARK    2  A    between atoms: CAC_3  and  CAM_13 
REMARK    3  A    between atoms: CAC_3  and  NBH_34 
REMARK    4  A    between atoms: CAM_13  and  CAN_14 
REMARK    5  A    between atoms: CAN_14  and  OAW_23 
REMARK    6  A    between atoms: NAU_21  and  CBB_28 
REMARK    7  A    between atoms: NAU_21  and  CBE_31 
REMARK    8  A    between atoms: OAV_22  and  CBC_29 
REMARK    9  A    between atoms: OAW_23  and  CBD_30 
ROOT
HETATM    1  NAD   D T 601      10.503  -4.308   4.615  1.00 53.32    -0.191 NA
HETATM    2  CAG   D T 601      10.459  -4.355   3.481  1.00 54.51     0.104 C 
HETATM    3  CAH   D T 601       9.588  -5.526   1.368  1.00 43.80     0.110 A 
HETATM    4  CAK   D T 601       9.454  -4.623  -2.398  1.00 48.43     0.098 A 
HETATM    5  CAL   D T 601      11.106  -2.327  -1.324  1.00 51.67     0.082 A 
HETATM    6  NAT   D T 601       9.298  -5.577  -0.028  1.00 45.65    -0.247 NA
HETATM    7  CBA   D T 601      10.402  -4.427   1.985  1.00 49.31     0.105 A 
HETATM    8  CBC   D T 601      10.775  -2.418  -2.783  1.00 53.00     0.095 A 
HETATM    9  CBD   D T 601       9.961  -3.555  -3.317  1.00 51.16     0.096 A 
HETATM   10  CBE   D T 601      10.948  -3.305   1.105  1.00 54.84     0.090 A 
HETATM   11  CBF   D T 601       9.776  -4.553  -0.917  1.00 47.85     0.064 A 
HETATM   12  CBG   D T 601      10.609  -3.394  -0.389  1.00 51.63     0.017 A 
ENDROOT
BRANCH  10  13
HETATM   13  NAU   D T 601      11.751  -2.156   1.591  1.00 54.01    -0.248 NA
BRANCH  13  14
HETATM   14  CBB   D T 601      13.128  -1.953   1.166  1.00 54.80     0.072 A 
HETATM   15  CAJ   D T 601      13.527  -0.572   0.726  1.00 55.55     0.098 A 
HETATM   16  CAX   D T 601      14.929  -0.320   0.273  1.00 62.83     0.085 A 
HETATM   17  CAY   D T 601      15.940  -1.436   0.260  1.00 63.63     0.059 A 
HETATM   18 CL1    D T 601      17.575  -1.197  -0.254  1.00 71.73    -0.085 Cl
HETATM   19  CAI   D T 601      15.542  -2.796   0.702  1.00 58.17     0.079 A 
HETATM   20  CAZ   D T 601      14.150  -3.068   1.153  1.00 58.48     0.055 A 
HETATM   21 CL2    D T 601      13.798  -4.695   1.652  1.00 88.78    -0.085 Cl
BRANCH  16  22
HETATM   22  O02   D T 601      15.250   0.953  -0.130  1.00 70.52    -0.331 OA
HETATM   23  C01   D T 601      14.902   1.353  -1.419  1.00 60.10     0.181 C 
ENDBRANCH  16  22
ENDBRANCH  13  14
ENDBRANCH  10  13
BRANCH   8  24
HETATM   24  OAV   D T 601      11.261  -1.419  -3.589  1.00 53.06    -0.330 OA
HETATM   25  CAA   D T 601      10.823  -0.128  -3.326  1.00 49.21     0.181 C 
ENDBRANCH   8  24
BRANCH   9  26
HETATM   26  OAW   D T 601       9.640  -3.652  -4.676  1.00 56.28    -0.333 OA
BRANCH  26  27
HETATM   27  CAN   D T 601       8.288  -3.629  -5.054  1.00 46.95     0.150 C 
BRANCH  27  28
HETATM   28  CAM   D T 601       7.817  -2.177  -5.103  1.00 47.26     0.056 C 
BRANCH  28  29
HETATM   29  CAC   D T 601       7.243  -1.887  -6.483  1.00 49.87     0.100 C 
BRANCH  29  30
HETATM   30  NBH   D T 601       7.533  -0.457  -6.854  1.00 58.32    -0.365 N 
HETATM   31  CAP   D T 601       7.289   0.088  -8.198  1.00 59.29     0.121 C 
HETATM   32  CAR   D T 601       7.249   1.632  -8.156  1.00 66.32     0.121 C 
HETATM   33  NBI   D T 601       8.421   2.166  -7.497  1.00 67.85    -0.364 N 
HETATM   34  CAO   D T 601       8.719   3.572  -7.755  1.00 55.13     0.121 C 
HETATM   35  CAS   D T 601       8.602   1.598  -6.190  1.00 63.26     0.121 C 
HETATM   36  CAQ   D T 601       8.744   0.108  -6.298  1.00 57.65     0.121 C 
ENDBRANCH  29  30
ENDBRANCH  28  29
ENDBRANCH  27  28
ENDBRANCH  26  27
ENDBRANCH   9  26
TORSDOF 9
ENDMDL
MODEL 7
REMARK VINA RESULT:    -6.563     18.372     20.569
REMARK INTER + INTRA:         -10.966
REMARK INTER:                  -8.916
REMARK INTRA:                  -2.050
REMARK UNBOUND:                -0.950
REMARK  9 active torsions:
REMARK  status: ('A' for Active; 'I' for Inactive)
REMARK    1  A    between atoms: O02_2  and  CAX_24 
REMARK    2  A    between atoms: CAC_3  and  CAM_13 
REMARK    3  A    between atoms: CAC_3  and  NBH_34 
REMARK    4  A    between atoms: CAM_13  and  CAN_14 
REMARK    5  A    between atoms: CAN_14  and  OAW_23 
REMARK    6  A    between atoms: NAU_21  and  CBB_28 
REMARK    7  A    between atoms: NAU_21  and  CBE_31 
REMARK    8  A    between atoms: OAV_22  and  CBC_29 
REMARK    9  A    between atoms: OAW_23  and  CBD_30 
ROOT
HETATM    1  NAD   D T 601       5.514  12.790 -10.580  1.00 53.32    -0.191 NA
HETATM    2  CAG   D T 601       4.492  12.298 -10.652  1.00 54.51     0.104 C 
HETATM    3  CAH   D T 601       2.189  11.864  -9.603  1.00 43.80     0.110 A 
HETATM    4  CAK   D T 601      -1.168  10.411 -10.884  1.00 48.43     0.098 A 
HETATM    5  CAL   D T 601       0.619   9.897 -13.271  1.00 51.67     0.082 A 
HETATM    6  NAT   D T 601       0.821  11.463  -9.663  1.00 45.65    -0.247 NA
HETATM    7  CBA   D T 601       3.146  11.644 -10.738  1.00 49.31     0.105 A 
HETATM    8  CBC   D T 601      -0.824   9.495 -13.292  1.00 53.00     0.095 A 
HETATM    9  CBD   D T 601      -1.709   9.746 -12.111  1.00 51.16     0.096 A 
HETATM   10  CBE   D T 601       2.659  10.972 -12.019  1.00 54.84     0.090 A 
HETATM   11  CBF   D T 601       0.291  10.828 -10.838  1.00 47.85     0.064 A 
HETATM   12  CBG   D T 601       1.180  10.561 -12.045  1.00 51.63     0.017 A 
ENDROOT
BRANCH  10  13
HETATM   13  NAU   D T 601       3.496  10.711 -13.215  1.00 54.01    -0.248 NA
BRANCH  13  14
HETATM   14  CBB   D T 601       4.058  11.795 -14.005  1.00 54.80     0.072 A 
HETATM   15  CAJ   D T 601       3.100  12.718 -14.707  1.00 55.55     0.098 A 
HETATM   16  CAX   D T 601       3.633  13.840 -15.538  1.00 62.83     0.085 A 
HETATM   17  CAY   D T 601       5.117  14.054 -15.670  1.00 63.63     0.059 A 
HETATM   18 CL1    D T 601       5.785  15.338 -16.618  1.00 71.73    -0.085 Cl
HETATM   19  CAI   D T 601       6.059  13.145 -14.970  1.00 58.17     0.079 A 
HETATM   20  CAZ   D T 601       5.547  12.020 -14.142  1.00 58.48     0.055 A 
HETATM   21 CL2    D T 601       6.739  11.022 -13.364  1.00 88.78    -0.085 Cl
BRANCH  16  22
HETATM   22  O02   D T 601       2.725  14.653 -16.170  1.00 70.52    -0.331 OA
HETATM   23  C01   D T 601       1.516  14.103 -16.592  1.00 60.10     0.181 C 
ENDBRANCH  16  22
ENDBRANCH  13  14
ENDBRANCH  10  13
BRANCH   8  24
HETATM   24  OAV   D T 601      -1.279   8.886 -14.435  1.00 53.06    -0.330 OA
HETATM   25  CAA   D T 601      -1.847   9.705 -15.402  1.00 49.21     0.181 C 
ENDBRANCH   8  24
BRANCH   9  26
HETATM   26  OAW   D T 601      -3.061   9.380 -12.117  1.00 56.28    -0.333 OA
BRANCH  26  27
HETATM   27  CAN   D T 601      -3.765   9.377 -10.902  1.00 46.95     0.150 C 
BRANCH  27  28
HETATM   28  CAM   D T 601      -5.081  10.126 -11.095  1.00 47.26     0.056 C 
BRANCH  28  29
HETATM   29  CAC   D T 601      -5.083  11.364 -10.208  1.00 49.87     0.100 C 
BRANCH  29  30
HETATM   30  NBH   D T 601      -4.104  12.369 -10.752  1.00 58.32    -0.365 N 
HETATM   31  CAP   D T 601      -3.521  13.445  -9.935  1.00 59.29     0.121 C 
HETATM   32  CAR   D T 601      -2.253  14.011 -10.611  1.00 66.32     0.121 C 
HETATM   33  NBI   D T 601      -2.515  14.379 -11.986  1.00 67.85    -0.364 N 
HETATM   34  CAO   D T 601      -1.560  15.295 -12.601  1.00 55.13     0.121 C 
HETATM   35  CAS   D T 601      -3.079  13.287 -12.731  1.00 63.26     0.121 C 
HETATM   36  CAQ   D T 601      -4.364  12.847 -12.093  1.00 57.65     0.121 C 
ENDBRANCH  29  30
ENDBRANCH  28  29
ENDBRANCH  27  28
ENDBRANCH  26  27
ENDBRANCH   9  26
TORSDOF 9
ENDMDL
MODEL 8
REMARK VINA RESULT:    -6.524      4.225      9.813
REMARK INTER + INTRA:         -10.905
REMARK INTER:                  -9.386
REMARK INTRA:                  -1.519
REMARK UNBOUND:                -0.950
REMARK  9 active torsions:
REMARK  status: ('A' for Active; 'I' for Inactive)
REMARK    1  A    between atoms: O02_2  and  CAX_24 
REMARK    2  A    between atoms: CAC_3  and  CAM_13 
REMARK    3  A    between atoms: CAC_3  and  NBH_34 
REMARK    4  A    between atoms: CAM_13  and  CAN_14 
REMARK    5  A    between atoms: CAN_14  and  OAW_23 
REMARK    6  A    between atoms: NAU_21  and  CBB_28 
REMARK    7  A    between atoms: NAU_21  and  CBE_31 
REMARK    8  A    between atoms: OAV_22  and  CBC_29 
REMARK    9  A    between atoms: OAW_23  and  CBD_30 
ROOT
HETATM    1  NAD   D T 601      10.255  -8.514   5.139  1.00 53.32    -0.191 NA
HETATM    2  CAG   D T 601      10.254  -8.027   4.112  1.00 54.51     0.104 C 
HETATM    3  CAH   D T 601      10.472  -8.279   1.567  1.00 43.80     0.110 A 
HETATM    4  CAK   D T 601       9.724  -6.002  -1.479  1.00 48.43     0.098 A 
HETATM    5  CAL   D T 601       9.248  -4.071   0.801  1.00 51.67     0.082 A 
HETATM    6  NAT   D T 601      10.301  -7.822   0.226  1.00 45.65    -0.247 NA
HETATM    7  CBA   D T 601      10.261  -7.389   2.756  1.00 49.31     0.105 A 
HETATM    8  CBC   D T 601       9.078  -3.635  -0.622  1.00 53.00     0.095 A 
HETATM    9  CBD   D T 601       9.316  -4.587  -1.752  1.00 51.16     0.096 A 
HETATM   10  CBE   D T 601       9.842  -5.935   2.549  1.00 54.84     0.090 A 
HETATM   11  CBF   D T 601       9.904  -6.468  -0.046  1.00 47.85     0.064 A 
HETATM   12  CBG   D T 601       9.664  -5.486   1.092  1.00 51.63     0.017 A 
ENDROOT
BRANCH  10  13
HETATM   13  NAU   D T 601       9.587  -4.960   3.637  1.00 54.01    -0.248 NA
BRANCH  13  14
HETATM   14  CBB   D T 601      10.674  -4.251   4.296  1.00 54.80     0.072 A 
HETATM   15  CAJ   D T 601      11.549  -3.370   3.449  1.00 55.55     0.098 A 
HETATM   16  CAX   D T 601      12.683  -2.630   4.082  1.00 62.83     0.085 A 
HETATM   17  CAY   D T 601      12.948  -2.758   5.559  1.00 63.63     0.059 A 
HETATM   18 CL1    D T 601      14.245  -1.922   6.341  1.00 71.73    -0.085 Cl
HETATM   19  CAI   D T 601      12.076  -3.623   6.392  1.00 58.17     0.079 A 
HETATM   20  CAZ   D T 601      10.945  -4.371   5.778  1.00 58.48     0.055 A 
HETATM   21 CL2    D T 601       9.989  -5.351   6.849  1.00 88.78    -0.085 Cl
BRANCH  16  22
HETATM   22  O02   D T 601      13.464  -1.844   3.272  1.00 70.52    -0.331 OA
HETATM   23  C01   D T 601      14.516  -2.439   2.578  1.00 60.10     0.181 C 
ENDBRANCH  16  22
ENDBRANCH  13  14
ENDBRANCH  10  13
BRANCH   8  24
HETATM   24  OAV   D T 601       8.704  -2.330  -0.827  1.00 53.06    -0.330 OA
HETATM   25  CAA   D T 601       9.638  -1.351  -0.511  1.00 49.21     0.181 C 
ENDBRANCH   8  24
BRANCH   9  26
HETATM   26  OAW   D T 601       9.156  -4.196  -3.087  1.00 56.28    -0.333 OA
BRANCH  26  27
HETATM   27  CAN   D T 601      10.289  -3.804  -3.816  1.00 46.95     0.150 C 
BRANCH  27  28
HETATM   28  CAM   D T 601      10.283  -2.282  -3.951  1.00 47.26     0.056 C 
BRANCH  28  29
HETATM   29  CAC   D T 601       8.898  -1.828  -4.392  1.00 49.87     0.100 C 
BRANCH  29  30
HETATM   30  NBH   D T 601       9.021  -0.561  -5.196  1.00 58.32    -0.365 N 
HETATM   31  CAP   D T 601       9.983   0.503  -4.874  1.00 59.29     0.121 C 
HETATM   32  CAR   D T 601      10.192   1.430  -6.091  1.00 66.32     0.121 C 
HETATM   33  NBI   D T 601       8.926   1.904  -6.608  1.00 67.85    -0.364 N 
HETATM   34  CAO   D T 601       8.982   3.089  -7.460  1.00 55.13     0.121 C 
HETATM   35  CAS   D T 601       8.033   0.819  -6.906  1.00 63.26     0.121 C 
HETATM   36  CAQ   D T 601       7.778   0.015  -5.666  1.00 57.65     0.121 C 
ENDBRANCH  29  30
ENDBRANCH  28  29
ENDBRANCH  27  28
ENDBRANCH  26  27
ENDBRANCH   9  26
TORSDOF 9
ENDMDL
MODEL 9
REMARK VINA RESULT:    -6.492      3.936      9.740
REMARK INTER + INTRA:         -10.857
REMARK INTER:                  -9.666
REMARK INTRA:                  -1.191
REMARK UNBOUND:                -0.950
REMARK  9 active torsions:
REMARK  status: ('A' for Active; 'I' for Inactive)
REMARK    1  A    between atoms: O02_2  and  CAX_24 
REMARK    2  A    between atoms: CAC_3  and  CAM_13 
REMARK    3  A    between atoms: CAC_3  and  NBH_34 
REMARK    4  A    between atoms: CAM_13  and  CAN_14 
REMARK    5  A    between atoms: CAN_14  and  OAW_23 
REMARK    6  A    between atoms: NAU_21  and  CBB_28 
REMARK    7  A    between atoms: NAU_21  and  CBE_31 
REMARK    8  A    between atoms: OAV_22  and  CBC_29 
REMARK    9  A    between atoms: OAW_23  and  CBD_30 
ROOT
HETATM    1  NAD   D T 601       9.820  -4.721   4.637  1.00 53.32    -0.191 NA
HETATM    2  CAG   D T 601       9.913  -4.684   3.505  1.00 54.51     0.104 C 
HETATM    3  CAH   D T 601       9.392  -5.747   1.227  1.00 43.80     0.110 A 
HETATM    4  CAK   D T 601       9.629  -4.569  -2.457  1.00 48.43     0.098 A 
HETATM    5  CAL   D T 601      10.954  -2.251  -1.035  1.00 51.67     0.082 A 
HETATM    6  NAT   D T 601       9.272  -5.711  -0.194  1.00 45.65    -0.247 NA
HETATM    7  CBA   D T 601      10.037  -4.644   2.012  1.00 49.31     0.105 A 
HETATM    8  CBC   D T 601      10.805  -2.253  -2.526  1.00 53.00     0.095 A 
HETATM    9  CBD   D T 601      10.153  -3.400  -3.232  1.00 51.16     0.096 A 
HETATM   10  CBE   D T 601      10.592  -3.421   1.285  1.00 54.84     0.090 A 
HETATM   11  CBF   D T 601       9.768  -4.591  -0.946  1.00 47.85     0.064 A 
HETATM   12  CBG   D T 601      10.438  -3.419  -0.243  1.00 51.63     0.017 A 
ENDROOT
BRANCH  10  13
HETATM   13  NAU   D T 601      11.238  -2.260   1.942  1.00 54.01    -0.248 NA
BRANCH  13  14
HETATM   14  CBB   D T 601      12.355  -2.425   2.860  1.00 54.80     0.072 A 
HETATM   15  CAJ   D T 601      12.158  -1.991   4.285  1.00 55.55     0.098 A 
HETATM   16  CAX   D T 601      13.281  -2.133   5.261  1.00 62.83     0.085 A 
HETATM   17  CAY   D T 601      14.601  -2.714   4.826  1.00 63.63     0.059 A 
HETATM   18 CL1    D T 601      15.932  -2.902   5.915  1.00 71.73    -0.085 Cl
HETATM   19  CAI   D T 601      14.788  -3.148   3.419  1.00 58.17     0.079 A 
HETATM   20  CAZ   D T 601      13.682  -3.010   2.432  1.00 58.48     0.055 A 
HETATM   21 CL2    D T 601      14.011  -3.554   0.815  1.00 88.78    -0.085 Cl
BRANCH  16  22
HETATM   22  O02   D T 601      13.064  -1.716   6.551  1.00 70.52    -0.331 OA
HETATM   23  C01   D T 601      12.356  -2.551   7.412  1.00 60.10     0.181 C 
ENDBRANCH  16  22
ENDBRANCH  13  14
ENDBRANCH  10  13
BRANCH   8  24
HETATM   24  OAV   D T 601      11.302  -1.163  -3.197  1.00 53.06    -0.330 OA
HETATM   25  CAA   D T 601      10.445  -0.082  -3.366  1.00 49.21     0.181 C 
ENDBRANCH   8  24
BRANCH   9  26
HETATM   26  OAW   D T 601      10.002  -3.415  -4.624  1.00 56.28    -0.333 OA
BRANCH  26  27
HETATM   27  CAN   D T 601       8.720  -3.609  -5.162  1.00 46.95     0.150 C 
BRANCH  27  28
HETATM   28  CAM   D T 601       7.930  -2.309  -5.032  1.00 47.26     0.056 C 
BRANCH  28  29
HETATM   29  CAC   D T 601       7.243  -2.010  -6.358  1.00 49.87     0.100 C 
BRANCH  29  30
HETATM   30  NBH   D T 601       7.523  -0.585  -6.755  1.00 58.32    -0.365 N 
HETATM   31  CAP   D T 601       7.283  -0.069  -8.111  1.00 59.29     0.121 C 
HETATM   32  CAR   D T 601       7.228   1.475  -8.100  1.00 66.32     0.121 C 
HETATM   33  NBI   D T 601       8.390   2.033  -7.444  1.00 67.85    -0.364 N 
HETATM   34  CAO   D T 601       8.678   3.436  -7.728  1.00 55.13     0.121 C 
HETATM   35  CAS   D T 601       8.569   1.492  -6.125  1.00 63.26     0.121 C 
HETATM   36  CAQ   D T 601       8.725   0.002  -6.203  1.00 57.65     0.121 C 
ENDBRANCH  29  30
ENDBRANCH  28  29
ENDBRANCH  27  28
ENDBRANCH  26  27
ENDBRANCH   9  26
TORSDOF 9
ENDMDL
