MODEL 1
REMARK VINA RESULT:    -7.211      0.000      0.000
REMARK INTER + INTRA:         -12.301
REMARK INTER:                 -11.005
REMARK INTRA:                  -1.295
REMARK UNBOUND:                -1.295
REMARK  9 active torsions:
REMARK  status: ('A' for Active; 'I' for Inactive)
REMARK    1  A    between atoms: O02_2  and  CAX_24 
REMARK    2  A    between atoms: CAC_3  and  CAM_13 
REMARK    3  A    between atoms: CAC_3  and  NBH_34 
REMARK    4  A    between atoms: CAM_13  and  CAN_14 
REMARK    5  A    between atoms: CAN_14  and  OAW_23 
REMARK    6  A    between atoms: NAU_21  and  CBB_28 
REMARK    7  A    between atoms: NAU_21  and  CBE_31 
REMARK    8  A    between atoms: OAV_22  and  CBC_29 
REMARK    9  A    between atoms: OAW_23  and  CBD_30 
ROOT
HETATM    1  NAD   D T 601       9.605   8.189   5.734  1.00 53.32    -0.191 NA
HETATM    2  CAG   D T 601       8.613   7.868   6.187  1.00 54.51     0.104 C 
HETATM    3  CAH   D T 601       6.048   7.970   6.144  1.00 43.80     0.110 A 
HETATM    4  CAK   D T 601       3.203   5.969   7.853  1.00 48.43     0.098 A 
HETATM    5  CAL   D T 601       5.626   4.809   9.244  1.00 51.67     0.082 A 
HETATM    6  NAT   D T 601       4.751   7.491   6.495  1.00 45.65    -0.247 NA
HETATM    7  CBA   D T 601       7.303   7.454   6.785  1.00 49.31     0.105 A 
HETATM    8  CBC   D T 601       4.247   4.333   9.581  1.00 53.00     0.095 A 
HETATM    9  CBD   D T 601       3.047   4.907   8.896  1.00 51.16     0.096 A 
HETATM   10  CBE   D T 601       7.214   6.370   7.856  1.00 54.84     0.090 A 
HETATM   11  CBF   D T 601       4.591   6.469   7.493  1.00 47.85     0.064 A 
HETATM   12  CBG   D T 601       5.801   5.879   8.202  1.00 51.63     0.017 A 
ENDROOT
BRANCH  10  13
HETATM   13  NAU   D T 601       8.375   5.767   8.555  1.00 54.01    -0.248 NA
BRANCH  13  14
HETATM   14  CBB   D T 601       8.862   4.438   8.218  1.00 54.80     0.072 A 
HETATM   15  CAJ   D T 601       9.087   4.123   6.765  1.00 55.55     0.098 A 
HETATM   16  CAX   D T 601       9.577   2.767   6.372  1.00 62.83     0.085 A 
HETATM   17  CAY   D T 601       9.853   1.722   7.420  1.00 63.63     0.059 A 
HETATM   18 CL1    D T 601      10.424   0.139   7.019  1.00 71.73    -0.085 Cl
HETATM   19  CAI   D T 601       9.636   2.040   8.854  1.00 58.17     0.079 A 
HETATM   20  CAZ   D T 601       9.144   3.383   9.264  1.00 58.48     0.055 A 
HETATM   21 CL2    D T 601       8.930   3.645  10.969  1.00 88.78    -0.085 Cl
BRANCH  16  22
HETATM   22  O02   D T 601       9.760   2.517   5.034  1.00 70.52    -0.331 OA
HETATM   23  C01   D T 601       8.755   1.851   4.337  1.00 60.10     0.181 C 
ENDBRANCH  16  22
ENDBRANCH  13  14
ENDBRANCH  10  13
BRANCH   8  24
HETATM   24  OAV   D T 601       4.149   3.360  10.545  1.00 53.06    -0.330 OA
HETATM   25  CAA   D T 601       5.272   3.135  11.331  1.00 49.21     0.181 C 
ENDBRANCH   8  24
BRANCH   9  26
HETATM   26  OAW   D T 601       1.750   4.469   9.197  1.00 56.28    -0.333 OA
BRANCH  26  27
HETATM   27  CAN   D T 601       0.850   5.375   9.780  1.00 46.95     0.150 C 
BRANCH  27  28
HETATM   28  CAM   D T 601       0.075   4.656  10.882  1.00 47.26     0.056 C 
BRANCH  28  29
HETATM   29  CAC   D T 601      -1.359   4.434  10.417  1.00 49.87     0.100 C 
BRANCH  29  30
HETATM   30  NBH   D T 601      -2.013   3.399  11.295  1.00 58.32    -0.365 N 
HETATM   31  CAP   D T 601      -1.278   2.274  11.890  1.00 59.29     0.121 C 
HETATM   32  CAR   D T 601      -2.078   1.669  13.065  1.00 66.32     0.121 C 
HETATM   33  NBI   D T 601      -3.434   1.355  12.667  1.00 67.85    -0.364 N 
HETATM   34  CAO   D T 601      -4.153   0.414  13.520  1.00 55.13     0.121 C 
HETATM   35  CAS   D T 601      -4.097   2.496  12.096  1.00 63.26     0.121 C 
HETATM   36  CAQ   D T 601      -3.338   2.976  10.895  1.00 57.65     0.121 C 
ENDBRANCH  29  30
ENDBRANCH  28  29
ENDBRANCH  27  28
ENDBRANCH  26  27
ENDBRANCH   9  26
TORSDOF 9
ENDMDL
MODEL 2
REMARK VINA RESULT:    -7.112      1.840      2.353
REMARK INTER + INTRA:         -12.149
REMARK INTER:                 -10.857
REMARK INTRA:                  -1.292
REMARK UNBOUND:                -1.295
REMARK  9 active torsions:
REMARK  status: ('A' for Active; 'I' for Inactive)
REMARK    1  A    between atoms: O02_2  and  CAX_24 
REMARK    2  A    between atoms: CAC_3  and  CAM_13 
REMARK    3  A    between atoms: CAC_3  and  NBH_34 
REMARK    4  A    between atoms: CAM_13  and  CAN_14 
REMARK    5  A    between atoms: CAN_14  and  OAW_23 
REMARK    6  A    between atoms: NAU_21  and  CBB_28 
REMARK    7  A    between atoms: NAU_21  and  CBE_31 
REMARK    8  A    between atoms: OAV_22  and  CBC_29 
REMARK    9  A    between atoms: OAW_23  and  CBD_30 
ROOT
HETATM    1  NAD   D T 601       7.245   8.894   5.178  1.00 53.32    -0.191 NA
HETATM    2  CAG   D T 601       6.540   8.316   5.857  1.00 54.51     0.104 C 
HETATM    3  CAH   D T 601       4.160   7.492   6.352  1.00 43.80     0.110 A 
HETATM    4  CAK   D T 601       2.616   4.905   8.791  1.00 48.43     0.098 A 
HETATM    5  CAL   D T 601       5.493   4.917   9.726  1.00 51.67     0.082 A 
HETATM    6  NAT   D T 601       3.220   6.645   7.012  1.00 45.65    -0.247 NA
HETATM    7  CBA   D T 601       5.605   7.563   6.753  1.00 49.31     0.105 A 
HETATM    8  CBC   D T 601       4.475   4.041  10.387  1.00 53.00     0.095 A 
HETATM    9  CBD   D T 601       3.051   4.035   9.928  1.00 51.16     0.096 A 
HETATM   10  CBE   D T 601       6.114   6.702   7.905  1.00 54.84     0.090 A 
HETATM   11  CBF   D T 601       3.629   5.802   8.103  1.00 47.85     0.064 A 
HETATM   12  CBG   D T 601       5.073   5.801   8.584  1.00 51.63     0.017 A 
ENDROOT
BRANCH  10  13
HETATM   13  NAU   D T 601       7.515   6.669   8.389  1.00 54.01    -0.248 NA
BRANCH  13  14
HETATM   14  CBB   D T 601       8.568   6.005   7.634  1.00 54.80     0.072 A 
HETATM   15  CAJ   D T 601       8.403   4.539   7.345  1.00 55.55     0.098 A 
HETATM   16  CAX   D T 601       9.465   3.814   6.583  1.00 62.83     0.085 A 
HETATM   17  CAY   D T 601      10.690   4.544   6.099  1.00 63.63     0.059 A 
HETATM   18 CL1    D T 601      11.946   3.752   5.210  1.00 71.73    -0.085 Cl
HETATM   19  CAI   D T 601      10.845   5.993   6.381  1.00 58.17     0.079 A 
HETATM   20  CAZ   D T 601       9.800   6.730   7.143  1.00 58.48     0.055 A 
HETATM   21 CL2    D T 601      10.085   8.424   7.412  1.00 88.78    -0.085 Cl
BRANCH  16  22
HETATM   22  O02   D T 601       9.280   2.474   6.348  1.00 70.52    -0.331 OA
HETATM   23  C01   D T 601       9.962   1.557   7.145  1.00 60.10     0.181 C 
ENDBRANCH  16  22
ENDBRANCH  13  14
ENDBRANCH  10  13
BRANCH   8  24
HETATM   24  OAV   D T 601       4.916   3.261  11.428  1.00 53.06    -0.330 OA
HETATM   25  CAA   D T 601       6.288   3.195  11.630  1.00 49.21     0.181 C 
ENDBRANCH   8  24
BRANCH   9  26
HETATM   26  OAW   D T 601       2.087   3.218  10.535  1.00 56.28    -0.333 OA
BRANCH  26  27
HETATM   27  CAN   D T 601       0.770   3.257  10.053  1.00 46.95     0.150 C 
BRANCH  27  28
HETATM   28  CAM   D T 601      -0.188   3.272  11.243  1.00 47.26     0.056 C 
BRANCH  28  29
HETATM   29  CAC   D T 601      -1.622   3.269  10.728  1.00 49.87     0.100 C 
BRANCH  29  30
HETATM   30  NBH   D T 601      -2.477   2.431  11.641  1.00 58.32    -0.365 N 
HETATM   31  CAP   D T 601      -3.849   2.802  12.018  1.00 59.29     0.121 C 
HETATM   32  CAR   D T 601      -4.608   1.573  12.565  1.00 66.32     0.121 C 
HETATM   33  NBI   D T 601      -3.856   0.919  13.614  1.00 67.85    -0.364 N 
HETATM   34  CAO   D T 601      -4.613   0.030  14.490  1.00 55.13     0.121 C 
HETATM   35  CAS   D T 601      -2.527   0.580  13.182  1.00 63.26     0.121 C 
HETATM   36  CAQ   D T 601      -1.798   1.822  12.764  1.00 57.65     0.121 C 
ENDBRANCH  29  30
ENDBRANCH  28  29
ENDBRANCH  27  28
ENDBRANCH  26  27
ENDBRANCH   9  26
TORSDOF 9
ENDMDL
MODEL 3
REMARK VINA RESULT:    -6.681      4.683      8.227
REMARK INTER + INTRA:         -11.491
REMARK INTER:                  -9.926
REMARK INTRA:                  -1.565
REMARK UNBOUND:                -1.295
REMARK  9 active torsions:
REMARK  status: ('A' for Active; 'I' for Inactive)
REMARK    1  A    between atoms: O02_2  and  CAX_24 
REMARK    2  A    between atoms: CAC_3  and  CAM_13 
REMARK    3  A    between atoms: CAC_3  and  NBH_34 
REMARK    4  A    between atoms: CAM_13  and  CAN_14 
REMARK    5  A    between atoms: CAN_14  and  OAW_23 
REMARK    6  A    between atoms: NAU_21  and  CBB_28 
REMARK    7  A    between atoms: NAU_21  and  CBE_31 
REMARK    8  A    between atoms: OAV_22  and  CBC_29 
REMARK    9  A    between atoms: OAW_23  and  CBD_30 
ROOT
HETATM    1  NAD   D T 601       3.661   7.663   6.490  1.00 53.32    -0.191 NA
HETATM    2  CAG   D T 601       4.186   6.880   7.124  1.00 54.51     0.104 C 
HETATM    3  CAH   D T 601       5.986   5.059   7.311  1.00 43.80     0.110 A 
HETATM    4  CAK   D T 601       7.605   3.106  10.242  1.00 48.43     0.098 A 
HETATM    5  CAL   D T 601       5.424   4.613  11.701  1.00 51.67     0.082 A 
HETATM    6  NAT   D T 601       6.843   4.191   8.050  1.00 45.65    -0.247 NA
HETATM    7  CBA   D T 601       4.878   5.841   7.953  1.00 49.31     0.105 A 
HETATM    8  CBC   D T 601       6.347   3.693  12.439  1.00 53.00     0.095 A 
HETATM    9  CBD   D T 601       7.425   2.945  11.719  1.00 51.16     0.096 A 
HETATM   10  CBE   D T 601       4.640   5.722   9.456  1.00 54.84     0.090 A 
HETATM   11  CBF   D T 601       6.681   4.032   9.470  1.00 47.85     0.064 A 
HETATM   12  CBG   D T 601       5.587   4.782  10.216  1.00 51.63     0.017 A 
ENDROOT
BRANCH  10  13
HETATM   13  NAU   D T 601       3.592   6.449  10.212  1.00 54.01    -0.248 NA
BRANCH  13  14
HETATM   14  CBB   D T 601       2.207   6.003  10.219  1.00 54.80     0.072 A 
HETATM   15  CAJ   D T 601       1.948   4.526  10.113  1.00 55.55     0.098 A 
HETATM   16  CAX   D T 601       0.540   4.023  10.105  1.00 62.83     0.085 A 
HETATM   17  CAY   D T 601      -0.614   4.984  10.210  1.00 63.63     0.059 A 
HETATM   18 CL1    D T 601      -2.261   4.453  10.209  1.00 71.73    -0.085 Cl
HETATM   19  CAI   D T 601      -0.353   6.441  10.321  1.00 58.17     0.079 A 
HETATM   20  CAZ   D T 601       1.042   6.960  10.325  1.00 58.48     0.055 A 
HETATM   21 CL2    D T 601       1.228   8.683  10.464  1.00 88.78    -0.085 Cl
BRANCH  16  22
HETATM   22  O02   D T 601       0.347   2.668   9.998  1.00 70.52    -0.331 OA
HETATM   23  C01   D T 601       0.238   1.915  11.165  1.00 60.10     0.181 C 
ENDBRANCH  16  22
ENDBRANCH  13  14
ENDBRANCH  10  13
BRANCH   8  24
HETATM   24  OAV   D T 601       6.146   3.573  13.792  1.00 53.06    -0.330 OA
HETATM   25  CAA   D T 601       6.212   4.738  14.546  1.00 49.21     0.181 C 
ENDBRANCH   8  24
BRANCH   9  26
HETATM   26  OAW   D T 601       8.299   2.085  12.396  1.00 56.28    -0.333 OA
BRANCH  26  27
HETATM   27  CAN   D T 601       8.012   0.711  12.417  1.00 46.95     0.150 C 
BRANCH  27  28
HETATM   28  CAM   D T 601       8.520   0.124  13.733  1.00 47.26     0.056 C 
BRANCH  28  29
HETATM   29  CAC   D T 601       8.481   1.204  14.807  1.00 49.87     0.100 C 
BRANCH  29  30
HETATM   30  NBH   D T 601       7.391   0.884  15.796  1.00 58.32    -0.365 N 
HETATM   31  CAP   D T 601       6.070   0.379  15.397  1.00 59.29     0.121 C 
HETATM   32  CAR   D T 601       5.354  -0.270  16.602  1.00 66.32     0.121 C 
HETATM   33  NBI   D T 601       5.334   0.624  17.741  1.00 67.85    -0.364 N 
HETATM   34  CAO   D T 601       4.350   0.324  18.776  1.00 55.13     0.121 C 
HETATM   35  CAS   D T 601       6.655   1.079  18.081  1.00 63.26     0.121 C 
HETATM   36  CAQ   D T 601       7.261   1.796  16.912  1.00 57.65     0.121 C 
ENDBRANCH  29  30
ENDBRANCH  28  29
ENDBRANCH  27  28
ENDBRANCH  26  27
ENDBRANCH   9  26
TORSDOF 9
ENDMDL
MODEL 4
REMARK VINA RESULT:    -6.654      3.537      4.825
REMARK INTER + INTRA:         -11.450
REMARK INTER:                 -10.130
REMARK INTRA:                  -1.321
REMARK UNBOUND:                -1.295
REMARK  9 active torsions:
REMARK  status: ('A' for Active; 'I' for Inactive)
REMARK    1  A    between atoms: O02_2  and  CAX_24 
REMARK    2  A    between atoms: CAC_3  and  CAM_13 
REMARK    3  A    between atoms: CAC_3  and  NBH_34 
REMARK    4  A    between atoms: CAM_13  and  CAN_14 
REMARK    5  A    between atoms: CAN_14  and  OAW_23 
REMARK    6  A    between atoms: NAU_21  and  CBB_28 
REMARK    7  A    between atoms: NAU_21  and  CBE_31 
REMARK    8  A    between atoms: OAV_22  and  CBC_29 
REMARK    9  A    between atoms: OAW_23  and  CBD_30 
ROOT
HETATM    1  NAD   D T 601      10.068   4.582  12.118  1.00 53.32    -0.191 NA
HETATM    2  CAG   D T 601       9.032   4.461  11.667  1.00 54.51     0.104 C 
HETATM    3  CAH   D T 601       7.186   2.900  10.802  1.00 43.80     0.110 A 
HETATM    4  CAK   D T 601       3.449   3.337   9.872  1.00 48.43     0.098 A 
HETATM    5  CAL   D T 601       4.250   6.213  10.367  1.00 51.67     0.082 A 
HETATM    6  NAT   D T 601       5.843   2.610  10.421  1.00 45.65    -0.247 NA
HETATM    7  CBA   D T 601       7.670   4.296  11.064  1.00 49.31     0.105 A 
HETATM    8  CBC   D T 601       2.850   5.864   9.968  1.00 53.00     0.095 A 
HETATM    9  CBD   D T 601       2.452   4.443   9.720  1.00 51.16     0.096 A 
HETATM   10  CBE   D T 601       6.704   5.470  10.926  1.00 54.84     0.090 A 
HETATM   11  CBF   D T 601       4.876   3.664  10.276  1.00 47.85     0.064 A 
HETATM   12  CBG   D T 601       5.266   5.115  10.520  1.00 51.63     0.017 A 
ENDROOT
BRANCH  10  13
HETATM   13  NAU   D T 601       7.051   6.891  11.169  1.00 54.01    -0.248 NA
BRANCH  13  14
HETATM   14  CBB   D T 601       7.535   7.752  10.102  1.00 54.80     0.072 A 
HETATM   15  CAJ   D T 601       7.556   7.192   8.706  1.00 55.55     0.098 A 
HETATM   16  CAX   D T 601       8.056   8.038   7.580  1.00 62.83     0.085 A 
HETATM   17  CAY   D T 601       8.529   9.444   7.833  1.00 63.63     0.059 A 
HETATM   18 CL1    D T 601       9.113  10.465   6.564  1.00 71.73    -0.085 Cl
HETATM   19  CAI   D T 601       8.500   9.996   9.211  1.00 58.17     0.079 A 
HETATM   20  CAZ   D T 601       8.010   9.166  10.346  1.00 58.48     0.055 A 
HETATM   21 CL2    D T 601       8.018   9.915  11.915  1.00 88.78    -0.085 Cl
BRANCH  16  22
HETATM   22  O02   D T 601       8.067   7.485   6.323  1.00 70.52    -0.331 OA
HETATM   23  C01   D T 601       7.044   7.820   5.439  1.00 60.10     0.181 C 
ENDBRANCH  16  22
ENDBRANCH  13  14
ENDBRANCH  10  13
BRANCH   8  24
HETATM   24  OAV   D T 601       1.968   6.909   9.837  1.00 53.06    -0.330 OA
HETATM   25  CAA   D T 601       1.312   7.329  10.988  1.00 49.21     0.181 C 
ENDBRANCH   8  24
BRANCH   9  26
HETATM   26  OAW   D T 601       1.145   4.101   9.350  1.00 56.28    -0.333 OA
BRANCH  26  27
HETATM   27  CAN   D T 601       0.200   3.857  10.359  1.00 46.95     0.150 C 
BRANCH  27  28
HETATM   28  CAM   D T 601      -0.137   2.367  10.366  1.00 47.26     0.056 C 
BRANCH  28  29
HETATM   29  CAC   D T 601       0.161   1.796  11.747  1.00 49.87     0.100 C 
BRANCH  29  30
HETATM   30  NBH   D T 601      -1.128   1.380  12.403  1.00 58.32    -0.365 N 
HETATM   31  CAP   D T 601      -2.093   2.341  12.958  1.00 59.29     0.121 C 
HETATM   32  CAR   D T 601      -3.474   1.675  13.141  1.00 66.32     0.121 C 
HETATM   33  NBI   D T 601      -3.363   0.440  13.888  1.00 67.85    -0.364 N 
HETATM   34  CAO   D T 601      -4.595  -0.062  14.488  1.00 55.13     0.121 C 
HETATM   35  CAS   D T 601      -2.408  -0.457  13.294  1.00 63.26     0.121 C 
HETATM   36  CAQ   D T 601      -1.061   0.200  13.239  1.00 57.65     0.121 C 
ENDBRANCH  29  30
ENDBRANCH  28  29
ENDBRANCH  27  28
ENDBRANCH  26  27
ENDBRANCH   9  26
TORSDOF 9
ENDMDL
MODEL 5
REMARK VINA RESULT:    -6.368      4.736      9.207
REMARK INTER + INTRA:         -11.014
REMARK INTER:                  -9.712
REMARK INTRA:                  -1.302
REMARK UNBOUND:                -1.295
REMARK  9 active torsions:
REMARK  status: ('A' for Active; 'I' for Inactive)
REMARK    1  A    between atoms: O02_2  and  CAX_24 
REMARK    2  A    between atoms: CAC_3  and  CAM_13 
REMARK    3  A    between atoms: CAC_3  and  NBH_34 
REMARK    4  A    between atoms: CAM_13  and  CAN_14 
REMARK    5  A    between atoms: CAN_14  and  OAW_23 
REMARK    6  A    between atoms: NAU_21  and  CBB_28 
REMARK    7  A    between atoms: NAU_21  and  CBE_31 
REMARK    8  A    between atoms: OAV_22  and  CBC_29 
REMARK    9  A    between atoms: OAW_23  and  CBD_30 
ROOT
HETATM    1  NAD   D T 601       3.965   8.187   7.042  1.00 53.32    -0.191 NA
HETATM    2  CAG   D T 601       4.379   7.258   7.549  1.00 54.51     0.104 C 
HETATM    3  CAH   D T 601       6.027   5.290   7.509  1.00 43.80     0.110 A 
HETATM    4  CAK   D T 601       7.252   2.696  10.116  1.00 48.43     0.098 A 
HETATM    5  CAL   D T 601       5.064   4.082  11.680  1.00 51.67     0.082 A 
HETATM    6  NAT   D T 601       6.756   4.230   8.126  1.00 45.65    -0.247 NA
HETATM    7  CBA   D T 601       4.924   6.028   8.209  1.00 49.31     0.105 A 
HETATM    8  CBC   D T 601       5.856   2.967  12.291  1.00 53.00     0.095 A 
HETATM    9  CBD   D T 601       6.937   2.279  11.518  1.00 51.16     0.096 A 
HETATM   10  CBE   D T 601       4.552   5.652   9.641  1.00 54.84     0.090 A 
HETATM   11  CBF   D T 601       6.464   3.824   9.474  1.00 47.85     0.064 A 
HETATM   12  CBG   D T 601       5.364   4.511  10.271  1.00 51.63     0.017 A 
ENDROOT
BRANCH  10  13
HETATM   13  NAU   D T 601       3.496   6.311  10.447  1.00 54.01    -0.248 NA
BRANCH  13  14
HETATM   14  CBB   D T 601       2.089   5.986  10.274  1.00 54.80     0.072 A 
HETATM   15  CAJ   D T 601       1.727   4.543  10.050  1.00 55.55     0.098 A 
HETATM   16  CAX   D T 601       0.294   4.165   9.856  1.00 62.83     0.085 A 
HETATM   17  CAY   D T 601      -0.784   5.215   9.891  1.00 63.63     0.059 A 
HETATM   18 CL1    D T 601      -2.457   4.829   9.676  1.00 71.73    -0.085 Cl
HETATM   19  CAI   D T 601      -0.423   6.636  10.119  1.00 58.17     0.079 A 
HETATM   20  CAZ   D T 601       0.999   7.033  10.309  1.00 58.48     0.055 A 
HETATM   21 CL2    D T 601       1.305   8.724  10.573  1.00 88.78    -0.085 Cl
BRANCH  16  22
HETATM   22  O02   D T 601       0.007   2.838   9.645  1.00 70.52    -0.331 OA
HETATM   23  C01   D T 601      -0.154   2.008  10.752  1.00 60.10     0.181 C 
ENDBRANCH  16  22
ENDBRANCH  13  14
ENDBRANCH  10  13
BRANCH   8  24
HETATM   24  OAV   D T 601       5.533   2.614  13.578  1.00 53.06    -0.330 OA
HETATM   25  CAA   D T 601       6.068   3.390  14.598  1.00 49.21     0.181 C 
ENDBRANCH   8  24
BRANCH   9  26
HETATM   26  OAW   D T 601       7.689   1.237  12.077  1.00 56.28    -0.333 OA
BRANCH  26  27
HETATM   27  CAN   D T 601       8.134   0.202  11.240  1.00 46.95     0.150 C 
BRANCH  27  28
HETATM   28  CAM   D T 601       9.640   0.353  11.031  1.00 47.26     0.056 C 
BRANCH  28  29
HETATM   29  CAC   D T 601      10.350   0.139  12.362  1.00 49.87     0.100 C 
BRANCH  29  30
HETATM   30  NBH   D T 601      10.003  -1.224  12.899  1.00 58.32    -0.365 N 
HETATM   31  CAP   D T 601       9.977  -1.537  14.336  1.00 59.29     0.121 C 
HETATM   32  CAR   D T 601       9.170  -2.829  14.592  1.00 66.32     0.121 C 
HETATM   33  NBI   D T 601       9.638  -3.911  13.752  1.00 67.85    -0.364 N 
HETATM   34  CAO   D T 601       9.270  -5.259  14.176  1.00 55.13     0.121 C 
HETATM   35  CAS   D T 601       9.637  -3.544  12.362  1.00 63.26     0.121 C 
HETATM   36  CAQ   D T 601      10.520  -2.350  12.152  1.00 57.65     0.121 C 
ENDBRANCH  29  30
ENDBRANCH  28  29
ENDBRANCH  27  28
ENDBRANCH  26  27
ENDBRANCH   9  26
TORSDOF 9
ENDMDL
MODEL 6
REMARK VINA RESULT:    -6.292      2.557      3.628
REMARK INTER + INTRA:         -10.898
REMARK INTER:                  -9.505
REMARK INTRA:                  -1.393
REMARK UNBOUND:                -1.295
REMARK  9 active torsions:
REMARK  status: ('A' for Active; 'I' for Inactive)
REMARK    1  A    between atoms: O02_2  and  CAX_24 
REMARK    2  A    between atoms: CAC_3  and  CAM_13 
REMARK    3  A    between atoms: CAC_3  and  NBH_34 
REMARK    4  A    between atoms: CAM_13  and  CAN_14 
REMARK    5  A    between atoms: CAN_14  and  OAW_23 
REMARK    6  A    between atoms: NAU_21  and  CBB_28 
REMARK    7  A    between atoms: NAU_21  and  CBE_31 
REMARK    8  A    between atoms: OAV_22  and  CBC_29 
REMARK    9  A    between atoms: OAW_23  and  CBD_30 
ROOT
HETATM    1  NAD   D T 601       9.720   8.303   5.474  1.00 53.32    -0.191 NA
HETATM    2  CAG   D T 601       8.720   8.042   5.945  1.00 54.51     0.104 C 
HETATM    3  CAH   D T 601       6.195   8.477   6.111  1.00 43.80     0.110 A 
HETATM    4  CAK   D T 601       3.197   6.604   7.699  1.00 48.43     0.098 A 
HETATM    5  CAL   D T 601       5.508   4.931   8.707  1.00 51.67     0.082 A 
HETATM    6  NAT   D T 601       4.865   8.117   6.481  1.00 45.65    -0.247 NA
HETATM    7  CBA   D T 601       7.399   7.707   6.569  1.00 49.31     0.105 A 
HETATM    8  CBC   D T 601       4.096   4.587   9.069  1.00 53.00     0.095 A 
HETATM    9  CBD   D T 601       2.951   5.414   8.574  1.00 51.16     0.096 A 
HETATM   10  CBE   D T 601       7.219   6.483   7.463  1.00 54.84     0.090 A 
HETATM   11  CBF   D T 601       4.619   6.974   7.318  1.00 47.85     0.064 A 
HETATM   12  CBG   D T 601       5.772   6.126   7.833  1.00 51.63     0.017 A 
ENDROOT
BRANCH  10  13
HETATM   13  NAU   D T 601       8.321   5.630   7.970  1.00 54.01    -0.248 NA
BRANCH  13  14
HETATM   14  CBB   D T 601       9.181   6.062   9.060  1.00 54.80     0.072 A 
HETATM   15  CAJ   D T 601       8.535   6.356  10.386  1.00 55.55     0.098 A 
HETATM   16  CAX   D T 601       9.380   6.813  11.532  1.00 62.83     0.085 A 
HETATM   17  CAY   D T 601      10.867   6.973  11.368  1.00 63.63     0.059 A 
HETATM   18 CL1    D T 601      11.889   7.496  12.663  1.00 71.73    -0.085 Cl
HETATM   19  CAI   D T 601      11.502   6.675  10.059  1.00 58.17     0.079 A 
HETATM   20  CAZ   D T 601      10.676   6.223   8.905  1.00 58.48     0.055 A 
HETATM   21 CL2    D T 601      11.525   5.900   7.423  1.00 88.78    -0.085 Cl
BRANCH  16  22
HETATM   22  O02   D T 601       8.749   7.080  12.723  1.00 70.52    -0.331 OA
HETATM   23  C01   D T 601       8.528   6.029  13.610  1.00 60.10     0.181 C 
ENDBRANCH  16  22
ENDBRANCH  13  14
ENDBRANCH  10  13
BRANCH   8  24
HETATM   24  OAV   D T 601       3.916   3.489   9.875  1.00 53.06    -0.330 OA
HETATM   25  CAA   D T 601       4.732   3.388  10.995  1.00 49.21     0.181 C 
ENDBRANCH   8  24
BRANCH   9  26
HETATM   26  OAW   D T 601       1.625   5.102   8.900  1.00 56.28    -0.333 OA
BRANCH  26  27
HETATM   27  CAN   D T 601       1.044   5.714  10.022  1.00 46.95     0.150 C 
BRANCH  27  28
HETATM   28  CAM   D T 601       0.294   4.654  10.825  1.00 47.26     0.056 C 
BRANCH  28  29
HETATM   29  CAC   D T 601      -1.050   4.384  10.160  1.00 49.87     0.100 C 
BRANCH  29  30
HETATM   30  NBH   D T 601      -1.873   3.485  11.045  1.00 58.32    -0.365 N 
HETATM   31  CAP   D T 601      -3.297   3.721  11.324  1.00 59.29     0.121 C 
HETATM   32  CAR   D T 601      -3.961   2.435  11.863  1.00 66.32     0.121 C 
HETATM   33  NBI   D T 601      -3.215   1.890  12.978  1.00 67.85    -0.364 N 
HETATM   34  CAO   D T 601      -3.932   0.950  13.834  1.00 55.13     0.121 C 
HETATM   35  CAS   D T 601      -1.833   1.681  12.640  1.00 63.26     0.121 C 
HETATM   36  CAQ   D T 601      -1.209   2.980  12.227  1.00 57.65     0.121 C 
ENDBRANCH  29  30
ENDBRANCH  28  29
ENDBRANCH  27  28
ENDBRANCH  26  27
ENDBRANCH   9  26
TORSDOF 9
ENDMDL
MODEL 7
REMARK VINA RESULT:    -6.244      2.495      4.447
REMARK INTER + INTRA:         -10.825
REMARK INTER:                  -9.753
REMARK INTRA:                  -1.073
REMARK UNBOUND:                -1.295
REMARK  9 active torsions:
REMARK  status: ('A' for Active; 'I' for Inactive)
REMARK    1  A    between atoms: O02_2  and  CAX_24 
REMARK    2  A    between atoms: CAC_3  and  CAM_13 
REMARK    3  A    between atoms: CAC_3  and  NBH_34 
REMARK    4  A    between atoms: CAM_13  and  CAN_14 
REMARK    5  A    between atoms: CAN_14  and  OAW_23 
REMARK    6  A    between atoms: NAU_21  and  CBB_28 
REMARK    7  A    between atoms: NAU_21  and  CBE_31 
REMARK    8  A    between atoms: OAV_22  and  CBC_29 
REMARK    9  A    between atoms: OAW_23  and  CBD_30 
ROOT
HETATM    1  NAD   D T 601       9.926   0.951  13.931  1.00 53.32    -0.191 NA
HETATM    2  CAG   D T 601       9.057   1.330  13.305  1.00 54.51     0.104 C 
HETATM    3  CAH   D T 601       6.535   1.758  13.088  1.00 43.80     0.110 A 
HETATM    4  CAK   D T 601       4.303   3.752  10.625  1.00 48.43     0.098 A 
HETATM    5  CAL   D T 601       6.996   3.986   9.265  1.00 51.67     0.082 A 
HETATM    6  NAT   D T 601       5.398   2.374  12.485  1.00 45.65    -0.247 NA
HETATM    7  CBA   D T 601       7.906   1.821  12.481  1.00 49.31     0.105 A 
HETATM    8  CBC   D T 601       5.777   4.619   8.669  1.00 53.00     0.095 A 
HETATM    9  CBD   D T 601       4.444   4.503   9.338  1.00 51.16     0.096 A 
HETATM   10  CBE   D T 601       8.119   2.571  11.168  1.00 54.84     0.090 A 
HETATM   11  CBF   D T 601       5.523   3.101  11.251  1.00 47.85     0.064 A 
HETATM   12  CBG   D T 601       6.872   3.224  10.555  1.00 51.63     0.017 A 
ENDROOT
BRANCH  10  13
HETATM   13  NAU   D T 601       9.421   2.719  10.474  1.00 54.01    -0.248 NA
BRANCH  13  14
HETATM   14  CBB   D T 601       9.672   2.101   9.181  1.00 54.80     0.072 A 
HETATM   15  CAJ   D T 601       9.946   3.008   8.014  1.00 55.55     0.098 A 
HETATM   16  CAX   D T 601      10.199   2.417   6.665  1.00 62.83     0.085 A 
HETATM   17  CAY   D T 601      10.186   0.924   6.471  1.00 63.63     0.059 A 
HETATM   18 CL1    D T 601      10.476   0.189   4.931  1.00 71.73    -0.085 Cl
HETATM   19  CAI   D T 601       9.922   0.032   7.628  1.00 58.17     0.079 A 
HETATM   20  CAZ   D T 601       9.663   0.603   8.978  1.00 58.48     0.055 A 
HETATM   21 CL2    D T 601       9.369  -0.535  10.259  1.00 88.78    -0.085 Cl
BRANCH  16  22
HETATM   22  O02   D T 601      10.436   3.280   5.623  1.00 70.52    -0.331 OA
HETATM   23  C01   D T 601      11.755   3.601   5.311  1.00 60.10     0.181 C 
ENDBRANCH  16  22
ENDBRANCH  13  14
ENDBRANCH  10  13
BRANCH   8  24
HETATM   24  OAV   D T 601       5.950   5.296   7.486  1.00 53.06    -0.330 OA
HETATM   25  CAA   D T 601       7.090   6.083   7.371  1.00 49.21     0.181 C 
ENDBRANCH   8  24
BRANCH   9  26
HETATM   26  OAW   D T 601       3.296   5.094   8.794  1.00 56.28    -0.333 OA
BRANCH  26  27
HETATM   27  CAN   D T 601       2.768   6.238   9.412  1.00 46.95     0.150 C 
BRANCH  27  28
HETATM   28  CAM   D T 601       1.408   5.889  10.013  1.00 47.26     0.056 C 
BRANCH  28  29
HETATM   29  CAC   D T 601       0.829   4.691   9.271  1.00 49.87     0.100 C 
BRANCH  29  30
HETATM   30  NBH   D T 601      -0.089   3.930  10.191  1.00 58.32    -0.365 N 
HETATM   31  CAP   D T 601      -1.273   4.534  10.820  1.00 59.29     0.121 C 
HETATM   32  CAR   D T 601      -2.237   3.435  11.318  1.00 66.32     0.121 C 
HETATM   33  NBI   D T 601      -1.547   2.469  12.146  1.00 67.85    -0.364 N 
HETATM   34  CAO   D T 601      -2.387   1.644  13.008  1.00 55.13     0.121 C 
HETATM   35  CAS   D T 601      -0.402   1.916  11.474  1.00 63.26     0.121 C 
HETATM   36  CAQ   D T 601       0.552   3.013  11.109  1.00 57.65     0.121 C 
ENDBRANCH  29  30
ENDBRANCH  28  29
ENDBRANCH  27  28
ENDBRANCH  26  27
ENDBRANCH   9  26
TORSDOF 9
ENDMDL
MODEL 8
REMARK VINA RESULT:    -6.239      4.271      9.376
REMARK INTER + INTRA:         -10.817
REMARK INTER:                  -9.101
REMARK INTRA:                  -1.716
REMARK UNBOUND:                -1.295
REMARK  9 active torsions:
REMARK  status: ('A' for Active; 'I' for Inactive)
REMARK    1  A    between atoms: O02_2  and  CAX_24 
REMARK    2  A    between atoms: CAC_3  and  CAM_13 
REMARK    3  A    between atoms: CAC_3  and  NBH_34 
REMARK    4  A    between atoms: CAM_13  and  CAN_14 
REMARK    5  A    between atoms: CAN_14  and  OAW_23 
REMARK    6  A    between atoms: NAU_21  and  CBB_28 
REMARK    7  A    between atoms: NAU_21  and  CBE_31 
REMARK    8  A    between atoms: OAV_22  and  CBC_29 
REMARK    9  A    between atoms: OAW_23  and  CBD_30 
ROOT
HETATM    1  NAD   D T 601       3.574   7.559   6.589  1.00 53.32    -0.191 NA
HETATM    2  CAG   D T 601       4.122   6.805   7.238  1.00 54.51     0.104 C 
HETATM    3  CAH   D T 601       5.973   5.040   7.459  1.00 43.80     0.110 A 
HETATM    4  CAK   D T 601       7.653   3.196  10.425  1.00 48.43     0.098 A 
HETATM    5  CAL   D T 601       5.433   4.670  11.858  1.00 51.67     0.082 A 
HETATM    6  NAT   D T 601       6.856   4.212   8.214  1.00 45.65    -0.247 NA
HETATM    7  CBA   D T 601       4.844   5.803   8.087  1.00 49.31     0.105 A 
HETATM    8  CBC   D T 601       6.384   3.793  12.613  1.00 53.00     0.095 A 
HETATM    9  CBD   D T 601       7.481   3.061  11.906  1.00 51.16     0.096 A 
HETATM   10  CBE   D T 601       4.613   5.710   9.592  1.00 54.84     0.090 A 
HETATM   11  CBF   D T 601       6.702   4.079   9.637  1.00 47.85     0.064 A 
HETATM   12  CBG   D T 601       5.588   4.813  10.369  1.00 51.63     0.017 A 
ENDROOT
BRANCH  10  13
HETATM   13  NAU   D T 601       3.546   6.422  10.336  1.00 54.01    -0.248 NA
BRANCH  13  14
HETATM   14  CBB   D T 601       2.155   6.001  10.266  1.00 54.80     0.072 A 
HETATM   15  CAJ   D T 601       1.876   4.530  10.127  1.00 55.55     0.098 A 
HETATM   16  CAX   D T 601       0.462   4.054  10.041  1.00 62.83     0.085 A 
HETATM   17  CAY   D T 601      -0.679   5.034  10.100  1.00 63.63     0.059 A 
HETATM   18 CL1    D T 601      -2.333   4.534  10.008  1.00 71.73    -0.085 Cl
HETATM   19  CAI   D T 601      -0.399   6.484  10.245  1.00 58.17     0.079 A 
HETATM   20  CAZ   D T 601       1.003   6.978  10.327  1.00 58.48     0.055 A 
HETATM   21 CL2    D T 601       1.213   8.695  10.498  1.00 88.78    -0.085 Cl
BRANCH  16  22
HETATM   22  O02   D T 601       0.251   2.703   9.905  1.00 70.52    -0.331 OA
HETATM   23  C01   D T 601       0.105   1.932  11.056  1.00 60.10     0.181 C 
ENDBRANCH  16  22
ENDBRANCH  13  14
ENDBRANCH  10  13
BRANCH   8  24
HETATM   24  OAV   D T 601       6.188   3.696  13.969  1.00 53.06    -0.330 OA
HETATM   25  CAA   D T 601       6.829   4.634  14.768  1.00 49.21     0.181 C 
ENDBRANCH   8  24
BRANCH   9  26
HETATM   26  OAW   D T 601       8.380   2.241  12.599  1.00 56.28    -0.333 OA
BRANCH  26  27
HETATM   27  CAN   D T 601       7.971   0.949  12.966  1.00 46.95     0.150 C 
BRANCH  27  28
HETATM   28  CAM   D T 601       8.376  -0.026  11.862  1.00 47.26     0.056 C 
BRANCH  28  29
HETATM   29  CAC   D T 601       9.896  -0.102  11.799  1.00 49.87     0.100 C 
BRANCH  29  30
HETATM   30  NBH   D T 601      10.364   0.384  10.452  1.00 58.32    -0.365 N 
HETATM   31  CAP   D T 601      11.064   1.663  10.261  1.00 59.29     0.121 C 
HETATM   32  CAR   D T 601      11.800   1.677   8.903  1.00 66.32     0.121 C 
HETATM   33  NBI   D T 601      10.907   1.316   7.822  1.00 67.85    -0.364 N 
HETATM   34  CAO   D T 601      11.339   1.691   6.479  1.00 55.13     0.121 C 
HETATM   35  CAS   D T 601      10.257   0.057   8.068  1.00 63.26     0.121 C 
HETATM   36  CAQ   D T 601       9.470   0.133   9.342  1.00 57.65     0.121 C 
ENDBRANCH  29  30
ENDBRANCH  28  29
ENDBRANCH  27  28
ENDBRANCH  26  27
ENDBRANCH   9  26
TORSDOF 9
ENDMDL
MODEL 9
REMARK VINA RESULT:    -6.048      3.677      5.721
REMARK INTER + INTRA:         -10.525
REMARK INTER:                  -9.263
REMARK INTRA:                  -1.262
REMARK UNBOUND:                -1.295
REMARK  9 active torsions:
REMARK  status: ('A' for Active; 'I' for Inactive)
REMARK    1  A    between atoms: O02_2  and  CAX_24 
REMARK    2  A    between atoms: CAC_3  and  CAM_13 
REMARK    3  A    between atoms: CAC_3  and  NBH_34 
REMARK    4  A    between atoms: CAM_13  and  CAN_14 
REMARK    5  A    between atoms: CAN_14  and  OAW_23 
REMARK    6  A    between atoms: NAU_21  and  CBB_28 
REMARK    7  A    between atoms: NAU_21  and  CBE_31 
REMARK    8  A    between atoms: OAV_22  and  CBC_29 
REMARK    9  A    between atoms: OAW_23  and  CBD_30 
ROOT
HETATM    1  NAD   D T 601      10.576   3.702  11.812  1.00 53.32    -0.191 NA
HETATM    2  CAG   D T 601       9.503   3.764  11.441  1.00 54.51     0.104 C 
HETATM    3  CAH   D T 601       7.205   2.649  11.186  1.00 43.80     0.110 A 
HETATM    4  CAK   D T 601       3.663   3.880  10.208  1.00 48.43     0.098 A 
HETATM    5  CAL   D T 601       5.294   6.373   9.680  1.00 51.67     0.082 A 
HETATM    6  NAT   D T 601       5.800   2.676  10.943  1.00 45.65    -0.247 NA
HETATM    7  CBA   D T 601       8.090   3.837  10.948  1.00 49.31     0.105 A 
HETATM    8  CBC   D T 601       3.816   6.358   9.441  1.00 53.00     0.095 A 
HETATM    9  CBD   D T 601       3.007   5.126   9.699  1.00 51.16     0.096 A 
HETATM   10  CBE   D T 601       7.486   5.139  10.430  1.00 54.84     0.090 A 
HETATM   11  CBF   D T 601       5.160   3.868  10.458  1.00 47.85     0.064 A 
HETATM   12  CBG   D T 601       5.970   5.128  10.186  1.00 51.63     0.017 A 
ENDROOT
BRANCH  10  13
HETATM   13  NAU   D T 601       8.245   6.385  10.168  1.00 54.01    -0.248 NA
BRANCH  13  14
HETATM   14  CBB   D T 601       8.360   7.435  11.169  1.00 54.80     0.072 A 
HETATM   15  CAJ   D T 601       8.897   7.055  12.521  1.00 55.55     0.098 A 
HETATM   16  CAX   D T 601       9.021   8.099  13.584  1.00 62.83     0.085 A 
HETATM   17  CAY   D T 601       8.620   9.523  13.306  1.00 63.63     0.059 A 
HETATM   18 CL1    D T 601       8.748  10.769  14.500  1.00 71.73    -0.085 Cl
HETATM   19  CAI   D T 601       8.097   9.894  11.967  1.00 58.17     0.079 A 
HETATM   20  CAZ   D T 601       7.961   8.867  10.898  1.00 58.48     0.055 A 
HETATM   21 CL2    D T 601       7.340   9.415   9.370  1.00 88.78    -0.085 Cl
BRANCH  16  22
HETATM   22  O02   D T 601       9.508   7.709  14.808  1.00 70.52    -0.331 OA
HETATM   23  C01   D T 601       8.665   7.009  15.667  1.00 60.10     0.181 C 
ENDBRANCH  16  22
ENDBRANCH  13  14
ENDBRANCH  10  13
BRANCH   8  24
HETATM   24  OAV   D T 601       3.256   7.521   8.972  1.00 53.06    -0.330 OA
HETATM   25  CAA   D T 601       3.997   8.253   8.053  1.00 49.21     0.181 C 
ENDBRANCH   8  24
BRANCH   9  26
HETATM   26  OAW   D T 601       1.623   5.098   9.485  1.00 56.28    -0.333 OA
BRANCH  26  27
HETATM   27  CAN   D T 601       0.767   5.376  10.562  1.00 46.95     0.150 C 
BRANCH  27  28
HETATM   28  CAM   D T 601       0.077   4.082  10.987  1.00 47.26     0.056 C 
BRANCH  28  29
HETATM   29  CAC   D T 601      -1.432   4.288  10.950  1.00 49.87     0.100 C 
BRANCH  29  30
HETATM   30  NBH   D T 601      -2.105   3.186  11.726  1.00 58.32    -0.365 N 
HETATM   31  CAP   D T 601      -1.411   1.958  12.140  1.00 59.29     0.121 C 
HETATM   32  CAR   D T 601      -2.191   1.253  13.271  1.00 66.32     0.121 C 
HETATM   33  NBI   D T 601      -3.579   1.063  12.908  1.00 67.85    -0.364 N 
HETATM   34  CAO   D T 601      -4.313   0.061  13.676  1.00 55.13     0.121 C 
HETATM   35  CAS   D T 601      -4.200   2.299  12.517  1.00 63.26     0.121 C 
HETATM   36  CAQ   D T 601      -3.469   2.886  11.347  1.00 57.65     0.121 C 
ENDBRANCH  29  30
ENDBRANCH  28  29
ENDBRANCH  27  28
ENDBRANCH  26  27
ENDBRANCH   9  26
TORSDOF 9
ENDMDL
