MODEL 1
REMARK VINA RESULT:    -7.775      0.000      0.000
REMARK INTER + INTRA:         -12.794
REMARK INTER:                 -11.866
REMARK INTRA:                  -0.928
REMARK UNBOUND:                -0.928
REMARK  9 active torsions:
REMARK  status: ('A' for Active; 'I' for Inactive)
REMARK    1  A    between atoms: O02_2  and  CAX_24 
REMARK    2  A    between atoms: CAC_3  and  CAM_13 
REMARK    3  A    between atoms: CAC_3  and  NBH_34 
REMARK    4  A    between atoms: CAM_13  and  CAN_14 
REMARK    5  A    between atoms: CAN_14  and  OAW_23 
REMARK    6  A    between atoms: NAU_21  and  CBB_28 
REMARK    7  A    between atoms: NAU_21  and  CBE_31 
REMARK    8  A    between atoms: OAV_22  and  CBC_29 
REMARK    9  A    between atoms: OAW_23  and  CBD_30 
ROOT
HETATM    1  NAD   D T 601       6.115   4.453   9.093  1.00 53.32    -0.191 NA
HETATM    2  CAG   D T 601       5.916   5.207   8.268  1.00 54.51     0.104 C 
HETATM    3  CAH   D T 601       6.547   6.161   5.969  1.00 43.80     0.110 A 
HETATM    4  CAK   D T 601       4.855   8.571   3.451  1.00 48.43     0.098 A 
HETATM    5  CAL   D T 601       2.956   8.781   5.797  1.00 51.67     0.082 A 
HETATM    6  NAT   D T 601       6.281   6.922   4.792  1.00 45.65    -0.247 NA
HETATM    7  CBA   D T 601       5.662   6.207   7.180  1.00 49.31     0.105 A 
HETATM    8  CBC   D T 601       2.712   9.558   4.540  1.00 53.00     0.095 A 
HETATM    9  CBD   D T 601       3.651   9.460   3.380  1.00 51.16     0.096 A 
HETATM   10  CBE   D T 601       4.417   7.091   7.174  1.00 54.84     0.090 A 
HETATM   11  CBF   D T 601       5.125   7.773   4.713  1.00 47.85     0.064 A 
HETATM   12  CBG   D T 601       4.164   7.888   5.887  1.00 51.63     0.017 A 
ENDROOT
BRANCH  10  13
HETATM   13  NAU   D T 601       3.456   7.214   8.296  1.00 54.01    -0.248 NA
BRANCH  13  14
HETATM   14  CBB   D T 601       2.252   6.400   8.363  1.00 54.80     0.072 A 
HETATM   15  CAJ   D T 601       1.193   6.631   7.321  1.00 55.55     0.098 A 
HETATM   16  CAX   D T 601      -0.066   5.826   7.358  1.00 62.83     0.085 A 
HETATM   17  CAY   D T 601      -0.272   4.781   8.424  1.00 63.63     0.059 A 
HETATM   18 CL1    D T 601      -1.708   3.820   8.509  1.00 71.73    -0.085 Cl
HETATM   19  CAI   D T 601       0.779   4.552   9.445  1.00 58.17     0.079 A 
HETATM   20  CAZ   D T 601       2.037   5.348   9.426  1.00 58.48     0.055 A 
HETATM   21 CL2    D T 601       3.200   4.991  10.668  1.00 88.78    -0.085 Cl
BRANCH  16  22
HETATM   22  O02   D T 601      -1.012   6.075   6.395  1.00 70.52    -0.331 OA
HETATM   23  C01   D T 601      -0.984   7.301   5.734  1.00 60.10     0.181 C 
ENDBRANCH  16  22
ENDBRANCH  13  14
ENDBRANCH  10  13
BRANCH   8  24
HETATM   24  OAV   D T 601       1.599  10.361   4.519  1.00 53.06    -0.330 OA
HETATM   25  CAA   D T 601       0.876  10.470   5.700  1.00 49.21     0.181 C 
ENDBRANCH   8  24
BRANCH   9  26
HETATM   26  OAW   D T 601       3.434  10.177   2.196  1.00 56.28    -0.333 OA
BRANCH  26  27
HETATM   27  CAN   D T 601       4.284  11.252   1.893  1.00 46.95     0.150 C 
BRANCH  27  28
HETATM   28  CAM   D T 601       3.845  11.864   0.564  1.00 47.26     0.056 C 
BRANCH  28  29
HETATM   29  CAC   D T 601       2.754  10.996  -0.048  1.00 49.87     0.100 C 
BRANCH  29  30
HETATM   30  NBH   D T 601       1.812  11.864  -0.839  1.00 58.32    -0.365 N 
HETATM   31  CAP   D T 601       2.236  12.645  -2.011  1.00 59.29     0.121 C 
HETATM   32  CAR   D T 601       1.012  13.054  -2.859  1.00 66.32     0.121 C 
HETATM   33  NBI   D T 601       0.002  13.696  -2.043  1.00 67.85    -0.364 N 
HETATM   34  CAO   D T 601      -0.990  14.493  -2.758  1.00 55.13     0.121 C 
HETATM   35  CAS   D T 601      -0.370  12.881  -0.919  1.00 63.26     0.121 C 
HETATM   36  CAQ   D T 601       0.835  12.605  -0.071  1.00 57.65     0.121 C 
ENDBRANCH  29  30
ENDBRANCH  28  29
ENDBRANCH  27  28
ENDBRANCH  26  27
ENDBRANCH   9  26
TORSDOF 9
ENDMDL
MODEL 2
REMARK VINA RESULT:    -7.727      2.193      3.848
REMARK INTER + INTRA:         -12.721
REMARK INTER:                 -11.926
REMARK INTRA:                  -0.796
REMARK UNBOUND:                -0.928
REMARK  9 active torsions:
REMARK  status: ('A' for Active; 'I' for Inactive)
REMARK    1  A    between atoms: O02_2  and  CAX_24 
REMARK    2  A    between atoms: CAC_3  and  CAM_13 
REMARK    3  A    between atoms: CAC_3  and  NBH_34 
REMARK    4  A    between atoms: CAM_13  and  CAN_14 
REMARK    5  A    between atoms: CAN_14  and  OAW_23 
REMARK    6  A    between atoms: NAU_21  and  CBB_28 
REMARK    7  A    between atoms: NAU_21  and  CBE_31 
REMARK    8  A    between atoms: OAV_22  and  CBC_29 
REMARK    9  A    between atoms: OAW_23  and  CBD_30 
ROOT
HETATM    1  NAD   D T 601       2.066   3.238  11.096  1.00 53.32    -0.191 NA
HETATM    2  CAG   D T 601       2.738   3.802  10.375  1.00 54.51     0.104 C 
HETATM    3  CAH   D T 601       4.974   3.951   9.120  1.00 43.80     0.110 A 
HETATM    4  CAK   D T 601       6.331   6.106   6.200  1.00 48.43     0.098 A 
HETATM    5  CAL   D T 601       3.654   7.430   6.683  1.00 51.67     0.082 A 
HETATM    6  NAT   D T 601       5.823   4.460   8.093  1.00 45.65    -0.247 NA
HETATM    7  CBA   D T 601       3.633   4.548   9.430  1.00 49.31     0.105 A 
HETATM    8  CBC   D T 601       4.575   7.929   5.612  1.00 53.00     0.095 A 
HETATM    9  CBD   D T 601       5.901   7.279   5.374  1.00 51.16     0.096 A 
HETATM   10  CBE   D T 601       3.132   5.745   8.625  1.00 54.84     0.090 A 
HETATM   11  CBF   D T 601       5.417   5.581   7.291  1.00 47.85     0.064 A 
HETATM   12  CBG   D T 601       4.073   6.257   7.526  1.00 51.63     0.017 A 
ENDROOT
BRANCH  10  13
HETATM   13  NAU   D T 601       1.825   6.415   8.820  1.00 54.01    -0.248 NA
BRANCH  13  14
HETATM   14  CBB   D T 601       0.818   6.447   7.770  1.00 54.80     0.072 A 
HETATM   15  CAJ   D T 601       0.750   7.675   6.904  1.00 55.55     0.098 A 
HETATM   16  CAX   D T 601      -0.276   7.756   5.821  1.00 62.83     0.085 A 
HETATM   17  CAY   D T 601      -1.232   6.616   5.588  1.00 63.63     0.059 A 
HETATM   18 CL1    D T 601      -2.435   6.659   4.345  1.00 71.73    -0.085 Cl
HETATM   19  CAI   D T 601      -1.156   5.404   6.440  1.00 58.17     0.079 A 
HETATM   20  CAZ   D T 601      -0.144   5.307   7.528  1.00 58.48     0.055 A 
HETATM   21 CL2    D T 601      -0.144   3.841   8.461  1.00 88.78    -0.085 Cl
BRANCH  16  22
HETATM   22  O02   D T 601      -0.311   8.898   5.059  1.00 70.52    -0.331 OA
HETATM   23  C01   D T 601       0.373  10.024   5.514  1.00 60.10     0.181 C 
ENDBRANCH  16  22
ENDBRANCH  13  14
ENDBRANCH  10  13
BRANCH   8  24
HETATM   24  OAV   D T 601       4.143   9.007   4.880  1.00 53.06    -0.330 OA
HETATM   25  CAA   D T 601       3.377   8.737   3.752  1.00 49.21     0.181 C 
ENDBRANCH   8  24
BRANCH   9  26
HETATM   26  OAW   D T 601       6.772   7.731   4.373  1.00 56.28    -0.333 OA
BRANCH  26  27
HETATM   27  CAN   D T 601       7.361   8.997   4.513  1.00 46.95     0.150 C 
BRANCH  27  28
HETATM   28  CAM   D T 601       7.247   9.740   3.183  1.00 47.26     0.056 C 
BRANCH  28  29
HETATM   29  CAC   D T 601       6.593  11.095   3.424  1.00 49.87     0.100 C 
BRANCH  29  30
HETATM   30  NBH   D T 601       5.445  11.271   2.466  1.00 58.32    -0.365 N 
HETATM   31  CAP   D T 601       5.605  11.214   1.005  1.00 59.29     0.121 C 
HETATM   32  CAR   D T 601       4.241  10.975   0.322  1.00 66.32     0.121 C 
HETATM   33  NBI   D T 601       3.253  11.929   0.780  1.00 67.85    -0.364 N 
HETATM   34  CAO   D T 601       2.075  12.092  -0.067  1.00 55.13     0.121 C 
HETATM   35  CAS   D T 601       3.143  11.933   2.213  1.00 63.26     0.121 C 
HETATM   36  CAQ   D T 601       4.469  12.278   2.823  1.00 57.65     0.121 C 
ENDBRANCH  29  30
ENDBRANCH  28  29
ENDBRANCH  27  28
ENDBRANCH  26  27
ENDBRANCH   9  26
TORSDOF 9
ENDMDL
MODEL 3
REMARK VINA RESULT:    -7.472      4.379      6.881
REMARK INTER + INTRA:         -12.332
REMARK INTER:                 -11.271
REMARK INTRA:                  -1.061
REMARK UNBOUND:                -0.928
REMARK  9 active torsions:
REMARK  status: ('A' for Active; 'I' for Inactive)
REMARK    1  A    between atoms: O02_2  and  CAX_24 
REMARK    2  A    between atoms: CAC_3  and  CAM_13 
REMARK    3  A    between atoms: CAC_3  and  NBH_34 
REMARK    4  A    between atoms: CAM_13  and  CAN_14 
REMARK    5  A    between atoms: CAN_14  and  OAW_23 
REMARK    6  A    between atoms: NAU_21  and  CBB_28 
REMARK    7  A    between atoms: NAU_21  and  CBE_31 
REMARK    8  A    between atoms: OAV_22  and  CBC_29 
REMARK    9  A    between atoms: OAW_23  and  CBD_30 
ROOT
HETATM    1  NAD   D T 601       3.379   3.600  11.259  1.00 53.32    -0.191 NA
HETATM    2  CAG   D T 601       3.871   4.172  10.409  1.00 54.51     0.104 C 
HETATM    3  CAH   D T 601       5.870   4.451   8.822  1.00 43.80     0.110 A 
HETATM    4  CAK   D T 601       6.535   6.495   5.597  1.00 48.43     0.098 A 
HETATM    5  CAL   D T 601       3.822   7.568   6.397  1.00 51.67     0.082 A 
HETATM    6  NAT   D T 601       6.498   4.962   7.647  1.00 45.65    -0.247 NA
HETATM    7  CBA   D T 601       4.528   4.928   9.294  1.00 49.31     0.105 A 
HETATM    8  CBC   D T 601       4.515   8.072   5.169  1.00 53.00     0.095 A 
HETATM    9  CBD   D T 601       5.858   7.547   4.773  1.00 51.16     0.096 A 
HETATM   10  CBE   D T 601       3.782   5.998   8.500  1.00 54.84     0.090 A 
HETATM   11  CBF   D T 601       5.854   5.967   6.847  1.00 47.85     0.064 A 
HETATM   12  CBG   D T 601       4.490   6.516   7.239  1.00 51.63     0.017 A 
ENDROOT
BRANCH  10  13
HETATM   13  NAU   D T 601       2.449   6.543   8.849  1.00 54.01    -0.248 NA
BRANCH  13  14
HETATM   14  CBB   D T 601       1.308   6.401   7.956  1.00 54.80     0.072 A 
HETATM   15  CAJ   D T 601       1.085   7.479   6.932  1.00 55.55     0.098 A 
HETATM   16  CAX   D T 601      -0.081   7.381   6.002  1.00 62.83     0.085 A 
HETATM   17  CAY   D T 601      -1.024   6.208   6.080  1.00 63.63     0.059 A 
HETATM   18 CL1    D T 601      -2.385   6.045   5.025  1.00 71.73    -0.085 Cl
HETATM   19  CAI   D T 601      -0.794   5.144   7.087  1.00 58.17     0.079 A 
HETATM   20  CAZ   D T 601       0.359   5.227   8.025  1.00 58.48     0.055 A 
HETATM   21 CL2    D T 601       0.532   3.923   9.161  1.00 88.78    -0.085 Cl
BRANCH  16  22
HETATM   22  O02   D T 601      -0.255   8.390   5.088  1.00 70.52    -0.331 OA
HETATM   23  C01   D T 601       0.229   9.660   5.396  1.00 60.10     0.181 C 
ENDBRANCH  16  22
ENDBRANCH  13  14
ENDBRANCH  10  13
BRANCH   8  24
HETATM   24  OAV   D T 601       3.860   9.037   4.444  1.00 53.06    -0.330 OA
HETATM   25  CAA   D T 601       3.146   8.613   3.330  1.00 49.21     0.181 C 
ENDBRANCH   8  24
BRANCH   9  26
HETATM   26  OAW   D T 601       6.518   8.005   3.625  1.00 56.28    -0.333 OA
BRANCH  26  27
HETATM   27  CAN   D T 601       7.284   9.178   3.710  1.00 46.95     0.150 C 
BRANCH  27  28
HETATM   28  CAM   D T 601       8.756   8.792   3.847  1.00 47.26     0.056 C 
BRANCH  28  29
HETATM   29  CAC   D T 601       9.378   9.593   4.983  1.00 49.87     0.100 C 
BRANCH  29  30
HETATM   30  NBH   D T 601       9.123   8.886   6.288  1.00 58.32    -0.365 N 
HETATM   31  CAP   D T 601       8.478   9.538   7.438  1.00 59.29     0.121 C 
HETATM   32  CAR   D T 601       7.952   8.480   8.433  1.00 66.32     0.121 C 
HETATM   33  NBI   D T 601       8.989   7.532   8.784  1.00 67.85    -0.364 N 
HETATM   34  CAO   D T 601       8.766   6.758  10.001  1.00 55.13     0.121 C 
HETATM   35  CAS   D T 601       9.575   6.930   7.617  1.00 63.26     0.121 C 
HETATM   36  CAQ   D T 601      10.167   7.992   6.740  1.00 57.65     0.121 C 
ENDBRANCH  29  30
ENDBRANCH  28  29
ENDBRANCH  27  28
ENDBRANCH  26  27
ENDBRANCH   9  26
TORSDOF 9
ENDMDL
MODEL 4
REMARK VINA RESULT:    -7.447      3.864      6.410
REMARK INTER + INTRA:         -12.294
REMARK INTER:                 -10.315
REMARK INTRA:                  -1.979
REMARK UNBOUND:                -0.928
REMARK  9 active torsions:
REMARK  status: ('A' for Active; 'I' for Inactive)
REMARK    1  A    between atoms: O02_2  and  CAX_24 
REMARK    2  A    between atoms: CAC_3  and  CAM_13 
REMARK    3  A    between atoms: CAC_3  and  NBH_34 
REMARK    4  A    between atoms: CAM_13  and  CAN_14 
REMARK    5  A    between atoms: CAN_14  and  OAW_23 
REMARK    6  A    between atoms: NAU_21  and  CBB_28 
REMARK    7  A    between atoms: NAU_21  and  CBE_31 
REMARK    8  A    between atoms: OAV_22  and  CBC_29 
REMARK    9  A    between atoms: OAW_23  and  CBD_30 
ROOT
HETATM    1  NAD   D T 601       3.142   5.046   9.736  1.00 53.32    -0.191 NA
HETATM    2  CAG   D T 601       3.724   5.592   8.927  1.00 54.51     0.104 C 
HETATM    3  CAH   D T 601       5.816   5.729   7.445  1.00 43.80     0.110 A 
HETATM    4  CAK   D T 601       6.817   7.781   4.314  1.00 48.43     0.098 A 
HETATM    5  CAL   D T 601       4.172   9.072   5.013  1.00 51.67     0.082 A 
HETATM    6  NAT   D T 601       6.544   6.210   6.316  1.00 45.65    -0.247 NA
HETATM    7  CBA   D T 601       4.499   6.313   7.866  1.00 49.31     0.105 A 
HETATM    8  CBC   D T 601       4.967   9.541   3.834  1.00 53.00     0.095 A 
HETATM    9  CBD   D T 601       6.277   8.908   3.488  1.00 51.16     0.096 A 
HETATM   10  CBE   D T 601       3.890   7.463   7.067  1.00 54.84     0.090 A 
HETATM   11  CBF   D T 601       6.031   7.287   5.514  1.00 47.85     0.064 A 
HETATM   12  CBG   D T 601       4.703   7.946   5.857  1.00 51.63     0.017 A 
ENDROOT
BRANCH  10  13
HETATM   13  NAU   D T 601       2.594   8.116   7.367  1.00 54.01    -0.248 NA
BRANCH  13  14
HETATM   14  CBB   D T 601       1.354   7.673   6.747  1.00 54.80     0.072 A 
HETATM   15  CAJ   D T 601       0.802   6.338   7.163  1.00 55.55     0.098 A 
HETATM   16  CAX   D T 601      -0.463   5.839   6.544  1.00 62.83     0.085 A 
HETATM   17  CAY   D T 601      -1.189   6.667   5.515  1.00 63.63     0.059 A 
HETATM   18 CL1    D T 601      -2.657   6.136   4.771  1.00 71.73    -0.085 Cl
HETATM   19  CAI   D T 601      -0.643   7.987   5.114  1.00 58.17     0.079 A 
HETATM   20  CAZ   D T 601       0.618   8.498   5.717  1.00 58.48     0.055 A 
HETATM   21 CL2    D T 601       1.162  10.058   5.174  1.00 88.78    -0.085 Cl
BRANCH  16  22
HETATM   22  O02   D T 601      -0.928   4.611   6.944  1.00 70.52    -0.331 OA
HETATM   23  C01   D T 601      -1.292   4.437   8.278  1.00 60.10     0.181 C 
ENDBRANCH  16  22
ENDBRANCH  13  14
ENDBRANCH  10  13
BRANCH   8  24
HETATM   24  OAV   D T 601       4.436  10.577   3.105  1.00 53.06    -0.330 OA
HETATM   25  CAA   D T 601       3.430  10.262   2.200  1.00 49.21     0.181 C 
ENDBRANCH   8  24
BRANCH   9  26
HETATM   26  OAW   D T 601       7.030   9.333   2.385  1.00 56.28    -0.333 OA
BRANCH  26  27
HETATM   27  CAN   D T 601       7.805  10.497   2.506  1.00 46.95     0.150 C 
BRANCH  27  28
HETATM   28  CAM   D T 601       9.243  10.096   2.828  1.00 47.26     0.056 C 
BRANCH  28  29
HETATM   29  CAC   D T 601       9.734  10.914   4.016  1.00 49.87     0.100 C 
BRANCH  29  30
HETATM   30  NBH   D T 601       9.175  10.330   5.287  1.00 58.32    -0.365 N 
HETATM   31  CAP   D T 601       8.259  11.066   6.172  1.00 59.29     0.121 C 
HETATM   32  CAR   D T 601       7.520  10.092   7.114  1.00 66.32     0.121 C 
HETATM   33  NBI   D T 601       8.451   9.223   7.803  1.00 67.85    -0.364 N 
HETATM   34  CAO   D T 601       7.946   8.565   9.004  1.00 55.13     0.121 C 
HETATM   35  CAS   D T 601       9.313   8.532   6.883  1.00 63.26     0.121 C 
HETATM   36  CAQ   D T 601      10.088   9.525   6.070  1.00 57.65     0.121 C 
ENDBRANCH  29  30
ENDBRANCH  28  29
ENDBRANCH  27  28
ENDBRANCH  26  27
ENDBRANCH   9  26
TORSDOF 9
ENDMDL
MODEL 5
REMARK VINA RESULT:    -7.416      2.401      3.864
REMARK INTER + INTRA:         -12.246
REMARK INTER:                 -11.223
REMARK INTRA:                  -1.023
REMARK UNBOUND:                -0.928
REMARK  9 active torsions:
REMARK  status: ('A' for Active; 'I' for Inactive)
REMARK    1  A    between atoms: O02_2  and  CAX_24 
REMARK    2  A    between atoms: CAC_3  and  CAM_13 
REMARK    3  A    between atoms: CAC_3  and  NBH_34 
REMARK    4  A    between atoms: CAM_13  and  CAN_14 
REMARK    5  A    between atoms: CAN_14  and  OAW_23 
REMARK    6  A    between atoms: NAU_21  and  CBB_28 
REMARK    7  A    between atoms: NAU_21  and  CBE_31 
REMARK    8  A    between atoms: OAV_22  and  CBC_29 
REMARK    9  A    between atoms: OAW_23  and  CBD_30 
ROOT
HETATM    1  NAD   D T 601      -0.679   6.391   8.608  1.00 53.32    -0.191 NA
HETATM    2  CAG   D T 601      -0.066   6.780   7.735  1.00 54.51     0.104 C 
HETATM    3  CAH   D T 601       0.050   7.434   5.254  1.00 43.80     0.110 A 
HETATM    4  CAK   D T 601       2.598   9.344   3.047  1.00 48.43     0.098 A 
HETATM    5  CAL   D T 601       4.138   9.144   5.644  1.00 51.67     0.082 A 
HETATM    6  NAT   D T 601       0.655   8.086   4.140  1.00 45.65    -0.247 NA
HETATM    7  CBA   D T 601       0.742   7.285   6.578  1.00 49.31     0.105 A 
HETATM    8  CBC   D T 601       4.732   9.825   4.450  1.00 53.00     0.095 A 
HETATM    9  CBD   D T 601       3.975   9.922   3.163  1.00 51.16     0.096 A 
HETATM   10  CBE   D T 601       2.147   7.853   6.765  1.00 54.84     0.090 A 
HETATM   11  CBF   D T 601       1.973   8.649   4.243  1.00 47.85     0.064 A 
HETATM   12  CBG   D T 601       2.758   8.553   5.543  1.00 51.63     0.017 A 
ENDROOT
BRANCH  10  13
HETATM   13  NAU   D T 601       2.931   7.787   8.021  1.00 54.01    -0.248 NA
BRANCH  13  14
HETATM   14  CBB   D T 601       3.515   6.541   8.493  1.00 54.80     0.072 A 
HETATM   15  CAJ   D T 601       2.716   5.720   9.467  1.00 55.55     0.098 A 
HETATM   16  CAX   D T 601       3.281   4.438   9.988  1.00 62.83     0.085 A 
HETATM   17  CAY   D T 601       4.638   3.962   9.536  1.00 63.63     0.059 A 
HETATM   18 CL1    D T 601       5.335   2.485  10.105  1.00 71.73    -0.085 Cl
HETATM   19  CAI   D T 601       5.418   4.772   8.568  1.00 58.17     0.079 A 
HETATM   20  CAZ   D T 601       4.873   6.054   8.043  1.00 58.48     0.055 A 
HETATM   21 CL2    D T 601       5.872   6.918   6.913  1.00 88.78    -0.085 Cl
BRANCH  16  22
HETATM   22  O02   D T 601       2.525   3.724  10.883  1.00 70.52    -0.331 OA
HETATM   23  C01   D T 601       1.291   3.227  10.468  1.00 60.10     0.181 C 
ENDBRANCH  16  22
ENDBRANCH  13  14
ENDBRANCH  10  13
BRANCH   8  24
HETATM   24  OAV   D T 601       5.997  10.339   4.599  1.00 53.06    -0.330 OA
HETATM   25  CAA   D T 601       7.049   9.580   4.099  1.00 49.21     0.181 C 
ENDBRANCH   8  24
BRANCH   9  26
HETATM   26  OAW   D T 601       4.516  10.560   2.039  1.00 56.28    -0.333 OA
BRANCH  26  27
HETATM   27  CAN   D T 601       3.878  11.707   1.543  1.00 46.95     0.150 C 
BRANCH  27  28
HETATM   28  CAM   D T 601       3.747  11.578   0.026  1.00 47.26     0.056 C 
BRANCH  28  29
HETATM   29  CAC   D T 601       2.415  10.919  -0.304  1.00 49.87     0.100 C 
BRANCH  29  30
HETATM   30  NBH   D T 601       1.548  11.896  -1.054  1.00 58.32    -0.365 N 
HETATM   31  CAP   D T 601       2.066  12.777  -2.112  1.00 59.29     0.121 C 
HETATM   32  CAR   D T 601       0.908  13.315  -2.981  1.00 66.32     0.121 C 
HETATM   33  NBI   D T 601      -0.129  13.906  -2.162  1.00 67.85    -0.364 N 
HETATM   34  CAO   D T 601      -1.052  14.807  -2.846  1.00 55.13     0.121 C 
HETATM   35  CAS   D T 601      -0.593  12.995  -1.151  1.00 63.26     0.121 C 
HETATM   36  CAQ   D T 601       0.550  12.590  -0.269  1.00 57.65     0.121 C 
ENDBRANCH  29  30
ENDBRANCH  28  29
ENDBRANCH  27  28
ENDBRANCH  26  27
ENDBRANCH   9  26
TORSDOF 9
ENDMDL
MODEL 6
REMARK VINA RESULT:    -7.400      5.613      9.120
REMARK INTER + INTRA:         -12.222
REMARK INTER:                 -10.623
REMARK INTRA:                  -1.599
REMARK UNBOUND:                -0.928
REMARK  9 active torsions:
REMARK  status: ('A' for Active; 'I' for Inactive)
REMARK    1  A    between atoms: O02_2  and  CAX_24 
REMARK    2  A    between atoms: CAC_3  and  CAM_13 
REMARK    3  A    between atoms: CAC_3  and  NBH_34 
REMARK    4  A    between atoms: CAM_13  and  CAN_14 
REMARK    5  A    between atoms: CAN_14  and  OAW_23 
REMARK    6  A    between atoms: NAU_21  and  CBB_28 
REMARK    7  A    between atoms: NAU_21  and  CBE_31 
REMARK    8  A    between atoms: OAV_22  and  CBC_29 
REMARK    9  A    between atoms: OAW_23  and  CBD_30 
ROOT
HETATM    1  NAD   D T 601       1.250   3.617  10.601  1.00 53.32    -0.191 NA
HETATM    2  CAG   D T 601       2.299   3.905  10.272  1.00 54.51     0.104 C 
HETATM    3  CAH   D T 601       4.729   3.203   9.830  1.00 43.80     0.110 A 
HETATM    4  CAK   D T 601       7.763   4.831   8.053  1.00 48.43     0.098 A 
HETATM    5  CAL   D T 601       5.781   7.116   7.993  1.00 51.67     0.082 A 
HETATM    6  NAT   D T 601       6.022   3.394   9.260  1.00 45.65    -0.247 NA
HETATM    7  CBA   D T 601       3.686   4.282   9.848  1.00 49.31     0.105 A 
HETATM    8  CBC   D T 601       7.148   7.271   7.402  1.00 53.00     0.095 A 
HETATM    9  CBD   D T 601       8.132   6.145   7.434  1.00 51.16     0.096 A 
HETATM   10  CBE   D T 601       3.996   5.645   9.232  1.00 54.84     0.090 A 
HETATM   11  CBF   D T 601       6.384   4.649   8.659  1.00 47.85     0.064 A 
HETATM   12  CBG   D T 601       5.397   5.806   8.624  1.00 51.63     0.017 A 
ENDROOT
BRANCH  10  13
HETATM   13  NAU   D T 601       3.052   6.786   9.172  1.00 54.01    -0.248 NA
BRANCH  13  14
HETATM   14  CBB   D T 601       2.106   6.938   8.076  1.00 54.80     0.072 A 
HETATM   15  CAJ   D T 601       0.970   5.957   7.992  1.00 55.55     0.098 A 
HETATM   16  CAX   D T 601      -0.018   6.067   6.876  1.00 62.83     0.085 A 
HETATM   17  CAY   D T 601       0.113   7.159   5.846  1.00 63.63     0.059 A 
HETATM   18 CL1    D T 601      -1.006   7.333   4.538  1.00 71.73    -0.085 Cl
HETATM   19  CAI   D T 601       1.232   8.129   5.938  1.00 58.17     0.079 A 
HETATM   20  CAZ   D T 601       2.228   8.031   7.039  1.00 58.48     0.055 A 
HETATM   21 CL2    D T 601       3.494   9.222   7.050  1.00 88.78    -0.085 Cl
BRANCH  16  22
HETATM   22  O02   D T 601      -1.034   5.146   6.830  1.00 70.52    -0.331 OA
HETATM   23  C01   D T 601      -1.278   4.364   7.957  1.00 60.10     0.181 C 
ENDBRANCH  16  22
ENDBRANCH  13  14
ENDBRANCH  10  13
BRANCH   8  24
HETATM   24  OAV   D T 601       7.446   8.491   6.847  1.00 53.06    -0.330 OA
HETATM   25  CAA   D T 601       7.229   9.614   7.637  1.00 49.21     0.181 C 
ENDBRANCH   8  24
BRANCH   9  26
HETATM   26  OAW   D T 601       9.414   6.272   6.881  1.00 56.28    -0.333 OA
BRANCH  26  27
HETATM   27  CAN   D T 601      10.525   5.945   7.673  1.00 46.95     0.150 C 
BRANCH  27  28
HETATM   28  CAM   D T 601      10.688   7.012   8.754  1.00 47.26     0.056 C 
BRANCH  28  29
HETATM   29  CAC   D T 601      10.512   6.367  10.122  1.00 49.87     0.100 C 
BRANCH  29  30
HETATM   30  NBH   D T 601       9.881   7.359  11.063  1.00 58.32    -0.365 N 
HETATM   31  CAP   D T 601       9.437   7.005  12.420  1.00 59.29     0.121 C 
HETATM   32  CAR   D T 601       9.263   8.276  13.279  1.00 66.32     0.121 C 
HETATM   33  NBI   D T 601       8.426   9.249  12.610  1.00 67.85    -0.364 N 
HETATM   34  CAO   D T 601       7.844  10.286  13.456  1.00 55.13     0.121 C 
HETATM   35  CAS   D T 601       8.915   9.553  11.292  1.00 63.26     0.121 C 
HETATM   36  CAQ   D T 601       8.960   8.303  10.466  1.00 57.65     0.121 C 
ENDBRANCH  29  30
ENDBRANCH  28  29
ENDBRANCH  27  28
ENDBRANCH  26  27
ENDBRANCH   9  26
TORSDOF 9
ENDMDL
MODEL 7
REMARK VINA RESULT:    -7.314      3.062      4.701
REMARK INTER + INTRA:         -12.091
REMARK INTER:                 -10.431
REMARK INTRA:                  -1.661
REMARK UNBOUND:                -0.928
REMARK  9 active torsions:
REMARK  status: ('A' for Active; 'I' for Inactive)
REMARK    1  A    between atoms: O02_2  and  CAX_24 
REMARK    2  A    between atoms: CAC_3  and  CAM_13 
REMARK    3  A    between atoms: CAC_3  and  NBH_34 
REMARK    4  A    between atoms: CAM_13  and  CAN_14 
REMARK    5  A    between atoms: CAN_14  and  OAW_23 
REMARK    6  A    between atoms: NAU_21  and  CBB_28 
REMARK    7  A    between atoms: NAU_21  and  CBE_31 
REMARK    8  A    between atoms: OAV_22  and  CBC_29 
REMARK    9  A    between atoms: OAW_23  and  CBD_30 
ROOT
HETATM    1  NAD   D T 601      -0.315   8.849   5.834  1.00 53.32    -0.191 NA
HETATM    2  CAG   D T 601       0.746   8.698   5.457  1.00 54.51     0.104 C 
HETATM    3  CAH   D T 601       2.372   8.577   3.474  1.00 43.80     0.110 A 
HETATM    4  CAK   D T 601       6.229   8.567   3.098  1.00 48.43     0.098 A 
HETATM    5  CAL   D T 601       5.953   8.397   6.106  1.00 51.67     0.082 A 
HETATM    6  NAT   D T 601       3.677   8.595   2.898  1.00 45.65    -0.247 NA
HETATM    7  CBA   D T 601       2.143   8.490   4.954  1.00 49.31     0.105 A 
HETATM    8  CBC   D T 601       7.304   8.424   5.460  1.00 53.00     0.095 A 
HETATM    9  CBD   D T 601       7.443   8.503   3.972  1.00 51.16     0.096 A 
HETATM   10  CBE   D T 601       3.337   8.425   5.903  1.00 54.84     0.090 A 
HETATM   11  CBF   D T 601       4.849   8.541   3.729  1.00 47.85     0.064 A 
HETATM   12  CBG   D T 601       4.723   8.454   5.243  1.00 51.63     0.017 A 
ENDROOT
BRANCH  10  13
HETATM   13  NAU   D T 601       3.248   8.353   7.381  1.00 54.01    -0.248 NA
BRANCH  13  14
HETATM   14  CBB   D T 601       2.898   7.118   8.066  1.00 54.80     0.072 A 
HETATM   15  CAJ   D T 601       1.443   6.745   8.136  1.00 55.55     0.098 A 
HETATM   16  CAX   D T 601       1.037   5.490   8.840  1.00 62.83     0.085 A 
HETATM   17  CAY   D T 601       2.076   4.598   9.469  1.00 63.63     0.059 A 
HETATM   18 CL1    D T 601       1.659   3.134  10.292  1.00 71.73    -0.085 Cl
HETATM   19  CAI   D T 601       3.510   4.967   9.391  1.00 58.17     0.079 A 
HETATM   20  CAZ   D T 601       3.933   6.215   8.698  1.00 58.48     0.055 A 
HETATM   21 CL2    D T 601       5.639   6.545   8.664  1.00 88.78    -0.085 Cl
BRANCH  16  22
HETATM   22  O02   D T 601      -0.301   5.191   8.890  1.00 70.52    -0.331 OA
HETATM   23  C01   D T 601      -0.865   4.477   7.834  1.00 60.10     0.181 C 
ENDBRANCH  16  22
ENDBRANCH  13  14
ENDBRANCH  10  13
BRANCH   8  24
HETATM   24  OAV   D T 601       8.390   8.363   6.298  1.00 53.06    -0.330 OA
HETATM   25  CAA   D T 601       8.231   8.883   7.576  1.00 49.21     0.181 C 
ENDBRANCH   8  24
BRANCH   9  26
HETATM   26  OAW   D T 601       8.700   8.534   3.353  1.00 56.28    -0.333 OA
BRANCH  26  27
HETATM   27  CAN   D T 601       9.366   9.764   3.240  1.00 46.95     0.150 C 
BRANCH  27  28
HETATM   28  CAM   D T 601       9.031  10.378   1.881  1.00 47.26     0.056 C 
BRANCH  28  29
HETATM   29  CAC   D T 601       8.440  11.766   2.094  1.00 49.87     0.100 C 
BRANCH  29  30
HETATM   30  NBH   D T 601       6.953  11.713   1.867  1.00 58.32    -0.365 N 
HETATM   31  CAP   D T 601       6.351  11.546   0.535  1.00 59.29     0.121 C 
HETATM   32  CAR   D T 601       4.883  11.082   0.661  1.00 66.32     0.121 C 
HETATM   33  NBI   D T 601       4.137  11.945   1.552  1.00 67.85    -0.364 N 
HETATM   34  CAO   D T 601       2.683  11.885   1.436  1.00 55.13     0.121 C 
HETATM   35  CAS   D T 601       4.775  12.063   2.835  1.00 63.26     0.121 C 
HETATM   36  CAQ   D T 601       6.156  12.621   2.665  1.00 57.65     0.121 C 
ENDBRANCH  29  30
ENDBRANCH  28  29
ENDBRANCH  27  28
ENDBRANCH  26  27
ENDBRANCH   9  26
TORSDOF 9
ENDMDL
MODEL 8
REMARK VINA RESULT:    -7.215      1.626      2.244
REMARK INTER + INTRA:         -11.940
REMARK INTER:                 -11.418
REMARK INTRA:                  -0.522
REMARK UNBOUND:                -0.928
REMARK  9 active torsions:
REMARK  status: ('A' for Active; 'I' for Inactive)
REMARK    1  A    between atoms: O02_2  and  CAX_24 
REMARK    2  A    between atoms: CAC_3  and  CAM_13 
REMARK    3  A    between atoms: CAC_3  and  NBH_34 
REMARK    4  A    between atoms: CAM_13  and  CAN_14 
REMARK    5  A    between atoms: CAN_14  and  OAW_23 
REMARK    6  A    between atoms: NAU_21  and  CBB_28 
REMARK    7  A    between atoms: NAU_21  and  CBE_31 
REMARK    8  A    between atoms: OAV_22  and  CBC_29 
REMARK    9  A    between atoms: OAW_23  and  CBD_30 
ROOT
HETATM    1  NAD   D T 601       5.981   3.410  10.964  1.00 53.32    -0.191 NA
HETATM    2  CAG   D T 601       5.996   4.080  10.047  1.00 54.51     0.104 C 
HETATM    3  CAH   D T 601       7.128   4.757   7.844  1.00 43.80     0.110 A 
HETATM    4  CAK   D T 601       6.120   6.956   4.816  1.00 48.43     0.098 A 
HETATM    5  CAL   D T 601       3.812   7.492   6.697  1.00 51.67     0.082 A 
HETATM    6  NAT   D T 601       7.147   5.400   6.571  1.00 45.65    -0.247 NA
HETATM    7  CBA   D T 601       6.025   4.969   8.840  1.00 49.31     0.105 A 
HETATM    8  CBC   D T 601       3.870   8.141   5.349  1.00 53.00     0.095 A 
HETATM    9  CBD   D T 601       5.012   7.882   4.418  1.00 51.16     0.096 A 
HETATM   10  CBE   D T 601       4.864   5.898   8.497  1.00 54.84     0.090 A 
HETATM   11  CBF   D T 601       6.085   6.285   6.177  1.00 47.85     0.064 A 
HETATM   12  CBG   D T 601       4.920   6.564   7.115  1.00 51.63     0.017 A 
ENDROOT
BRANCH  10  13
HETATM   13  NAU   D T 601       3.709   6.180   9.383  1.00 54.01    -0.248 NA
BRANCH  13  14
HETATM   14  CBB   D T 601       2.387   5.636   9.111  1.00 54.80     0.072 A 
HETATM   15  CAJ   D T 601       1.554   6.317   8.062  1.00 55.55     0.098 A 
HETATM   16  CAX   D T 601       0.185   5.800   7.757  1.00 62.83     0.085 A 
HETATM   17  CAY   D T 601      -0.357   4.598   8.488  1.00 63.63     0.059 A 
HETATM   18 CL1    D T 601      -1.933   3.958   8.171  1.00 71.73    -0.085 Cl
HETATM   19  CAI   D T 601       0.472   3.926   9.518  1.00 58.17     0.079 A 
HETATM   20  CAZ   D T 601       1.836   4.430   9.837  1.00 58.48     0.055 A 
HETATM   21 CL2    D T 601       2.719   3.562  11.057  1.00 88.78    -0.085 Cl
BRANCH  16  22
HETATM   22  O02   D T 601      -0.547   6.456   6.800  1.00 70.52    -0.331 OA
HETATM   23  C01   D T 601      -0.208   7.770   6.484  1.00 60.10     0.181 C 
ENDBRANCH  16  22
ENDBRANCH  13  14
ENDBRANCH  10  13
BRANCH   8  24
HETATM   24  OAV   D T 601       2.835   8.984   5.025  1.00 53.06    -0.330 OA
HETATM   25  CAA   D T 601       2.562  10.018   5.912  1.00 49.21     0.181 C 
ENDBRANCH   8  24
BRANCH   9  26
HETATM   26  OAW   D T 601       5.078   8.478   3.152  1.00 56.28    -0.333 OA
BRANCH  26  27
HETATM   27  CAN   D T 601       5.736   9.711   3.021  1.00 46.95     0.150 C 
BRANCH  27  28
HETATM   28  CAM   D T 601       4.690  10.801   2.793  1.00 47.26     0.056 C 
BRANCH  28  29
HETATM   29  CAC   D T 601       3.543  10.228   1.971  1.00 49.87     0.100 C 
BRANCH  29  30
HETATM   30  NBH   D T 601       3.341  11.073   0.741  1.00 58.32    -0.365 N 
HETATM   31  CAP   D T 601       2.381  10.728  -0.319  1.00 59.29     0.121 C 
HETATM   32  CAR   D T 601       2.071  11.965  -1.190  1.00 66.32     0.121 C 
HETATM   33  NBI   D T 601       3.289  12.589  -1.663  1.00 67.85    -0.364 N 
HETATM   34  CAO   D T 601       3.149  13.483  -2.809  1.00 55.13     0.121 C 
HETATM   35  CAS   D T 601       4.181  12.903  -0.581  1.00 63.26     0.121 C 
HETATM   36  CAQ   D T 601       4.536  11.651   0.164  1.00 57.65     0.121 C 
ENDBRANCH  29  30
ENDBRANCH  28  29
ENDBRANCH  27  28
ENDBRANCH  26  27
ENDBRANCH   9  26
TORSDOF 9
ENDMDL
MODEL 9
REMARK VINA RESULT:    -7.066      3.045      5.643
REMARK INTER + INTRA:         -11.713
REMARK INTER:                 -10.351
REMARK INTRA:                  -1.362
REMARK UNBOUND:                -0.928
REMARK  9 active torsions:
REMARK  status: ('A' for Active; 'I' for Inactive)
REMARK    1  A    between atoms: O02_2  and  CAX_24 
REMARK    2  A    between atoms: CAC_3  and  CAM_13 
REMARK    3  A    between atoms: CAC_3  and  NBH_34 
REMARK    4  A    between atoms: CAM_13  and  CAN_14 
REMARK    5  A    between atoms: CAN_14  and  OAW_23 
REMARK    6  A    between atoms: NAU_21  and  CBB_28 
REMARK    7  A    between atoms: NAU_21  and  CBE_31 
REMARK    8  A    between atoms: OAV_22  and  CBC_29 
REMARK    9  A    between atoms: OAW_23  and  CBD_30 
ROOT
HETATM    1  NAD   D T 601       4.259   3.652  11.888  1.00 53.32    -0.191 NA
HETATM    2  CAG   D T 601       3.983   4.213  10.939  1.00 54.51     0.104 C 
HETATM    3  CAH   D T 601       2.246   5.567   9.618  1.00 43.80     0.110 A 
HETATM    4  CAK   D T 601       2.341   7.746   6.415  1.00 48.43     0.098 A 
HETATM    5  CAL   D T 601       5.138   6.594   6.397  1.00 51.67     0.082 A 
HETATM    6  NAT   D T 601       1.855   6.451   8.569  1.00 45.65    -0.247 NA
HETATM    7  CBA   D T 601       3.612   4.947   9.686  1.00 49.31     0.105 A 
HETATM    8  CBC   D T 601       4.687   7.530   5.319  1.00 53.00     0.095 A 
HETATM    9  CBD   D T 601       3.303   8.098   5.322  1.00 51.16     0.096 A 
HETATM   10  CBE   D T 601       4.642   5.265   8.605  1.00 54.84     0.090 A 
HETATM   11  CBF   D T 601       2.773   6.800   7.520  1.00 47.85     0.064 A 
HETATM   12  CBG   D T 601       4.182   6.225   7.499  1.00 51.63     0.017 A 
ENDROOT
BRANCH  10  13
HETATM   13  NAU   D T 601       6.025   4.733   8.564  1.00 54.01    -0.248 NA
BRANCH  13  14
HETATM   14  CBB   D T 601       7.117   5.390   9.266  1.00 54.80     0.072 A 
HETATM   15  CAJ   D T 601       7.543   6.748   8.780  1.00 55.55     0.098 A 
HETATM   16  CAX   D T 601       8.669   7.455   9.463  1.00 62.83     0.085 A 
HETATM   17  CAY   D T 601       9.370   6.820  10.636  1.00 63.63     0.059 A 
HETATM   18 CL1    D T 601      10.675   7.598  11.463  1.00 71.73    -0.085 Cl
HETATM   19  CAI   D T 601       8.941   5.484  11.116  1.00 58.17     0.079 A 
HETATM   20  CAZ   D T 601       7.825   4.762  10.445  1.00 58.48     0.055 A 
HETATM   21 CL2    D T 601       7.405   3.205  11.093  1.00 88.78    -0.085 Cl
BRANCH  16  22
HETATM   22  O02   D T 601       9.033   8.688   8.982  1.00 70.52    -0.331 OA
HETATM   23  C01   D T 601       8.459   9.823   9.552  1.00 60.10     0.181 C 
ENDBRANCH  16  22
ENDBRANCH  13  14
ENDBRANCH  10  13
BRANCH   8  24
HETATM   24  OAV   D T 601       5.599   7.825   4.336  1.00 53.06    -0.330 OA
HETATM   25  CAA   D T 601       6.683   8.616   4.698  1.00 49.21     0.181 C 
ENDBRANCH   8  24
BRANCH   9  26
HETATM   26  OAW   D T 601       2.867   8.978   4.323  1.00 56.28    -0.333 OA
BRANCH  26  27
HETATM   27  CAN   D T 601       3.016  10.359   4.529  1.00 46.95     0.150 C 
BRANCH  27  28
HETATM   28  CAM   D T 601       3.976  10.910   3.476  1.00 47.26     0.056 C 
BRANCH  28  29
HETATM   29  CAC   D T 601       3.864  10.069   2.211  1.00 49.87     0.100 C 
BRANCH  29  30
HETATM   30  NBH   D T 601       3.571  10.969   1.040  1.00 58.32    -0.365 N 
HETATM   31  CAP   D T 601       2.444  10.748   0.121  1.00 59.29     0.121 C 
HETATM   32  CAR   D T 601       2.133  12.036  -0.672  1.00 66.32     0.121 C 
HETATM   33  NBI   D T 601       3.326  12.561  -1.303  1.00 67.85    -0.364 N 
HETATM   34  CAO   D T 601       3.112  13.501  -2.399  1.00 55.13     0.121 C 
HETATM   35  CAS   D T 601       4.387  12.757  -0.352  1.00 63.26     0.121 C 
HETATM   36  CAQ   D T 601       4.723  11.455   0.310  1.00 57.65     0.121 C 
ENDBRANCH  29  30
ENDBRANCH  28  29
ENDBRANCH  27  28
ENDBRANCH  26  27
ENDBRANCH   9  26
TORSDOF 9
ENDMDL
