MODEL 1
REMARK VINA RESULT:    -7.303      0.000      0.000
REMARK INTER + INTRA:         -12.316
REMARK INTER:                 -11.146
REMARK INTRA:                  -1.171
REMARK UNBOUND:                -1.171
REMARK  9 active torsions:
REMARK  status: ('A' for Active; 'I' for Inactive)
REMARK    1  A    between atoms: O02_2  and  CAX_24 
REMARK    2  A    between atoms: CAC_3  and  CAM_13 
REMARK    3  A    between atoms: CAC_3  and  NBH_34 
REMARK    4  A    between atoms: CAM_13  and  CAN_14 
REMARK    5  A    between atoms: CAN_14  and  OAW_23 
REMARK    6  A    between atoms: NAU_21  and  CBB_28 
REMARK    7  A    between atoms: NAU_21  and  CBE_31 
REMARK    8  A    between atoms: OAV_22  and  CBC_29 
REMARK    9  A    between atoms: OAW_23  and  CBD_30 
ROOT
HETATM    1  NAD   D T 601       8.548   8.632   5.254  1.00 53.32    -0.191 NA
HETATM    2  CAG   D T 601       7.672   8.200   5.834  1.00 54.51     0.104 C 
HETATM    3  CAH   D T 601       5.131   7.943   6.096  1.00 43.80     0.110 A 
HETATM    4  CAK   D T 601       2.817   5.655   8.202  1.00 48.43     0.098 A 
HETATM    5  CAL   D T 601       5.526   4.913   9.328  1.00 51.67     0.082 A 
HETATM    6  NAT   D T 601       3.965   7.308   6.618  1.00 45.65    -0.247 NA
HETATM    7  CBA   D T 601       6.512   7.639   6.599  1.00 49.31     0.105 A 
HETATM    8  CBC   D T 601       4.276   4.268   9.845  1.00 53.00     0.095 A 
HETATM    9  CBD   D T 601       2.936   4.635   9.291  1.00 51.16     0.096 A 
HETATM   10  CBE   D T 601       6.703   6.608   7.708  1.00 54.84     0.090 A 
HETATM   11  CBF   D T 601       4.069   6.324   7.661  1.00 47.85     0.064 A 
HETATM   12  CBG   D T 601       5.424   5.943   8.238  1.00 51.63     0.017 A 
ENDROOT
BRANCH  10  13
HETATM   13  NAU   D T 601       8.010   6.207   8.281  1.00 54.01    -0.248 NA
BRANCH  13  14
HETATM   14  CBB   D T 601       8.578   4.889   8.041  1.00 54.80     0.072 A 
HETATM   15  CAJ   D T 601       8.742   4.449   6.613  1.00 55.55     0.098 A 
HETATM   16  CAX   D T 601       9.311   3.098   6.319  1.00 62.83     0.085 A 
HETATM   17  CAY   D T 601       9.724   2.183   7.441  1.00 63.63     0.059 A 
HETATM   18 CL1    D T 601      10.390   0.612   7.155  1.00 71.73    -0.085 Cl
HETATM   19  CAI   D T 601       9.566   2.625   8.850  1.00 58.17     0.079 A 
HETATM   20  CAZ   D T 601       8.997   3.965   9.161  1.00 58.48     0.055 A 
HETATM   21 CL2    D T 601       8.862   4.378  10.845  1.00 88.78    -0.085 Cl
BRANCH  16  22
HETATM   22  O02   D T 601       9.435   2.730   5.002  1.00 70.52    -0.331 OA
HETATM   23  C01   D T 601       8.501   1.848   4.464  1.00 60.10     0.181 C 
ENDBRANCH  16  22
ENDBRANCH  13  14
ENDBRANCH  10  13
BRANCH   8  24
HETATM   24  OAV   D T 601       4.430   3.340  10.845  1.00 53.06    -0.330 OA
HETATM   25  CAA   D T 601       5.691   2.776  10.995  1.00 49.21     0.181 C 
ENDBRANCH   8  24
BRANCH   9  26
HETATM   26  OAW   D T 601       1.759   4.038   9.760  1.00 56.28    -0.333 OA
BRANCH  26  27
HETATM   27  CAN   D T 601       0.555   4.753   9.667  1.00 46.95     0.150 C 
BRANCH  27  28
HETATM   28  CAM   D T 601      -0.265   4.501  10.931  1.00 47.26     0.056 C 
BRANCH  28  29
HETATM   29  CAC   D T 601      -1.716   4.252  10.541  1.00 49.87     0.100 C 
BRANCH  29  30
HETATM   30  NBH   D T 601      -2.296   3.185  11.431  1.00 58.32    -0.365 N 
HETATM   31  CAP   D T 601      -1.521   2.027  11.903  1.00 59.29     0.121 C 
HETATM   32  CAR   D T 601      -2.212   1.377  13.122  1.00 66.32     0.121 C 
HETATM   33  NBI   D T 601      -3.603   1.093  12.843  1.00 67.85    -0.364 N 
HETATM   34  CAO   D T 601      -4.249   0.120  13.720  1.00 55.13     0.121 C 
HETATM   35  CAS   D T 601      -4.304   2.263  12.390  1.00 63.26     0.121 C 
HETATM   36  CAQ   D T 601      -3.658   2.791  11.144  1.00 57.65     0.121 C 
ENDBRANCH  29  30
ENDBRANCH  28  29
ENDBRANCH  27  28
ENDBRANCH  26  27
ENDBRANCH   9  26
TORSDOF 9
ENDMDL
MODEL 2
REMARK VINA RESULT:    -6.820      4.696      8.143
REMARK INTER + INTRA:         -11.579
REMARK INTER:                  -9.902
REMARK INTRA:                  -1.677
REMARK UNBOUND:                -1.171
REMARK  9 active torsions:
REMARK  status: ('A' for Active; 'I' for Inactive)
REMARK    1  A    between atoms: O02_2  and  CAX_24 
REMARK    2  A    between atoms: CAC_3  and  CAM_13 
REMARK    3  A    between atoms: CAC_3  and  NBH_34 
REMARK    4  A    between atoms: CAM_13  and  CAN_14 
REMARK    5  A    between atoms: CAN_14  and  OAW_23 
REMARK    6  A    between atoms: NAU_21  and  CBB_28 
REMARK    7  A    between atoms: NAU_21  and  CBE_31 
REMARK    8  A    between atoms: OAV_22  and  CBC_29 
REMARK    9  A    between atoms: OAW_23  and  CBD_30 
ROOT
HETATM    1  NAD   D T 601       3.988   7.912   6.741  1.00 53.32    -0.191 NA
HETATM    2  CAG   D T 601       4.442   7.052   7.328  1.00 54.51     0.104 C 
HETATM    3  CAH   D T 601       6.157   5.146   7.449  1.00 43.80     0.110 A 
HETATM    4  CAK   D T 601       7.511   2.862  10.273  1.00 48.43     0.098 A 
HETATM    5  CAL   D T 601       5.299   4.319  11.735  1.00 51.67     0.082 A 
HETATM    6  NAT   D T 601       6.932   4.177   8.153  1.00 45.65    -0.247 NA
HETATM    7  CBA   D T 601       5.040   5.912   8.095  1.00 49.31     0.105 A 
HETATM    8  CBC   D T 601       6.139   3.297  12.436  1.00 53.00     0.095 A 
HETATM    9  CBD   D T 601       7.232   2.573  11.715  1.00 51.16     0.096 A 
HETATM   10  CBE   D T 601       4.702   5.665   9.562  1.00 54.84     0.090 A 
HETATM   11  CBF   D T 601       6.674   3.895   9.539  1.00 47.85     0.064 A 
HETATM   12  CBG   D T 601       5.563   4.619  10.285  1.00 51.63     0.017 A 
ENDROOT
BRANCH  10  13
HETATM   13  NAU   D T 601       3.635   6.363  10.320  1.00 54.01    -0.248 NA
BRANCH  13  14
HETATM   14  CBB   D T 601       2.245   5.941  10.245  1.00 54.80     0.072 A 
HETATM   15  CAJ   D T 601       1.967   4.468  10.122  1.00 55.55     0.098 A 
HETATM   16  CAX   D T 601       0.553   3.990  10.031  1.00 62.83     0.085 A 
HETATM   17  CAY   D T 601      -0.588   4.971  10.070  1.00 63.63     0.059 A 
HETATM   18 CL1    D T 601      -2.242   4.470   9.972  1.00 71.73    -0.085 Cl
HETATM   19  CAI   D T 601      -0.309   6.424  10.199  1.00 58.17     0.079 A 
HETATM   20  CAZ   D T 601       1.092   6.918  10.285  1.00 58.48     0.055 A 
HETATM   21 CL2    D T 601       1.301   8.638  10.437  1.00 88.78    -0.085 Cl
BRANCH  16  22
HETATM   22  O02   D T 601       0.343   2.639   9.910  1.00 70.52    -0.331 OA
HETATM   23  C01   D T 601       0.222   1.877  11.070  1.00 60.10     0.181 C 
ENDBRANCH  16  22
ENDBRANCH  13  14
ENDBRANCH  10  13
BRANCH   8  24
HETATM   24  OAV   D T 601       5.847   3.060  13.757  1.00 53.06    -0.330 OA
HETATM   25  CAA   D T 601       4.788   2.202  14.026  1.00 49.21     0.181 C 
ENDBRANCH   8  24
BRANCH   9  26
HETATM   26  OAW   D T 601       8.028   1.617  12.358  1.00 56.28    -0.333 OA
BRANCH  26  27
HETATM   27  CAN   D T 601       7.542   0.306  12.482  1.00 46.95     0.150 C 
BRANCH  27  28
HETATM   28  CAM   D T 601       8.285  -0.387  13.622  1.00 47.26     0.056 C 
BRANCH  28  29
HETATM   29  CAC   D T 601       8.635   0.644  14.687  1.00 49.87     0.100 C 
BRANCH  29  30
HETATM   30  NBH   D T 601       7.551   0.668  15.733  1.00 58.32    -0.365 N 
HETATM   31  CAP   D T 601       7.535   1.626  16.848  1.00 59.29     0.121 C 
HETATM   32  CAR   D T 601       6.122   1.709  17.466  1.00 66.32     0.121 C 
HETATM   33  NBI   D T 601       5.619   0.393  17.800  1.00 67.85    -0.364 N 
HETATM   34  CAO   D T 601       4.514   0.349  18.753  1.00 55.13     0.121 C 
HETATM   35  CAS   D T 601       5.659  -0.493  16.668  1.00 63.26     0.121 C 
HETATM   36  CAQ   D T 601       7.069  -0.623  16.175  1.00 57.65     0.121 C 
ENDBRANCH  29  30
ENDBRANCH  28  29
ENDBRANCH  27  28
ENDBRANCH  26  27
ENDBRANCH   9  26
TORSDOF 9
ENDMDL
MODEL 3
REMARK VINA RESULT:    -6.630      4.045     10.311
REMARK INTER + INTRA:         -11.289
REMARK INTER:                  -9.445
REMARK INTRA:                  -1.844
REMARK UNBOUND:                -1.171
REMARK  9 active torsions:
REMARK  status: ('A' for Active; 'I' for Inactive)
REMARK    1  A    between atoms: O02_2  and  CAX_24 
REMARK    2  A    between atoms: CAC_3  and  CAM_13 
REMARK    3  A    between atoms: CAC_3  and  NBH_34 
REMARK    4  A    between atoms: CAM_13  and  CAN_14 
REMARK    5  A    between atoms: CAN_14  and  OAW_23 
REMARK    6  A    between atoms: NAU_21  and  CBB_28 
REMARK    7  A    between atoms: NAU_21  and  CBE_31 
REMARK    8  A    between atoms: OAV_22  and  CBC_29 
REMARK    9  A    between atoms: OAW_23  and  CBD_30 
ROOT
HETATM    1  NAD   D T 601       4.812   3.279  11.165  1.00 53.32    -0.191 NA
HETATM    2  CAG   D T 601       5.392   4.017  10.523  1.00 54.51     0.104 C 
HETATM    3  CAH   D T 601       7.628   5.143   9.957  1.00 43.80     0.110 A 
HETATM    4  CAK   D T 601       8.929   7.314   7.021  1.00 48.43     0.098 A 
HETATM    5  CAL   D T 601       5.993   7.111   6.318  1.00 51.67     0.082 A 
HETATM    6  NAT   D T 601       8.496   5.887   9.103  1.00 45.65    -0.247 NA
HETATM    7  CBA   D T 601       6.159   4.994   9.686  1.00 49.31     0.105 A 
HETATM    8  CBC   D T 601       6.940   7.879   5.448  1.00 53.00     0.095 A 
HETATM    9  CBD   D T 601       8.391   7.983   5.795  1.00 51.16     0.096 A 
HETATM   10  CBE   D T 601       5.547   5.651   8.452  1.00 54.84     0.090 A 
HETATM   11  CBF   D T 601       7.990   6.529   7.920  1.00 47.85     0.064 A 
HETATM   12  CBG   D T 601       6.515   6.437   7.557  1.00 51.63     0.017 A 
ENDROOT
BRANCH  10  13
HETATM   13  NAU   D T 601       4.118   5.568   8.064  1.00 54.01    -0.248 NA
BRANCH  13  14
HETATM   14  CBB   D T 601       3.078   6.235   8.833  1.00 54.80     0.072 A 
HETATM   15  CAJ   D T 601       2.130   5.373   9.620  1.00 55.55     0.098 A 
HETATM   16  CAX   D T 601       1.039   6.014  10.416  1.00 62.83     0.085 A 
HETATM   17  CAY   D T 601       0.890   7.512  10.439  1.00 63.63     0.059 A 
HETATM   18 CL1    D T 601      -0.353   8.304  11.346  1.00 71.73    -0.085 Cl
HETATM   19  CAI   D T 601       1.833   8.359   9.666  1.00 58.17     0.079 A 
HETATM   20  CAZ   D T 601       2.922   7.738   8.864  1.00 58.48     0.055 A 
HETATM   21 CL2    D T 601       3.969   8.826   8.001  1.00 88.78    -0.085 Cl
BRANCH  16  22
HETATM   22  O02   D T 601       0.189   5.191  11.113  1.00 70.52    -0.331 OA
HETATM   23  C01   D T 601      -1.050   4.885  10.553  1.00 60.10     0.181 C 
ENDBRANCH  16  22
ENDBRANCH  13  14
ENDBRANCH  10  13
BRANCH   8  24
HETATM   24  OAV   D T 601       6.404   8.479   4.334  1.00 53.06    -0.330 OA
HETATM   25  CAA   D T 601       5.354   9.365   4.538  1.00 49.21     0.181 C 
ENDBRANCH   8  24
BRANCH   9  26
HETATM   26  OAW   D T 601       9.290   8.694   4.989  1.00 56.28    -0.333 OA
BRANCH  26  27
HETATM   27  CAN   D T 601      10.572   8.971   5.489  1.00 46.95     0.150 C 
BRANCH  27  28
HETATM   28  CAM   D T 601      10.829  10.473   5.374  1.00 47.26     0.056 C 
BRANCH  28  29
HETATM   29  CAC   D T 601      11.375  10.986   6.700  1.00 49.87     0.100 C 
BRANCH  29  30
HETATM   30  NBH   D T 601      10.503  10.492   7.824  1.00 58.32    -0.365 N 
HETATM   31  CAP   D T 601       9.216  11.112   8.172  1.00 59.29     0.121 C 
HETATM   32  CAR   D T 601       8.367  10.146   9.027  1.00 66.32     0.121 C 
HETATM   33  NBI   D T 601       9.119   9.651  10.160  1.00 67.85    -0.364 N 
HETATM   34  CAO   D T 601       8.336   9.087  11.255  1.00 55.13     0.121 C 
HETATM   35  CAS   D T 601      10.363   9.056   9.753  1.00 63.26     0.121 C 
HETATM   36  CAQ   D T 601      11.194  10.067   9.022  1.00 57.65     0.121 C 
ENDBRANCH  29  30
ENDBRANCH  28  29
ENDBRANCH  27  28
ENDBRANCH  26  27
ENDBRANCH   9  26
TORSDOF 9
ENDMDL
MODEL 4
REMARK VINA RESULT:    -6.618      2.054      2.914
REMARK INTER + INTRA:         -11.270
REMARK INTER:                  -9.850
REMARK INTRA:                  -1.420
REMARK UNBOUND:                -1.171
REMARK  9 active torsions:
REMARK  status: ('A' for Active; 'I' for Inactive)
REMARK    1  A    between atoms: O02_2  and  CAX_24 
REMARK    2  A    between atoms: CAC_3  and  CAM_13 
REMARK    3  A    between atoms: CAC_3  and  NBH_34 
REMARK    4  A    between atoms: CAM_13  and  CAN_14 
REMARK    5  A    between atoms: CAN_14  and  OAW_23 
REMARK    6  A    between atoms: NAU_21  and  CBB_28 
REMARK    7  A    between atoms: NAU_21  and  CBE_31 
REMARK    8  A    between atoms: OAV_22  and  CBC_29 
REMARK    9  A    between atoms: OAW_23  and  CBD_30 
ROOT
HETATM    1  NAD   D T 601      10.441   7.667   5.690  1.00 53.32    -0.191 NA
HETATM    2  CAG   D T 601       9.459   7.610   6.260  1.00 54.51     0.104 C 
HETATM    3  CAH   D T 601       7.565   8.831   7.489  1.00 43.80     0.110 A 
HETATM    4  CAK   D T 601       4.040   7.835   8.756  1.00 48.43     0.098 A 
HETATM    5  CAL   D T 601       5.097   5.148   7.851  1.00 51.67     0.082 A 
HETATM    6  NAT   D T 601       6.253   8.909   8.042  1.00 45.65    -0.247 NA
HETATM    7  CBA   D T 601       8.170   7.540   7.019  1.00 49.31     0.105 A 
HETATM    8  CBC   D T 601       3.724   5.275   8.435  1.00 53.00     0.095 A 
HETATM    9  CBD   D T 601       3.200   6.602   8.885  1.00 51.16     0.096 A 
HETATM   10  CBE   D T 601       7.366   6.246   7.123  1.00 54.84     0.090 A 
HETATM   11  CBF   D T 601       5.436   7.732   8.167  1.00 47.85     0.064 A 
HETATM   12  CBG   D T 601       5.957   6.374   7.719  1.00 51.63     0.017 A 
ENDROOT
BRANCH  10  13
HETATM   13  NAU   D T 601       7.841   4.912   6.683  1.00 54.01    -0.248 NA
BRANCH  13  14
HETATM   14  CBB   D T 601       8.643   4.063   7.550  1.00 54.80     0.072 A 
HETATM   15  CAJ   D T 601       8.587   4.322   9.030  1.00 55.55     0.098 A 
HETATM   16  CAX   D T 601       9.403   3.481   9.957  1.00 62.83     0.085 A 
HETATM   17  CAY   D T 601      10.272   2.375   9.419  1.00 63.63     0.059 A 
HETATM   18 CL1    D T 601      11.233   1.371  10.450  1.00 71.73    -0.085 Cl
HETATM   19  CAI   D T 601      10.319   2.118   7.958  1.00 58.17     0.079 A 
HETATM   20  CAZ   D T 601       9.517   2.949   7.019  1.00 58.48     0.055 A 
HETATM   21 CL2    D T 601       9.646   2.556   5.330  1.00 88.78    -0.085 Cl
BRANCH  16  22
HETATM   22  O02   D T 601       9.330   3.757  11.301  1.00 70.52    -0.331 OA
HETATM   23  C01   D T 601      10.172   4.734  11.827  1.00 60.10     0.181 C 
ENDBRANCH  16  22
ENDBRANCH  13  14
ENDBRANCH  10  13
BRANCH   8  24
HETATM   24  OAV   D T 601       2.988   4.120   8.538  1.00 53.06    -0.330 OA
HETATM   25  CAA   D T 601       3.103   3.402   9.722  1.00 49.21     0.181 C 
ENDBRANCH   8  24
BRANCH   9  26
HETATM   26  OAW   D T 601       1.916   6.738   9.429  1.00 56.28    -0.333 OA
BRANCH  26  27
HETATM   27  CAN   D T 601       1.778   6.811  10.824  1.00 46.95     0.150 C 
BRANCH  27  28
HETATM   28  CAM   D T 601       0.307   6.608  11.183  1.00 47.26     0.056 C 
BRANCH  28  29
HETATM   29  CAC   D T 601      -0.314   5.624  10.199  1.00 49.87     0.100 C 
BRANCH  29  30
HETATM   30  NBH   D T 601      -1.005   4.526  10.962  1.00 58.32    -0.365 N 
HETATM   31  CAP   D T 601      -0.295   3.358  11.505  1.00 59.29     0.121 C 
HETATM   32  CAR   D T 601      -1.149   2.665  12.590  1.00 66.32     0.121 C 
HETATM   33  NBI   D T 601      -2.482   2.382  12.104  1.00 67.85    -0.364 N 
HETATM   34  CAO   D T 601      -3.238   1.378  12.847  1.00 55.13     0.121 C 
HETATM   35  CAS   D T 601      -3.122   3.563  11.591  1.00 63.26     0.121 C 
HETATM   36  CAQ   D T 601      -2.307   4.134  10.468  1.00 57.65     0.121 C 
ENDBRANCH  29  30
ENDBRANCH  28  29
ENDBRANCH  27  28
ENDBRANCH  26  27
ENDBRANCH   9  26
TORSDOF 9
ENDMDL
MODEL 5
REMARK VINA RESULT:    -6.528      4.135      9.376
REMARK INTER + INTRA:         -11.134
REMARK INTER:                  -9.492
REMARK INTRA:                  -1.642
REMARK UNBOUND:                -1.171
REMARK  9 active torsions:
REMARK  status: ('A' for Active; 'I' for Inactive)
REMARK    1  A    between atoms: O02_2  and  CAX_24 
REMARK    2  A    between atoms: CAC_3  and  CAM_13 
REMARK    3  A    between atoms: CAC_3  and  NBH_34 
REMARK    4  A    between atoms: CAM_13  and  CAN_14 
REMARK    5  A    between atoms: CAN_14  and  OAW_23 
REMARK    6  A    between atoms: NAU_21  and  CBB_28 
REMARK    7  A    between atoms: NAU_21  and  CBE_31 
REMARK    8  A    between atoms: OAV_22  and  CBC_29 
REMARK    9  A    between atoms: OAW_23  and  CBD_30 
ROOT
HETATM    1  NAD   D T 601       3.985   8.367   7.155  1.00 53.32    -0.191 NA
HETATM    2  CAG   D T 601       4.424   7.433   7.630  1.00 54.51     0.104 C 
HETATM    3  CAH   D T 601       6.119   5.509   7.521  1.00 43.80     0.110 A 
HETATM    4  CAK   D T 601       7.420   2.864  10.038  1.00 48.43     0.098 A 
HETATM    5  CAL   D T 601       5.205   4.144  11.654  1.00 51.67     0.082 A 
HETATM    6  NAT   D T 601       6.877   4.448   8.100  1.00 45.65    -0.247 NA
HETATM    7  CBA   D T 601       5.002   6.197   8.248  1.00 49.31     0.105 A 
HETATM    8  CBC   D T 601       6.027   3.030  12.225  1.00 53.00     0.095 A 
HETATM    9  CBD   D T 601       7.121   2.394  11.427  1.00 51.16     0.096 A 
HETATM   10  CBE   D T 601       4.645   5.766   9.668  1.00 54.84     0.090 A 
HETATM   11  CBF   D T 601       6.601   3.992   9.435  1.00 47.85     0.064 A 
HETATM   12  CBG   D T 601       5.488   4.625  10.258  1.00 51.63     0.017 A 
ENDROOT
BRANCH  10  13
HETATM   13  NAU   D T 601       3.577   6.371  10.499  1.00 54.01    -0.248 NA
BRANCH  13  14
HETATM   14  CBB   D T 601       2.177   6.019  10.319  1.00 54.80     0.072 A 
HETATM   15  CAJ   D T 601       1.844   4.570  10.093  1.00 55.55     0.098 A 
HETATM   16  CAX   D T 601       0.420   4.163   9.892  1.00 62.83     0.085 A 
HETATM   17  CAY   D T 601      -0.679   5.192   9.921  1.00 63.63     0.059 A 
HETATM   18 CL1    D T 601      -2.343   4.773   9.697  1.00 71.73    -0.085 Cl
HETATM   19  CAI   D T 601      -0.346   6.620  10.151  1.00 58.17     0.079 A 
HETATM   20  CAZ   D T 601       1.067   7.045  10.348  1.00 58.48     0.055 A 
HETATM   21 CL2    D T 601       1.339   8.741  10.612  1.00 88.78    -0.085 Cl
BRANCH  16  22
HETATM   22  O02   D T 601       0.160   2.831   9.680  1.00 70.52    -0.331 OA
HETATM   23  C01   D T 601       0.174   1.968  10.773  1.00 60.10     0.181 C 
ENDBRANCH  16  22
ENDBRANCH  13  14
ENDBRANCH  10  13
BRANCH   8  24
HETATM   24  OAV   D T 601       5.718   2.628  13.502  1.00 53.06    -0.330 OA
HETATM   25  CAA   D T 601       6.327   3.314  14.545  1.00 49.21     0.181 C 
ENDBRANCH   8  24
BRANCH   9  26
HETATM   26  OAW   D T 601       7.901   1.354  11.950  1.00 56.28    -0.333 OA
BRANCH  26  27
HETATM   27  CAN   D T 601       8.116   0.211  11.164  1.00 46.95     0.150 C 
BRANCH  27  28
HETATM   28  CAM   D T 601       9.615   0.066  10.907  1.00 47.26     0.056 C 
BRANCH  28  29
HETATM   29  CAC   D T 601       9.828  -0.503   9.510  1.00 49.87     0.100 C 
BRANCH  29  30
HETATM   30  NBH   D T 601      10.066   0.626   8.543  1.00 58.32    -0.365 N 
HETATM   31  CAP   D T 601      10.122   0.435   7.086  1.00 59.29     0.121 C 
HETATM   32  CAR   D T 601       9.925   1.782   6.357  1.00 66.32     0.121 C 
HETATM   33  NBI   D T 601      10.833   2.788   6.864  1.00 67.85    -0.364 N 
HETATM   34  CAO   D T 601      11.050   3.950   6.007  1.00 55.13     0.121 C 
HETATM   35  CAS   D T 601      10.727   2.929   8.292  1.00 63.26     0.121 C 
HETATM   36  CAQ   D T 601      11.035   1.619   8.954  1.00 57.65     0.121 C 
ENDBRANCH  29  30
ENDBRANCH  28  29
ENDBRANCH  27  28
ENDBRANCH  26  27
ENDBRANCH   9  26
TORSDOF 9
ENDMDL
MODEL 6
REMARK VINA RESULT:    -6.490      4.776      9.021
REMARK INTER + INTRA:         -11.076
REMARK INTER:                  -9.593
REMARK INTRA:                  -1.483
REMARK UNBOUND:                -1.171
REMARK  9 active torsions:
REMARK  status: ('A' for Active; 'I' for Inactive)
REMARK    1  A    between atoms: O02_2  and  CAX_24 
REMARK    2  A    between atoms: CAC_3  and  CAM_13 
REMARK    3  A    between atoms: CAC_3  and  NBH_34 
REMARK    4  A    between atoms: CAM_13  and  CAN_14 
REMARK    5  A    between atoms: CAN_14  and  OAW_23 
REMARK    6  A    between atoms: NAU_21  and  CBB_28 
REMARK    7  A    between atoms: NAU_21  and  CBE_31 
REMARK    8  A    between atoms: OAV_22  and  CBC_29 
REMARK    9  A    between atoms: OAW_23  and  CBD_30 
ROOT
HETATM    1  NAD   D T 601       3.417   7.408   6.313  1.00 53.32    -0.191 NA
HETATM    2  CAG   D T 601       4.011   6.781   7.051  1.00 54.51     0.104 C 
HETATM    3  CAH   D T 601       5.965   5.174   7.487  1.00 43.80     0.110 A 
HETATM    4  CAK   D T 601       7.757   3.846  10.656  1.00 48.43     0.098 A 
HETATM    5  CAL   D T 601       5.456   5.365  11.902  1.00 51.67     0.082 A 
HETATM    6  NAT   D T 601       6.897   4.508   8.337  1.00 45.65    -0.247 NA
HETATM    7  CBA   D T 601       4.794   5.947   8.019  1.00 49.31     0.105 A 
HETATM    8  CBC   D T 601       6.459   4.654  12.757  1.00 53.00     0.095 A 
HETATM    9  CBD   D T 601       7.597   3.900  12.143  1.00 51.16     0.096 A 
HETATM   10  CBE   D T 601       4.571   6.042   9.526  1.00 54.84     0.090 A 
HETATM   11  CBF   D T 601       6.754   4.558   9.766  1.00 47.85     0.064 A 
HETATM   12  CBG   D T 601       5.600   5.316  10.406  1.00 51.63     0.017 A 
ENDROOT
BRANCH  10  13
HETATM   13  NAU   D T 601       3.465   6.783  10.178  1.00 54.01    -0.248 NA
BRANCH  13  14
HETATM   14  CBB   D T 601       2.110   6.256  10.215  1.00 54.80     0.072 A 
HETATM   15  CAJ   D T 601       1.934   4.769  10.077  1.00 55.55     0.098 A 
HETATM   16  CAX   D T 601       0.559   4.184  10.098  1.00 62.83     0.085 A 
HETATM   17  CAY   D T 601      -0.645   5.072  10.265  1.00 63.63     0.059 A 
HETATM   18 CL1    D T 601      -2.258   4.446  10.300  1.00 71.73    -0.085 Cl
HETATM   19  CAI   D T 601      -0.467   6.539  10.408  1.00 58.17     0.079 A 
HETATM   20  CAZ   D T 601       0.895   7.140  10.384  1.00 58.48     0.055 A 
HETATM   21 CL2    D T 601       0.985   8.867  10.564  1.00 88.78    -0.085 Cl
BRANCH  16  22
HETATM   22  O02   D T 601       0.442   2.823   9.960  1.00 70.52    -0.331 OA
HETATM   23  C01   D T 601       0.420   2.036  11.108  1.00 60.10     0.181 C 
ENDBRANCH  16  22
ENDBRANCH  13  14
ENDBRANCH  10  13
BRANCH   8  24
HETATM   24  OAV   D T 601       6.273   4.728  14.116  1.00 53.06    -0.330 OA
HETATM   25  CAA   D T 601       5.595   3.675  14.718  1.00 49.21     0.181 C 
ENDBRANCH   8  24
BRANCH   9  26
HETATM   26  OAW   D T 601       8.545   3.234  12.930  1.00 56.28    -0.333 OA
BRANCH  26  27
HETATM   27  CAN   D T 601       8.879   1.909  12.609  1.00 46.95     0.150 C 
BRANCH  27  28
HETATM   28  CAM   D T 601       7.710   1.003  12.990  1.00 47.26     0.056 C 
BRANCH  28  29
HETATM   29  CAC   D T 601       7.736  -0.240  12.110  1.00 49.87     0.100 C 
BRANCH  29  30
HETATM   30  NBH   D T 601       8.753  -1.212  12.649  1.00 58.32    -0.365 N 
HETATM   31  CAP   D T 601       9.200  -2.399  11.905  1.00 59.29     0.121 C 
HETATM   32  CAR   D T 601      10.530  -2.929  12.486  1.00 66.32     0.121 C 
HETATM   33  NBI   D T 601      10.435  -3.120  13.917  1.00 67.85    -0.364 N 
HETATM   34  CAO   D T 601      11.440  -3.993  14.517  1.00 55.13     0.121 C 
HETATM   35  CAS   D T 601       9.996  -1.925  14.585  1.00 63.26     0.121 C 
HETATM   36  CAQ   D T 601       8.652  -1.515  14.060  1.00 57.65     0.121 C 
ENDBRANCH  29  30
ENDBRANCH  28  29
ENDBRANCH  27  28
ENDBRANCH  26  27
ENDBRANCH   9  26
TORSDOF 9
ENDMDL
MODEL 7
REMARK VINA RESULT:    -6.461      2.527      3.526
REMARK INTER + INTRA:         -11.030
REMARK INTER:                  -9.713
REMARK INTRA:                  -1.317
REMARK UNBOUND:                -1.171
REMARK  9 active torsions:
REMARK  status: ('A' for Active; 'I' for Inactive)
REMARK    1  A    between atoms: O02_2  and  CAX_24 
REMARK    2  A    between atoms: CAC_3  and  CAM_13 
REMARK    3  A    between atoms: CAC_3  and  NBH_34 
REMARK    4  A    between atoms: CAM_13  and  CAN_14 
REMARK    5  A    between atoms: CAN_14  and  OAW_23 
REMARK    6  A    between atoms: NAU_21  and  CBB_28 
REMARK    7  A    between atoms: NAU_21  and  CBE_31 
REMARK    8  A    between atoms: OAV_22  and  CBC_29 
REMARK    9  A    between atoms: OAW_23  and  CBD_30 
ROOT
HETATM    1  NAD   D T 601       8.349   8.648   4.886  1.00 53.32    -0.191 NA
HETATM    2  CAG   D T 601       7.523   8.247   5.555  1.00 54.51     0.104 C 
HETATM    3  CAH   D T 601       5.052   8.285   6.250  1.00 43.80     0.110 A 
HETATM    4  CAK   D T 601       2.788   6.012   8.424  1.00 48.43     0.098 A 
HETATM    5  CAL   D T 601       5.495   4.753   8.917  1.00 51.67     0.082 A 
HETATM    6  NAT   D T 601       3.903   7.732   6.890  1.00 45.65    -0.247 NA
HETATM    7  CBA   D T 601       6.432   7.727   6.441  1.00 49.31     0.105 A 
HETATM    8  CBC   D T 601       4.262   4.203   9.566  1.00 53.00     0.095 A 
HETATM    9  CBD   D T 601       2.923   4.825   9.325  1.00 51.16     0.096 A 
HETATM   10  CBE   D T 601       6.640   6.517   7.347  1.00 54.84     0.090 A 
HETATM   11  CBF   D T 601       4.022   6.590   7.754  1.00 47.85     0.064 A 
HETATM   12  CBG   D T 601       5.378   5.948   8.012  1.00 51.63     0.017 A 
ENDROOT
BRANCH  10  13
HETATM   13  NAU   D T 601       7.945   5.863   7.608  1.00 54.01    -0.248 NA
BRANCH  13  14
HETATM   14  CBB   D T 601       8.947   6.473   8.468  1.00 54.80     0.072 A 
HETATM   15  CAJ   D T 601       8.577   6.723   9.904  1.00 55.55     0.098 A 
HETATM   16  CAX   D T 601       9.572   7.359  10.821  1.00 62.83     0.085 A 
HETATM   17  CAY   D T 601      10.938   7.740  10.318  1.00 63.63     0.059 A 
HETATM   18 CL1    D T 601      12.127   8.475  11.339  1.00 71.73    -0.085 Cl
HETATM   19  CAI   D T 601      11.302   7.485   8.902  1.00 58.17     0.079 A 
HETATM   20  CAZ   D T 601      10.322   6.858   7.972  1.00 58.48     0.055 A 
HETATM   21 CL2    D T 601      10.856   6.603   6.338  1.00 88.78    -0.085 Cl
BRANCH  16  22
HETATM   22  O02   D T 601       9.191   7.578  12.122  1.00 70.52    -0.331 OA
HETATM   23  C01   D T 601       9.085   6.485  12.979  1.00 60.10     0.181 C 
ENDBRANCH  16  22
ENDBRANCH  13  14
ENDBRANCH  10  13
BRANCH   8  24
HETATM   24  OAV   D T 601       4.432   3.115  10.387  1.00 53.06    -0.330 OA
HETATM   25  CAA   D T 601       5.628   3.034  11.089  1.00 49.21     0.181 C 
ENDBRANCH   8  24
BRANCH   9  26
HETATM   26  OAW   D T 601       1.761   4.319   9.922  1.00 56.28    -0.333 OA
BRANCH  26  27
HETATM   27  CAN   D T 601       0.651   5.166  10.064  1.00 46.95     0.150 C 
BRANCH  27  28
HETATM   28  CAM   D T 601      -0.352   4.507  11.009  1.00 47.26     0.056 C 
BRANCH  28  29
HETATM   29  CAC   D T 601      -0.767   3.159  10.432  1.00 49.87     0.100 C 
BRANCH  29  30
HETATM   30  NBH   D T 601      -1.731   2.489  11.375  1.00 58.32    -0.365 N 
HETATM   31  CAP   D T 601      -3.011   3.091  11.774  1.00 59.29     0.121 C 
HETATM   32  CAR   D T 601      -3.954   2.015  12.356  1.00 66.32     0.121 C 
HETATM   33  NBI   D T 601      -3.300   1.255  13.399  1.00 67.85    -0.364 N 
HETATM   34  CAO   D T 601      -4.176   0.518  14.304  1.00 55.13     0.121 C 
HETATM   35  CAS   D T 601      -2.057   0.691  12.945  1.00 63.26     0.121 C 
HETATM   36  CAQ   D T 601      -1.138   1.786  12.493  1.00 57.65     0.121 C 
ENDBRANCH  29  30
ENDBRANCH  28  29
ENDBRANCH  27  28
ENDBRANCH  26  27
ENDBRANCH   9  26
TORSDOF 9
ENDMDL
MODEL 8
REMARK VINA RESULT:    -6.448      2.167      2.956
REMARK INTER + INTRA:         -11.011
REMARK INTER:                  -9.695
REMARK INTRA:                  -1.316
REMARK UNBOUND:                -1.171
REMARK  9 active torsions:
REMARK  status: ('A' for Active; 'I' for Inactive)
REMARK    1  A    between atoms: O02_2  and  CAX_24 
REMARK    2  A    between atoms: CAC_3  and  CAM_13 
REMARK    3  A    between atoms: CAC_3  and  NBH_34 
REMARK    4  A    between atoms: CAM_13  and  CAN_14 
REMARK    5  A    between atoms: CAN_14  and  OAW_23 
REMARK    6  A    between atoms: NAU_21  and  CBB_28 
REMARK    7  A    between atoms: NAU_21  and  CBE_31 
REMARK    8  A    between atoms: OAV_22  and  CBC_29 
REMARK    9  A    between atoms: OAW_23  and  CBD_30 
ROOT
HETATM    1  NAD   D T 601       8.867   7.329   6.543  1.00 53.32    -0.191 NA
HETATM    2  CAG   D T 601       7.892   7.196   7.112  1.00 54.51     0.104 C 
HETATM    3  CAH   D T 601       5.797   8.256   8.148  1.00 43.80     0.110 A 
HETATM    4  CAK   D T 601       2.441   6.894   9.529  1.00 48.43     0.098 A 
HETATM    5  CAL   D T 601       3.934   4.312   9.019  1.00 51.67     0.082 A 
HETATM    6  NAT   D T 601       4.474   8.199   8.679  1.00 45.65    -0.247 NA
HETATM    7  CBA   D T 601       6.610   7.027   7.868  1.00 49.31     0.105 A 
HETATM    8  CBC   D T 601       2.543   4.298   9.573  1.00 53.00     0.095 A 
HETATM    9  CBD   D T 601       1.804   5.574   9.829  1.00 51.16     0.096 A 
HETATM   10  CBE   D T 601       6.019   5.648   8.151  1.00 54.84     0.090 A 
HETATM   11  CBF   D T 601       3.851   6.936   8.967  1.00 47.85     0.064 A 
HETATM   12  CBG   D T 601       4.592   5.630   8.717  1.00 51.63     0.017 A 
ENDROOT
BRANCH  10  13
HETATM   13  NAU   D T 601       6.710   4.359   7.907  1.00 54.01    -0.248 NA
BRANCH  13  14
HETATM   14  CBB   D T 601       7.635   3.792   8.877  1.00 54.80     0.072 A 
HETATM   15  CAJ   D T 601       7.079   3.369  10.208  1.00 55.55     0.098 A 
HETATM   16  CAX   D T 601       7.995   2.792  11.239  1.00 62.83     0.085 A 
HETATM   17  CAY   D T 601       9.463   2.626  10.949  1.00 63.63     0.059 A 
HETATM   18 CL1    D T 601      10.564   1.961  12.106  1.00 71.73    -0.085 Cl
HETATM   19  CAI   D T 601      10.006   3.039   9.631  1.00 58.17     0.079 A 
HETATM   20  CAZ   D T 601       9.110   3.620   8.594  1.00 58.48     0.055 A 
HETATM   21 CL2    D T 601       9.853   4.065   7.086  1.00 88.78    -0.085 Cl
BRANCH  16  22
HETATM   22  O02   D T 601       7.449   2.427  12.445  1.00 70.52    -0.331 OA
HETATM   23  C01   D T 601       6.660   3.351  13.126  1.00 60.10     0.181 C 
ENDBRANCH  16  22
ENDBRANCH  13  14
ENDBRANCH  10  13
BRANCH   8  24
HETATM   24  OAV   D T 601       1.997   3.066   9.836  1.00 53.06    -0.330 OA
HETATM   25  CAA   D T 601       1.989   2.648  11.161  1.00 49.21     0.181 C 
ENDBRANCH   8  24
BRANCH   9  26
HETATM   26  OAW   D T 601       0.500   5.576  10.343  1.00 56.28    -0.333 OA
BRANCH  26  27
HETATM   27  CAN   D T 601      -0.566   5.279   9.480  1.00 46.95     0.150 C 
BRANCH  27  28
HETATM   28  CAM   D T 601      -1.370   4.123  10.072  1.00 47.26     0.056 C 
BRANCH  28  29
HETATM   29  CAC   D T 601      -1.117   4.060  11.573  1.00 49.87     0.100 C 
BRANCH  29  30
HETATM   30  NBH   D T 601      -2.015   3.018  12.187  1.00 58.32    -0.365 N 
HETATM   31  CAP   D T 601      -1.506   1.784  12.803  1.00 59.29     0.121 C 
HETATM   32  CAR   D T 601      -2.580   1.157  13.719  1.00 66.32     0.121 C 
HETATM   33  NBI   D T 601      -3.838   1.002  13.020  1.00 67.85    -0.364 N 
HETATM   34  CAO   D T 601      -4.788   0.062  13.606  1.00 55.13     0.121 C 
HETATM   35  CAS   D T 601      -4.281   2.243  12.444  1.00 63.26     0.121 C 
HETATM   36  CAQ   D T 601      -3.250   2.752  11.482  1.00 57.65     0.121 C 
ENDBRANCH  29  30
ENDBRANCH  28  29
ENDBRANCH  27  28
ENDBRANCH  26  27
ENDBRANCH   9  26
TORSDOF 9
ENDMDL
MODEL 9
REMARK VINA RESULT:    -6.371      3.077      4.484
REMARK INTER + INTRA:         -10.894
REMARK INTER:                  -9.618
REMARK INTRA:                  -1.276
REMARK UNBOUND:                -1.171
REMARK  9 active torsions:
REMARK  status: ('A' for Active; 'I' for Inactive)
REMARK    1  A    between atoms: O02_2  and  CAX_24 
REMARK    2  A    between atoms: CAC_3  and  CAM_13 
REMARK    3  A    between atoms: CAC_3  and  NBH_34 
REMARK    4  A    between atoms: CAM_13  and  CAN_14 
REMARK    5  A    between atoms: CAN_14  and  OAW_23 
REMARK    6  A    between atoms: NAU_21  and  CBB_28 
REMARK    7  A    between atoms: NAU_21  and  CBE_31 
REMARK    8  A    between atoms: OAV_22  and  CBC_29 
REMARK    9  A    between atoms: OAW_23  and  CBD_30 
ROOT
HETATM    1  NAD   D T 601       9.412   9.281   5.096  1.00 53.32    -0.191 NA
HETATM    2  CAG   D T 601       8.450   8.928   5.586  1.00 54.51     0.104 C 
HETATM    3  CAH   D T 601       5.895   8.692   5.482  1.00 43.80     0.110 A 
HETATM    4  CAK   D T 601       3.249   6.707   7.501  1.00 48.43     0.098 A 
HETATM    5  CAL   D T 601       5.738   6.153   9.131  1.00 51.67     0.082 A 
HETATM    6  NAT   D T 601       4.654   8.127   5.899  1.00 45.65    -0.247 NA
HETATM    7  CBA   D T 601       7.177   8.472   6.232  1.00 49.31     0.105 A 
HETATM    8  CBC   D T 601       4.414   5.578   9.531  1.00 53.00     0.095 A 
HETATM    9  CBD   D T 601       3.182   5.852   8.729  1.00 51.16     0.096 A 
HETATM   10  CBE   D T 601       7.178   7.611   7.492  1.00 54.84     0.090 A 
HETATM   11  CBF   D T 601       4.579   7.302   7.074  1.00 47.85     0.064 A 
HETATM   12  CBG   D T 601       5.823   7.018   7.904  1.00 51.63     0.017 A 
ENDROOT
BRANCH  10  13
HETATM   13  NAU   D T 601       8.374   7.305   8.313  1.00 54.01    -0.248 NA
BRANCH  13  14
HETATM   14  CBB   D T 601       8.698   8.073   9.506  1.00 54.80     0.072 A 
HETATM   15  CAJ   D T 601       8.590   9.571   9.423  1.00 55.55     0.098 A 
HETATM   16  CAX   D T 601       8.925  10.401  10.621  1.00 62.83     0.085 A 
HETATM   17  CAY   D T 601       9.360   9.747  11.905  1.00 63.63     0.059 A 
HETATM   18 CL1    D T 601       9.754  10.661  13.321  1.00 71.73    -0.085 Cl
HETATM   19  CAI   D T 601       9.457   8.268  11.984  1.00 58.17     0.079 A 
HETATM   20  CAZ   D T 601       9.134   7.425  10.800  1.00 58.48     0.055 A 
HETATM   21 CL2    D T 601       9.280   5.705  11.007  1.00 88.78    -0.085 Cl
BRANCH  16  22
HETATM   22  O02   D T 601       8.822  11.765  10.501  1.00 70.52    -0.331 OA
HETATM   23  C01   D T 601       7.636  12.381  10.892  1.00 60.10     0.181 C 
ENDBRANCH  16  22
ENDBRANCH  13  14
ENDBRANCH  10  13
BRANCH   8  24
HETATM   24  OAV   D T 601       4.396   4.802  10.665  1.00 53.06    -0.330 OA
HETATM   25  CAA   D T 601       4.466   3.426  10.489  1.00 49.21     0.181 C 
ENDBRANCH   8  24
BRANCH   9  26
HETATM   26  OAW   D T 601       1.937   5.318   9.088  1.00 56.28    -0.333 OA
BRANCH  26  27
HETATM   27  CAN   D T 601       1.069   6.096   9.869  1.00 46.95     0.150 C 
BRANCH  27  28
HETATM   28  CAM   D T 601      -0.231   5.321  10.078  1.00 47.26     0.056 C 
BRANCH  28  29
HETATM   29  CAC   D T 601       0.098   3.853  10.312  1.00 49.87     0.100 C 
BRANCH  29  30
HETATM   30  NBH   D T 601      -1.051   3.192  11.026  1.00 58.32    -0.365 N 
HETATM   31  CAP   D T 601      -2.391   3.790  11.113  1.00 59.29     0.121 C 
HETATM   32  CAR   D T 601      -3.437   2.718  11.489  1.00 66.32     0.121 C 
HETATM   33  NBI   D T 601      -3.032   1.984  12.669  1.00 67.85    -0.364 N 
HETATM   34  CAO   D T 601      -4.087   1.256  13.367  1.00 55.13     0.121 C 
HETATM   35  CAS   D T 601      -1.717   1.422  12.519  1.00 63.26     0.121 C 
HETATM   36  CAQ   D T 601      -0.724   2.517  12.264  1.00 57.65     0.121 C 
ENDBRANCH  29  30
ENDBRANCH  28  29
ENDBRANCH  27  28
ENDBRANCH  26  27
ENDBRANCH   9  26
TORSDOF 9
ENDMDL
