MODEL 1
REMARK VINA RESULT:    -6.460      0.000      0.000
REMARK INTER + INTRA:          -6.617
REMARK INTER:                  -7.971
REMARK INTRA:                   1.353
REMARK UNBOUND:                 1.353
REMARK  5 active torsions:
REMARK  status: ('A' for Active; 'I' for Inactive)
REMARK       I    between atoms: NBM_14  and  CAY_34 
REMARK    1  A    between atoms: NBM_14  and  CBL_43 
REMARK    2  A    between atoms: NBN_24  and  CBK_31 
REMARK    3  A    between atoms: CBQ_25  and  NBO_42 
REMARK    4  A    between atoms: CBP_26  and  OAV_27 
REMARK    5  A    between atoms: CAY_34  and  CAZ_36 
ROOT
HETATM    1  CBQ   D T 501      52.613  27.449 -14.305  1.00 50.59     0.192 C 
HETATM    2  CBP   D T 501      51.593  27.891 -13.226  1.00 51.47     0.181 C 
HETATM    3  CAC   D T 501      53.738  26.671 -13.619  1.00 49.86     0.057 C 
HETATM    4  OAW   D T 501      53.267  28.573 -14.900  1.00 50.94    -0.319 OA
HETATM    5  CBK   D T 501      52.559  29.815 -15.028  1.00 51.68     0.208 C 
HETATM    6  CAT   D T 501      51.867  30.255 -13.753  1.00 52.45     0.079 C 
HETATM    7  CBL   D T 501      52.101  29.197 -12.685  1.00 53.19     0.120 C 
ENDROOT
BRANCH   7   8
HETATM    8  NBM   D T 501      51.456  29.656 -11.446  1.00 56.59    -0.314 N 
HETATM    9  CAB   D T 501      50.659  30.904 -11.447  1.00 55.78     0.129 C 
HETATM   10  CAY   D T 501      51.670  28.953 -10.299  1.00 60.97     0.257 C 
HETATM   11  OAE   D T 501      52.363  27.929 -10.267  1.00 63.13    -0.267 OA
BRANCH  10  12
HETATM   12  CAZ   D T 501      51.190  29.449  -9.091  1.00 63.15     0.056 A 
HETATM   13  CAM   D T 501      49.942  29.079  -8.602  1.00 63.31     0.005 A 
HETATM   14  CAG   D T 501      49.521  29.570  -7.367  1.00 63.55     0.000 A 
HETATM   15  CAF   D T 501      50.344  30.417  -6.620  1.00 64.46     0.000 A 
HETATM   16  CAH   D T 501      51.602  30.776  -7.101  1.00 64.03     0.000 A 
HETATM   17  CAN   D T 501      52.028  30.278  -8.330  1.00 64.07     0.005 A 
ENDBRANCH  10  12
ENDBRANCH   7   8
BRANCH   2  18
HETATM   18  OAV   D T 501      50.281  28.079 -13.823  1.00 51.71    -0.348 OA
HETATM   19  CAA   D T 501      49.165  27.745 -13.003  1.00 53.01     0.174 C 
ENDBRANCH   2  18
BRANCH   1  20
HETATM   20  NBO   D T 501      51.906  26.720 -15.413  1.00 51.03    -0.306 N 
HETATM   21  CBJ   D T 501      51.269  25.540 -15.269  1.00 50.94     0.078 A 
HETATM   22  CBI   D T 501      51.063  24.748 -14.194  1.00 51.53     0.078 A 
HETATM   23  CBG   D T 501      50.774  25.180 -16.452  1.00 50.22     0.020 A 
HETATM   24  CBH   D T 501      50.372  23.585 -14.290  1.00 51.25     0.023 A 
HETATM   25  NBN   D T 501      51.471  24.902 -12.933  1.00 50.08    -0.304 N 
HETATM   26  CBB   D T 501      49.866  23.209 -15.501  1.00 50.95     0.061 A 
HETATM   27  CBC   D T 501      50.358  23.050 -13.051  1.00 50.16     0.018 A 
HETATM   28  CAX   D T 501      49.140  22.142 -15.945  1.00 50.99     0.279 A 
HETATM   29  CBA   D T 501      50.082  24.025 -16.565  1.00 49.90     0.025 A 
HETATM   30  OAD   D T 501      48.717  21.196 -15.277  1.00 50.93    -0.265 OA
HETATM   31  NAU   D T 501      48.855  22.223 -17.230  1.00 48.81    -0.206 NA
HETATM   32  CAS   D T 501      49.485  23.453 -17.693  1.00 49.83     0.102 A 
HETATM   33  CAO   D T 501      49.826  21.929 -12.548  1.00 50.61     0.002 A 
HETATM   34  CBE   D T 501      51.028  23.875 -12.215  1.00 50.79     0.062 A 
HETATM   35  CAI   D T 501      49.954  21.597 -11.192  1.00 49.90     0.000 A 
HETATM   36  CAK   D T 501      50.646  22.445 -10.350  1.00 49.08     0.002 A 
HETATM   37  CAQ   D T 501      51.180  23.601 -10.900  1.00 49.54     0.017 A 
HETATM   38  CBD   D T 501      51.129  26.130 -17.338  1.00 49.67     0.017 A 
HETATM   39  CAP   D T 501      50.893  26.244 -18.652  1.00 49.34     0.002 A 
HETATM   40  CBF   D T 501      51.829  27.079 -16.699  1.00 49.59     0.062 A 
HETATM   41  CAJ   D T 501      51.376  27.315 -19.393  1.00 48.60     0.000 A 
HETATM   42  CAL   D T 501      52.102  28.286 -18.729  1.00 49.77     0.002 A 
HETATM   43  CAR   D T 501      52.302  28.145 -17.363  1.00 48.78     0.017 A 
ENDBRANCH   1  20
TORSDOF 5
ENDMDL
MODEL 2
REMARK VINA RESULT:    -6.393      2.682      6.579
REMARK INTER + INTRA:          -6.534
REMARK INTER:                  -7.937
REMARK INTRA:                   1.403
REMARK UNBOUND:                 1.353
REMARK  5 active torsions:
REMARK  status: ('A' for Active; 'I' for Inactive)
REMARK       I    between atoms: NBM_14  and  CAY_34 
REMARK    1  A    between atoms: NBM_14  and  CBL_43 
REMARK    2  A    between atoms: NBN_24  and  CBK_31 
REMARK    3  A    between atoms: CBQ_25  and  NBO_42 
REMARK    4  A    between atoms: CBP_26  and  OAV_27 
REMARK    5  A    between atoms: CAY_34  and  CAZ_36 
ROOT
HETATM    1  CBQ   D T 501      49.448  23.105 -15.440  1.00 50.59     0.192 C 
HETATM    2  CBP   D T 501      50.735  23.803 -14.933  1.00 51.47     0.181 C 
HETATM    3  CAC   D T 501      48.425  24.182 -15.808  1.00 49.86     0.057 C 
HETATM    4  OAW   D T 501      48.817  22.352 -14.402  1.00 50.94    -0.319 OA
HETATM    5  CBK   D T 501      49.623  21.748 -13.378  1.00 51.68     0.208 C 
HETATM    6  CAT   D T 501      50.637  22.693 -12.766  1.00 52.45     0.079 C 
HETATM    7  CBL   D T 501      50.528  24.040 -13.465  1.00 53.19     0.120 C 
ENDROOT
BRANCH   7   8
HETATM    8  NBM   D T 501      51.492  24.955 -12.835  1.00 56.59    -0.314 N 
HETATM    9  CAB   D T 501      52.683  24.411 -12.143  1.00 55.78     0.129 C 
HETATM   10  CAY   D T 501      51.224  26.291 -12.841  1.00 60.97     0.257 C 
HETATM   11  OAE   D T 501      50.217  26.764 -13.380  1.00 63.13    -0.267 OA
BRANCH  10  12
HETATM   12  CAZ   D T 501      52.045  27.158 -12.127  1.00 63.15     0.056 A 
HETATM   13  CAM   D T 501      52.970  27.972 -12.771  1.00 63.31     0.005 A 
HETATM   14  CAG   D T 501      53.743  28.854 -12.016  1.00 63.55     0.000 A 
HETATM   15  CAF   D T 501      53.586  28.931 -10.630  1.00 64.46     0.000 A 
HETATM   16  CAH   D T 501      52.648  28.127  -9.985  1.00 64.03     0.000 A 
HETATM   17  CAN   D T 501      51.868  27.253 -10.738  1.00 64.07     0.005 A 
ENDBRANCH  10  12
ENDBRANCH   7   8
BRANCH   2  18
HETATM   18  OAV   D T 501      51.888  22.941 -15.139  1.00 51.71    -0.348 OA
HETATM   19  CAA   D T 501      53.086  23.586 -15.561  1.00 53.01     0.174 C 
ENDBRANCH   2  18
BRANCH   1  20
HETATM   20  NBO   D T 501      49.787  22.135 -16.537  1.00 51.03    -0.306 N 
HETATM   21  CBJ   D T 501      50.324  22.479 -17.725  1.00 50.94     0.078 A 
HETATM   22  CBI   D T 501      50.712  23.669 -18.233  1.00 51.53     0.078 A 
HETATM   23  CBG   D T 501      50.476  21.376 -18.455  1.00 50.22     0.020 A 
HETATM   24  CBH   D T 501      51.244  23.773 -19.475  1.00 51.25     0.023 A 
HETATM   25  NBN   D T 501      50.644  24.888 -17.692  1.00 50.08    -0.304 N 
HETATM   26  CBB   D T 501      51.397  22.646 -20.230  1.00 50.95     0.061 A 
HETATM   27  CBC   D T 501      51.511  25.083 -19.664  1.00 50.16     0.018 A 
HETATM   28  CAX   D T 501      51.886  22.390 -21.479  1.00 50.99     0.279 A 
HETATM   29  CBA   D T 501      51.005  21.461 -19.696  1.00 49.90     0.025 A 
HETATM   30  OAD   D T 501      52.368  23.200 -22.273  1.00 50.93    -0.265 OA
HETATM   31  NAU   D T 501      51.852  21.107 -21.782  1.00 48.81    -0.206 NA
HETATM   32  CAS   D T 501      51.248  20.450 -20.630  1.00 49.83     0.102 A 
HETATM   33  CAO   D T 501      52.040  25.767 -20.686  1.00 50.61     0.002 A 
HETATM   34  CBE   D T 501      51.150  25.763 -18.553  1.00 50.79     0.062 A 
HETATM   35  CAI   D T 501      52.219  27.156 -20.629  1.00 49.90     0.000 A 
HETATM   36  CAK   D T 501      51.840  27.840 -19.490  1.00 49.08     0.002 A 
HETATM   37  CAQ   D T 501      51.300  27.102 -18.447  1.00 49.54     0.017 A 
HETATM   38  CBD   D T 501      50.007  20.346 -17.724  1.00 49.67     0.017 A 
HETATM   39  CAP   D T 501      49.921  19.037 -17.997  1.00 49.34     0.002 A 
HETATM   40  CBF   D T 501      49.579  20.813 -16.542  1.00 49.59     0.062 A 
HETATM   41  CAJ   D T 501      49.376  18.135 -17.092  1.00 48.60     0.000 A 
HETATM   42  CAL   D T 501      48.932  18.625 -15.878  1.00 49.77     0.002 A 
HETATM   43  CAR   D T 501      49.062  19.982 -15.624  1.00 48.78     0.017 A 
ENDBRANCH   1  20
TORSDOF 5
ENDMDL
MODEL 3
REMARK VINA RESULT:    -5.790     22.320     25.275
REMARK INTER + INTRA:          -5.791
REMARK INTER:                  -7.109
REMARK INTRA:                   1.319
REMARK UNBOUND:                 1.353
REMARK  5 active torsions:
REMARK  status: ('A' for Active; 'I' for Inactive)
REMARK       I    between atoms: NBM_14  and  CAY_34 
REMARK    1  A    between atoms: NBM_14  and  CBL_43 
REMARK    2  A    between atoms: NBN_24  and  CBK_31 
REMARK    3  A    between atoms: CBQ_25  and  NBO_42 
REMARK    4  A    between atoms: CBP_26  and  OAV_27 
REMARK    5  A    between atoms: CAY_34  and  CAZ_36 
ROOT
HETATM    1  CBQ   D T 501      28.923  33.247  -1.639  1.00 50.59     0.192 C 
HETATM    2  CBP   D T 501      30.137  33.541  -2.554  1.00 51.47     0.181 C 
HETATM    3  CAC   D T 501      27.759  34.141  -2.074  1.00 49.86     0.057 C 
HETATM    4  OAW   D T 501      29.181  33.630  -0.286  1.00 50.94    -0.319 OA
HETATM    5  CBK   D T 501      30.520  33.550   0.227  1.00 51.68     0.208 C 
HETATM    6  CAT   D T 501      31.557  34.182  -0.679  1.00 52.45     0.079 C 
HETATM    7  CBL   D T 501      30.857  34.701  -1.928  1.00 53.19     0.120 C 
ENDROOT
BRANCH   7   8
HETATM    8  NBM   D T 501      31.870  35.344  -2.778  1.00 56.59    -0.314 N 
HETATM    9  CAB   D T 501      33.301  35.002  -2.610  1.00 55.78     0.129 C 
HETATM   10  CAY   D T 501      31.469  36.302  -3.660  1.00 60.97     0.257 C 
HETATM   11  OAE   D T 501      30.284  36.630  -3.791  1.00 63.13    -0.267 OA
BRANCH  10  12
HETATM   12  CAZ   D T 501      32.424  37.023  -4.369  1.00 63.15     0.056 A 
HETATM   13  CAM   D T 501      32.988  36.524  -5.538  1.00 63.31     0.005 A 
HETATM   14  CAG   D T 501      33.911  37.301  -6.236  1.00 63.55     0.000 A 
HETATM   15  CAF   D T 501      34.262  38.573  -5.776  1.00 64.46     0.000 A 
HETATM   16  CAH   D T 501      33.686  39.082  -4.613  1.00 64.03     0.000 A 
HETATM   17  CAN   D T 501      32.756  38.311  -3.921  1.00 64.07     0.005 A 
ENDBRANCH  10  12
ENDBRANCH   7   8
BRANCH   2  18
HETATM   18  OAV   D T 501      31.015  32.384  -2.610  1.00 51.71    -0.348 OA
HETATM   19  CAA   D T 501      31.590  32.093  -3.881  1.00 53.01     0.174 C 
ENDBRANCH   2  18
BRANCH   1  20
HETATM   20  NBO   D T 501      28.633  31.772  -1.626  1.00 51.03    -0.306 N 
HETATM   21  CBJ   D T 501      28.238  31.060  -2.701  1.00 50.94     0.078 A 
HETATM   22  CBI   D T 501      28.032  31.406  -3.990  1.00 51.53     0.078 A 
HETATM   23  CBG   D T 501      28.058  29.795  -2.326  1.00 50.22     0.020 A 
HETATM   24  CBH   D T 501      27.636  30.498  -4.916  1.00 51.25     0.023 A 
HETATM   25  NBN   D T 501      28.139  32.600  -4.578  1.00 50.08    -0.304 N 
HETATM   26  CBB   D T 501      27.445  29.200  -4.536  1.00 50.95     0.061 A 
HETATM   27  CBC   D T 501      27.522  31.170  -6.081  1.00 50.16     0.018 A 
HETATM   28  CAX   D T 501      27.065  28.060  -5.184  1.00 50.99     0.279 A 
HETATM   29  CBA   D T 501      27.663  28.877  -3.236  1.00 49.90     0.025 A 
HETATM   30  OAD   D T 501      26.808  27.932  -6.382  1.00 50.93    -0.265 OA
HETATM   31  NAU   D T 501      27.042  27.010  -4.386  1.00 48.81    -0.206 NA
HETATM   32  CAS   D T 501      27.410  27.511  -3.069  1.00 49.83     0.102 A 
HETATM   33  CAO   D T 501      27.175  30.796  -7.319  1.00 50.61     0.002 A 
HETATM   34  CBE   D T 501      27.847  32.465  -5.867  1.00 50.79     0.062 A 
HETATM   35  CAI   D T 501      27.137  31.710  -8.381  1.00 49.90     0.000 A 
HETATM   36  CAK   D T 501      27.466  33.031  -8.149  1.00 49.08     0.002 A 
HETATM   37  CAQ   D T 501      27.826  33.386  -6.857  1.00 49.54     0.017 A 
HETATM   38  CBD   D T 501      28.319  29.729  -1.006  1.00 49.67     0.017 A 
HETATM   39  CAP   D T 501      28.279  28.700  -0.150  1.00 49.34     0.002 A 
HETATM   40  CBF   D T 501      28.671  30.948  -0.573  1.00 49.59     0.062 A 
HETATM   41  CAJ   D T 501      28.573  28.858   1.199  1.00 48.60     0.000 A 
HETATM   42  CAL   D T 501      28.928  30.119   1.640  1.00 49.77     0.002 A 
HETATM   43  CAR   D T 501      28.983  31.153   0.716  1.00 48.78     0.017 A 
ENDBRANCH   1  20
TORSDOF 5
ENDMDL
MODEL 4
REMARK VINA RESULT:    -5.776      1.727      2.137
REMARK INTER + INTRA:          -5.774
REMARK INTER:                  -7.251
REMARK INTRA:                   1.478
REMARK UNBOUND:                 1.353
REMARK  5 active torsions:
REMARK  status: ('A' for Active; 'I' for Inactive)
REMARK       I    between atoms: NBM_14  and  CAY_34 
REMARK    1  A    between atoms: NBM_14  and  CBL_43 
REMARK    2  A    between atoms: NBN_24  and  CBK_31 
REMARK    3  A    between atoms: CBQ_25  and  NBO_42 
REMARK    4  A    between atoms: CBP_26  and  OAV_27 
REMARK    5  A    between atoms: CAY_34  and  CAZ_36 
ROOT
HETATM    1  CBQ   D T 501      52.635  26.292 -14.682  1.00 50.59     0.192 C 
HETATM    2  CBP   D T 501      51.430  26.904 -13.926  1.00 51.47     0.181 C 
HETATM    3  CAC   D T 501      53.743  25.993 -13.669  1.00 49.86     0.057 C 
HETATM    4  OAW   D T 501      53.221  27.234 -15.584  1.00 50.94    -0.319 OA
HETATM    5  CBK   D T 501      52.389  28.222 -16.211  1.00 51.68     0.208 C 
HETATM    6  CAT   D T 501      51.479  28.953 -15.244  1.00 52.45     0.079 C 
HETATM    7  CBL   D T 501      51.693  28.380 -13.850  1.00 53.19     0.120 C 
ENDROOT
BRANCH   7   8
HETATM    8  NBM   D T 501      50.832  29.124 -12.920  1.00 56.59    -0.314 N 
HETATM    9  CAB   D T 501      49.656  29.864 -13.432  1.00 55.78     0.129 C 
HETATM   10  CAY   D T 501      51.183  29.175 -11.604  1.00 60.97     0.257 C 
HETATM   11  OAE   D T 501      52.180  28.596 -11.160  1.00 63.13    -0.267 OA
BRANCH  10  12
HETATM   12  CAZ   D T 501      50.465  29.990 -10.734  1.00 63.15     0.056 A 
HETATM   13  CAM   D T 501      50.631  31.370 -10.735  1.00 63.31     0.005 A 
HETATM   14  CAG   D T 501      49.859  32.150  -9.874  1.00 63.55     0.000 A 
HETATM   15  CAF   D T 501      48.921  31.556  -9.025  1.00 64.46     0.000 A 
HETATM   16  CAH   D T 501      48.742  30.174  -9.035  1.00 64.03     0.000 A 
HETATM   17  CAN   D T 501      49.505  29.396  -9.902  1.00 64.07     0.005 A 
ENDBRANCH  10  12
ENDBRANCH   7   8
BRANCH   2  18
HETATM   18  OAV   D T 501      50.199  26.656 -14.659  1.00 51.71    -0.348 OA
HETATM   19  CAA   D T 501      49.087  26.212 -13.887  1.00 53.01     0.174 C 
ENDBRANCH   2  18
BRANCH   1  20
HETATM   20  NBO   D T 501      52.184  25.120 -15.509  1.00 51.03    -0.306 N 
HETATM   21  CBJ   D T 501      51.654  23.987 -15.005  1.00 50.94     0.078 A 
HETATM   22  CBI   D T 501      51.367  23.605 -13.742  1.00 51.53     0.078 A 
HETATM   23  CBG   D T 501      51.385  23.162 -16.015  1.00 50.22     0.020 A 
HETATM   24  CBH   D T 501      50.819  22.394 -13.472  1.00 51.25     0.023 A 
HETATM   25  NBN   D T 501      51.560  24.255 -12.592  1.00 50.08    -0.304 N 
HETATM   26  CBB   D T 501      50.545  21.543 -14.503  1.00 50.95     0.061 A 
HETATM   27  CBC   D T 501      50.670  22.337 -12.132  1.00 50.16     0.018 A 
HETATM   28  CAX   D T 501      50.007  20.291 -14.594  1.00 50.99     0.279 A 
HETATM   29  CBA   D T 501      50.838  21.951 -15.764  1.00 49.90     0.025 A 
HETATM   30  OAD   D T 501      49.584  19.592 -13.671  1.00 50.93    -0.265 OA
HETATM   31  NAU   D T 501      49.915  19.869 -15.840  1.00 48.81    -0.206 NA
HETATM   32  CAS   D T 501      50.481  20.935 -16.656  1.00 49.83     0.102 A 
HETATM   33  CAO   D T 501      50.183  21.400 -11.308  1.00 50.61     0.002 A 
HETATM   34  CBE   D T 501      51.117  23.495 -11.596  1.00 50.79     0.062 A 
HETATM   35  CAI   D T 501      50.135  21.593  -9.921  1.00 49.90     0.000 A 
HETATM   36  CAK   D T 501      50.600  22.778  -9.385  1.00 49.08     0.002 A 
HETATM   37  CAQ   D T 501      51.093  23.730 -10.265  1.00 49.54     0.017 A 
HETATM   38  CBD   D T 501      51.773  23.779 -17.148  1.00 49.67     0.017 A 
HETATM   39  CAP   D T 501      51.731  23.383 -18.427  1.00 49.34     0.002 A 
HETATM   40  CBF   D T 501      52.268  24.985 -16.837  1.00 49.59     0.062 A 
HETATM   41  CAJ   D T 501      52.211  24.182 -19.457  1.00 48.60     0.000 A 
HETATM   42  CAL   D T 501      52.726  25.421 -19.128  1.00 49.77     0.002 A 
HETATM   43  CAR   D T 501      52.728  25.805 -17.795  1.00 48.78     0.017 A 
ENDBRANCH   1  20
TORSDOF 5
ENDMDL
MODEL 5
REMARK VINA RESULT:    -5.692      5.336     10.094
REMARK INTER + INTRA:          -5.669
REMARK INTER:                  -7.749
REMARK INTRA:                   2.080
REMARK UNBOUND:                 1.353
REMARK  5 active torsions:
REMARK  status: ('A' for Active; 'I' for Inactive)
REMARK       I    between atoms: NBM_14  and  CAY_34 
REMARK    1  A    between atoms: NBM_14  and  CBL_43 
REMARK    2  A    between atoms: NBN_24  and  CBK_31 
REMARK    3  A    between atoms: CBQ_25  and  NBO_42 
REMARK    4  A    between atoms: CBP_26  and  OAV_27 
REMARK    5  A    between atoms: CAY_34  and  CAZ_36 
ROOT
HETATM    1  CBQ   D T 501      48.337  30.928 -10.217  1.00 50.59     0.192 C 
HETATM    2  CBP   D T 501      47.199  30.106  -9.562  1.00 51.47     0.181 C 
HETATM    3  CAC   D T 501      47.995  32.415 -10.091  1.00 49.86     0.057 C 
HETATM    4  OAW   D T 501      48.407  30.696 -11.626  1.00 50.94    -0.319 OA
HETATM    5  CBK   D T 501      48.039  29.411 -12.149  1.00 51.68     0.208 C 
HETATM    6  CAT   D T 501      46.715  28.896 -11.622  1.00 52.45     0.079 C 
HETATM    7  CBL   D T 501      46.162  29.909 -10.630  1.00 53.19     0.120 C 
ENDROOT
BRANCH   7   8
HETATM    8  NBM   D T 501      44.860  29.413 -10.157  1.00 56.59    -0.314 N 
HETATM    9  CAB   D T 501      44.531  27.975 -10.274  1.00 55.78     0.129 C 
HETATM   10  CAY   D T 501      43.952  30.313  -9.685  1.00 60.97     0.257 C 
HETATM   11  OAE   D T 501      44.191  31.523  -9.613  1.00 63.13    -0.267 OA
BRANCH  10  12
HETATM   12  CAZ   D T 501      42.666  29.885  -9.368  1.00 63.15     0.056 A 
HETATM   13  CAM   D T 501      42.301  29.599  -8.058  1.00 63.31     0.005 A 
HETATM   14  CAG   D T 501      40.989  29.214  -7.785  1.00 63.55     0.000 A 
HETATM   15  CAF   D T 501      40.045  29.124  -8.811  1.00 64.46     0.000 A 
HETATM   16  CAH   D T 501      40.405  29.426 -10.124  1.00 64.03     0.000 A 
HETATM   17  CAN   D T 501      41.713  29.821 -10.396  1.00 64.07     0.005 A 
ENDBRANCH  10  12
ENDBRANCH   7   8
BRANCH   2  18
HETATM   18  OAV   D T 501      47.704  28.817  -9.117  1.00 51.71    -0.348 OA
HETATM   19  CAA   D T 501      47.627  28.562  -7.717  1.00 53.01     0.174 C 
ENDBRANCH   2  18
BRANCH   1  20
HETATM   20  NBO   D T 501      49.664  30.520  -9.642  1.00 51.03    -0.306 N 
HETATM   21  CBJ   D T 501      50.226  31.071  -8.547  1.00 50.94     0.078 A 
HETATM   22  CBI   D T 501      49.804  32.034  -7.699  1.00 51.53     0.078 A 
HETATM   23  CBG   D T 501      51.401  30.481  -8.334  1.00 50.22     0.020 A 
HETATM   24  CBH   D T 501      50.552  32.426  -6.639  1.00 51.25     0.023 A 
HETATM   25  NBN   D T 501      48.682  32.758  -7.725  1.00 50.08    -0.304 N 
HETATM   26  CBB   D T 501      51.759  31.830  -6.419  1.00 50.95     0.061 A 
HETATM   27  CBC   D T 501      49.846  33.394  -6.016  1.00 50.16     0.018 A 
HETATM   28  CAX   D T 501      52.738  31.969  -5.477  1.00 50.99     0.279 A 
HETATM   29  CBA   D T 501      52.160  30.861  -7.282  1.00 49.90     0.025 A 
HETATM   30  OAD   D T 501      52.737  32.725  -4.504  1.00 50.93    -0.265 OA
HETATM   31  NAU   D T 501      53.743  31.135  -5.665  1.00 48.81    -0.206 NA
HETATM   32  CAS   D T 501      53.412  30.391  -6.873  1.00 49.83     0.102 A 
HETATM   33  CAO   D T 501      50.081  34.135  -4.925  1.00 50.61     0.002 A 
HETATM   34  CBE   D T 501      48.687  33.584  -6.685  1.00 50.79     0.062 A 
HETATM   35  CAI   D T 501      49.163  35.093  -4.474  1.00 49.90     0.000 A 
HETATM   36  CAK   D T 501      47.985  35.282  -5.170  1.00 49.08     0.002 A 
HETATM   37  CAQ   D T 501      47.769  34.495  -6.292  1.00 49.54     0.017 A 
HETATM   38  CBD   D T 501      51.579  29.578  -9.318  1.00 49.67     0.017 A 
HETATM   39  CAP   D T 501      52.588  28.735  -9.570  1.00 49.34     0.002 A 
HETATM   40  CBF   D T 501      50.509  29.603 -10.127  1.00 49.59     0.062 A 
HETATM   41  CAJ   D T 501      52.577  27.887 -10.670  1.00 48.60     0.000 A 
HETATM   42  CAL   D T 501      51.475  27.922 -11.502  1.00 49.77     0.002 A 
HETATM   43  CAR   D T 501      50.438  28.791 -11.192  1.00 48.78     0.017 A 
ENDBRANCH   1  20
TORSDOF 5
ENDMDL
MODEL 6
REMARK VINA RESULT:    -5.385     12.203     16.312
REMARK INTER + INTRA:          -5.290
REMARK INTER:                  -6.572
REMARK INTRA:                   1.281
REMARK UNBOUND:                 1.353
REMARK  5 active torsions:
REMARK  status: ('A' for Active; 'I' for Inactive)
REMARK       I    between atoms: NBM_14  and  CAY_34 
REMARK    1  A    between atoms: NBM_14  and  CBL_43 
REMARK    2  A    between atoms: NBN_24  and  CBK_31 
REMARK    3  A    between atoms: CBQ_25  and  NBO_42 
REMARK    4  A    between atoms: CBP_26  and  OAV_27 
REMARK    5  A    between atoms: CAY_34  and  CAZ_36 
ROOT
HETATM    1  CBQ   D T 501      44.986  37.395  -2.603  1.00 50.59     0.192 C 
HETATM    2  CBP   D T 501      45.605  35.993  -2.828  1.00 51.47     0.181 C 
HETATM    3  CAC   D T 501      45.789  38.416  -3.413  1.00 49.86     0.057 C 
HETATM    4  OAW   D T 501      45.132  37.821  -1.246  1.00 50.94    -0.319 OA
HETATM    5  CBK   D T 501      45.130  36.843  -0.195  1.00 51.68     0.208 C 
HETATM    6  CAT   D T 501      46.052  35.669  -0.454  1.00 52.45     0.079 C 
HETATM    7  CBL   D T 501      46.706  35.858  -1.816  1.00 53.19     0.120 C 
ENDROOT
BRANCH   7   8
HETATM    8  NBM   D T 501      47.625  34.732  -2.035  1.00 56.59    -0.314 N 
HETATM    9  CAB   D T 501      47.441  33.470  -1.282  1.00 55.78     0.129 C 
HETATM   10  CAY   D T 501      48.679  34.904  -2.882  1.00 60.97     0.257 C 
HETATM   11  OAE   D T 501      48.873  35.961  -3.493  1.00 63.13    -0.267 OA
BRANCH  10  12
HETATM   12  CAZ   D T 501      49.640  33.904  -2.993  1.00 63.15     0.056 A 
HETATM   13  CAM   D T 501      49.563  32.934  -3.986  1.00 63.31     0.005 A 
HETATM   14  CAG   D T 501      50.572  31.976  -4.083  1.00 63.55     0.000 A 
HETATM   15  CAF   D T 501      51.655  31.993  -3.200  1.00 64.46     0.000 A 
HETATM   16  CAH   D T 501      51.742  32.974  -2.214  1.00 64.03     0.000 A 
HETATM   17  CAN   D T 501      50.740  33.938  -2.124  1.00 64.07     0.005 A 
ENDBRANCH  10  12
ENDBRANCH   7   8
BRANCH   2  18
HETATM   18  OAV   D T 501      44.603  34.962  -2.612  1.00 51.71    -0.348 OA
HETATM   19  CAA   D T 501      44.581  33.899  -3.561  1.00 53.01     0.174 C 
ENDBRANCH   2  18
BRANCH   1  20
HETATM   20  NBO   D T 501      43.511  37.359  -2.891  1.00 51.03    -0.306 N 
HETATM   21  CBJ   D T 501      42.974  37.123  -4.106  1.00 50.94     0.078 A 
HETATM   22  CBI   D T 501      43.532  36.845  -5.304  1.00 51.53     0.078 A 
HETATM   23  CBG   D T 501      41.648  37.181  -3.999  1.00 50.22     0.020 A 
HETATM   24  CBH   D T 501      42.775  36.633  -6.409  1.00 51.25     0.023 A 
HETATM   25  NBN   D T 501      44.820  36.750  -5.642  1.00 50.08    -0.304 N 
HETATM   26  CBB   D T 501      41.415  36.696  -6.306  1.00 50.95     0.061 A 
HETATM   27  CBC   D T 501      43.638  36.391  -7.418  1.00 50.16     0.018 A 
HETATM   28  CAX   D T 501      40.381  36.536  -7.183  1.00 50.99     0.279 A 
HETATM   29  CBA   D T 501      40.878  36.972  -5.090  1.00 49.90     0.025 A 
HETATM   30  OAD   D T 501      40.453  36.245  -8.379  1.00 50.93    -0.265 OA
HETATM   31  NAU   D T 501      39.203  36.673  -6.606  1.00 48.81    -0.206 NA
HETATM   32  CAS   D T 501      39.485  36.990  -5.212  1.00 49.83     0.102 A 
HETATM   33  CAO   D T 501      43.467  36.113  -8.717  1.00 50.61     0.002 A 
HETATM   34  CBE   D T 501      44.899  36.452  -6.934  1.00 50.79     0.062 A 
HETATM   35  CAI   D T 501      44.556  35.894  -9.572  1.00 49.90     0.000 A 
HETATM   36  CAK   D T 501      45.839  35.965  -9.067  1.00 49.08     0.002 A 
HETATM   37  CAQ   D T 501      45.982  36.249  -7.716  1.00 49.54     0.017 A 
HETATM   38  CBD   D T 501      41.363  37.480  -2.717  1.00 49.67     0.017 A 
HETATM   39  CAP   D T 501      40.193  37.660  -2.091  1.00 49.34     0.002 A 
HETATM   40  CBF   D T 501      42.512  37.592  -2.033  1.00 49.59     0.062 A 
HETATM   41  CAJ   D T 501      40.126  37.986  -0.743  1.00 48.60     0.000 A 
HETATM   42  CAL   D T 501      41.313  38.107  -0.046  1.00 49.77     0.002 A 
HETATM   43  CAR   D T 501      42.504  37.887  -0.724  1.00 48.78     0.017 A 
ENDBRANCH   1  20
TORSDOF 5
ENDMDL
MODEL 7
REMARK VINA RESULT:    -5.357     10.948     15.059
REMARK INTER + INTRA:          -5.257
REMARK INTER:                  -6.742
REMARK INTRA:                   1.486
REMARK UNBOUND:                 1.353
REMARK  5 active torsions:
REMARK  status: ('A' for Active; 'I' for Inactive)
REMARK       I    between atoms: NBM_14  and  CAY_34 
REMARK    1  A    between atoms: NBM_14  and  CBL_43 
REMARK    2  A    between atoms: NBN_24  and  CBK_31 
REMARK    3  A    between atoms: CBQ_25  and  NBO_42 
REMARK    4  A    between atoms: CBP_26  and  OAV_27 
REMARK    5  A    between atoms: CAY_34  and  CAZ_36 
ROOT
HETATM    1  CBQ   D T 501      45.547  37.036  -5.211  1.00 50.59     0.192 C 
HETATM    2  CBP   D T 501      44.402  36.340  -4.435  1.00 51.47     0.181 C 
HETATM    3  CAC   D T 501      46.072  38.198  -4.364  1.00 49.86     0.057 C 
HETATM    4  OAW   D T 501      45.068  37.655  -6.408  1.00 50.94    -0.319 OA
HETATM    5  CBK   D T 501      43.957  37.073  -7.107  1.00 51.68     0.208 C 
HETATM    6  CAT   D T 501      42.782  36.738  -6.211  1.00 52.45     0.079 C 
HETATM    7  CBL   D T 501      43.150  37.094  -4.777  1.00 53.19     0.120 C 
ENDROOT
BRANCH   7   8
HETATM    8  NBM   D T 501      41.987  36.798  -3.928  1.00 56.59    -0.314 N 
HETATM    9  CAB   D T 501      40.717  36.348  -4.543  1.00 55.78     0.129 C 
HETATM   10  CAY   D T 501      42.086  37.019  -2.586  1.00 60.97     0.257 C 
HETATM   11  OAE   D T 501      43.124  37.430  -2.056  1.00 63.13    -0.267 OA
BRANCH  10  12
HETATM   12  CAZ   D T 501      40.956  36.884  -1.785  1.00 63.15     0.056 A 
HETATM   13  CAM   D T 501      40.686  35.700  -1.109  1.00 63.31     0.005 A 
HETATM   14  CAG   D T 501      39.564  35.627  -0.284  1.00 63.55     0.000 A 
HETATM   15  CAF   D T 501      38.722  36.731  -0.129  1.00 64.46     0.000 A 
HETATM   16  CAH   D T 501      39.000  37.925  -0.793  1.00 64.03     0.000 A 
HETATM   17  CAN   D T 501      40.127  38.002  -1.608  1.00 64.07     0.005 A 
ENDBRANCH  10  12
ENDBRANCH   7   8
BRANCH   2  18
HETATM   18  OAV   D T 501      44.279  34.954  -4.857  1.00 51.71    -0.348 OA
HETATM   19  CAA   D T 501      44.002  34.007  -3.830  1.00 53.01     0.174 C 
ENDBRANCH   2  18
BRANCH   1  20
HETATM   20  NBO   D T 501      46.577  36.023  -5.628  1.00 51.03    -0.306 N 
HETATM   21  CBJ   D T 501      47.310  35.281  -4.773  1.00 50.94     0.078 A 
HETATM   22  CBI   D T 501      47.323  35.201  -3.424  1.00 51.53     0.078 A 
HETATM   23  CBG   D T 501      48.129  34.506  -5.482  1.00 50.22     0.020 A 
HETATM   24  CBH   D T 501      48.159  34.358  -2.770  1.00 51.25     0.023 A 
HETATM   25  NBN   D T 501      46.608  35.881  -2.525  1.00 50.08    -0.304 N 
HETATM   26  CBB   D T 501      49.004  33.565  -3.491  1.00 50.95     0.061 A 
HETATM   27  CBC   D T 501      47.918  34.534  -1.453  1.00 50.16     0.018 A 
HETATM   28  CAX   D T 501      49.944  32.628  -3.171  1.00 50.99     0.279 A 
HETATM   29  CBA   D T 501      48.968  33.660  -4.845  1.00 49.90     0.025 A 
HETATM   30  OAD   D T 501      50.252  32.233  -2.044  1.00 50.93    -0.265 OA
HETATM   31  NAU   D T 501      50.508  32.094  -4.236  1.00 48.81    -0.206 NA
HETATM   32  CAS   D T 501      49.906  32.770  -5.378  1.00 49.83     0.102 A 
HETATM   33  CAO   D T 501      48.433  33.976  -0.350  1.00 50.61     0.002 A 
HETATM   34  CBE   D T 501      46.950  35.466  -1.310  1.00 50.79     0.062 A 
HETATM   35  CAI   D T 501      47.997  34.340   0.931  1.00 49.90     0.000 A 
HETATM   36  CAK   D T 501      47.012  35.299   1.064  1.00 49.08     0.002 A 
HETATM   37  CAQ   D T 501      46.495  35.853  -0.098  1.00 49.54     0.017 A 
HETATM   38  CBD   D T 501      47.920  34.789  -6.782  1.00 49.67     0.017 A 
HETATM   39  CAP   D T 501      48.485  34.301  -7.893  1.00 49.34     0.002 A 
HETATM   40  CBF   D T 501      46.965  35.727  -6.873  1.00 49.59     0.062 A 
HETATM   41  CAJ   D T 501      48.128  34.755  -9.157  1.00 48.60     0.000 A 
HETATM   42  CAL   D T 501      47.148  35.725  -9.243  1.00 49.77     0.002 A 
HETATM   43  CAR   D T 501      46.569  36.186  -8.070  1.00 48.78     0.017 A 
ENDBRANCH   1  20
TORSDOF 5
ENDMDL
MODEL 8
REMARK VINA RESULT:    -5.194      8.172     11.029
REMARK INTER + INTRA:          -5.055
REMARK INTER:                  -6.387
REMARK INTRA:                   1.333
REMARK UNBOUND:                 1.353
REMARK  5 active torsions:
REMARK  status: ('A' for Active; 'I' for Inactive)
REMARK       I    between atoms: NBM_14  and  CAY_34 
REMARK    1  A    between atoms: NBM_14  and  CBL_43 
REMARK    2  A    between atoms: NBN_24  and  CBK_31 
REMARK    3  A    between atoms: CBQ_25  and  NBO_42 
REMARK    4  A    between atoms: CBP_26  and  OAV_27 
REMARK    5  A    between atoms: CAY_34  and  CAZ_36 
ROOT
HETATM    1  CBQ   D T 501      49.347  33.942 -11.762  1.00 50.59     0.192 C 
HETATM    2  CBP   D T 501      49.590  34.400 -10.303  1.00 51.47     0.181 C 
HETATM    3  CAC   D T 501      48.117  33.030 -11.786  1.00 49.86     0.057 C 
HETATM    4  OAW   D T 501      50.413  33.116 -12.237  1.00 50.94    -0.319 OA
HETATM    5  CBK   D T 501      51.746  33.336 -11.751  1.00 51.68     0.208 C 
HETATM    6  CAT   D T 501      51.833  33.449 -10.243  1.00 52.45     0.079 C 
HETATM    7  CBL   D T 501      50.430  33.330  -9.666  1.00 53.19     0.120 C 
ENDROOT
BRANCH   7   8
HETATM    8  NBM   D T 501      50.536  33.404  -8.201  1.00 56.59    -0.314 N 
HETATM    9  CAB   D T 501      51.629  34.186  -7.578  1.00 55.78     0.129 C 
HETATM   10  CAY   D T 501      49.660  32.684  -7.446  1.00 60.97     0.257 C 
HETATM   11  OAE   D T 501      48.763  31.994  -7.945  1.00 63.13    -0.267 OA
BRANCH  10  12
HETATM   12  CAZ   D T 501      49.832  32.624  -6.067  1.00 63.15     0.056 A 
HETATM   13  CAM   D T 501      49.173  33.505  -5.217  1.00 63.31     0.005 A 
HETATM   14  CAG   D T 501      49.346  33.380  -3.839  1.00 63.55     0.000 A 
HETATM   15  CAF   D T 501      50.163  32.376  -3.312  1.00 64.46     0.000 A 
HETATM   16  CAH   D T 501      50.812  31.482  -4.162  1.00 64.03     0.000 A 
HETATM   17  CAN   D T 501      50.632  31.599  -5.538  1.00 64.07     0.005 A 
ENDBRANCH  10  12
ENDBRANCH   7   8
BRANCH   2  18
HETATM   18  OAV   D T 501      50.304  35.666 -10.287  1.00 51.71    -0.348 OA
HETATM   19  CAA   D T 501      49.818  36.649  -9.377  1.00 53.01     0.174 C 
ENDBRANCH   2  18
BRANCH   1  20
HETATM   20  NBO   D T 501      49.283  35.136 -12.673  1.00 51.03    -0.306 N 
HETATM   21  CBJ   D T 501      48.311  36.071 -12.642  1.00 50.94     0.078 A 
HETATM   22  CBI   D T 501      47.228  36.226 -11.850  1.00 51.53     0.078 A 
HETATM   23  CBG   D T 501      48.561  36.970 -13.593  1.00 50.22     0.020 A 
HETATM   24  CBH   D T 501      46.378  37.271 -12.004  1.00 51.25     0.023 A 
HETATM   25  NBN   D T 501      46.783  35.453 -10.857  1.00 50.08    -0.304 N 
HETATM   26  CBB   D T 501      46.626  38.193 -12.980  1.00 50.95     0.061 A 
HETATM   27  CBC   D T 501      45.418  37.118 -11.067  1.00 50.16     0.018 A 
HETATM   28  CAX   D T 501      46.004  39.334 -13.398  1.00 50.99     0.279 A 
HETATM   29  CBA   D T 501      47.724  38.018 -13.760  1.00 49.90     0.025 A 
HETATM   30  OAD   D T 501      44.991  39.850 -12.923  1.00 50.93    -0.265 OA
HETATM   31  NAU   D T 501      46.642  39.922 -14.392  1.00 48.81    -0.206 NA
HETATM   32  CAS   D T 501      47.784  39.066 -14.684  1.00 49.83     0.102 A 
HETATM   33  CAO   D T 501      44.336  37.839 -10.746  1.00 50.61     0.002 A 
HETATM   34  CBE   D T 501      45.682  36.001 -10.354  1.00 50.79     0.062 A 
HETATM   35  CAI   D T 501      43.481  37.457  -9.703  1.00 49.90     0.000 A 
HETATM   36  CAK   D T 501      43.758  36.310  -8.986  1.00 49.08     0.002 A 
HETATM   37  CAQ   D T 501      44.890  35.589  -9.339  1.00 49.54     0.017 A 
HETATM   38  CBD   D T 501      49.679  36.575 -14.231  1.00 49.67     0.017 A 
HETATM   39  CAP   D T 501      50.346  37.116 -15.259  1.00 49.34     0.002 A 
HETATM   40  CBF   D T 501      50.124  35.443 -13.666  1.00 49.59     0.062 A 
HETATM   41  CAJ   D T 501      51.487  36.525 -15.784  1.00 48.60     0.000 A 
HETATM   42  CAL   D T 501      51.936  35.355 -15.202  1.00 49.77     0.002 A 
HETATM   43  CAR   D T 501      51.233  34.840 -14.122  1.00 48.78     0.017 A 
ENDBRANCH   1  20
TORSDOF 5
ENDMDL
MODEL 9
REMARK VINA RESULT:    -4.971     12.332     16.969
REMARK INTER + INTRA:          -4.781
REMARK INTER:                  -6.057
REMARK INTRA:                   1.277
REMARK UNBOUND:                 1.353
REMARK  5 active torsions:
REMARK  status: ('A' for Active; 'I' for Inactive)
REMARK       I    between atoms: NBM_14  and  CAY_34 
REMARK    1  A    between atoms: NBM_14  and  CBL_43 
REMARK    2  A    between atoms: NBN_24  and  CBK_31 
REMARK    3  A    between atoms: CBQ_25  and  NBO_42 
REMARK    4  A    between atoms: CBP_26  and  OAV_27 
REMARK    5  A    between atoms: CAY_34  and  CAZ_36 
ROOT
HETATM    1  CBQ   D T 501      41.820  36.313  -6.185  1.00 50.59     0.192 C 
HETATM    2  CBP   D T 501      43.063  37.088  -6.688  1.00 51.47     0.181 C 
HETATM    3  CAC   D T 501      42.118  34.814  -6.260  1.00 49.86     0.057 C 
HETATM    4  OAW   D T 501      40.700  36.499  -7.055  1.00 50.94    -0.319 OA
HETATM    5  CBK   D T 501      40.553  37.740  -7.762  1.00 51.68     0.208 C 
HETATM    6  CAT   D T 501      41.816  38.192  -8.467  1.00 52.45     0.079 C 
HETATM    7  CBL   D T 501      42.919  37.183  -8.179  1.00 53.19     0.120 C 
ENDROOT
BRANCH   7   8
HETATM    8  NBM   D T 501      44.125  37.615  -8.901  1.00 56.59    -0.314 N 
HETATM    9  CAB   D T 501      44.300  39.041  -9.259  1.00 55.78     0.129 C 
HETATM   10  CAY   D T 501      45.026  36.670  -9.290  1.00 60.97     0.257 C 
HETATM   11  OAE   D T 501      44.882  35.469  -9.035  1.00 63.13    -0.267 OA
BRANCH  10  12
HETATM   12  CAZ   D T 501      46.098  37.037 -10.097  1.00 63.15     0.056 A 
HETATM   13  CAM   D T 501      47.314  37.430  -9.550  1.00 63.31     0.005 A 
HETATM   14  CAG   D T 501      48.373  37.749 -10.399  1.00 63.55     0.000 A 
HETATM   15  CAF   D T 501      48.222  37.668 -11.786  1.00 64.46     0.000 A 
HETATM   16  CAH   D T 501      47.008  37.259 -12.337  1.00 64.03     0.000 A 
HETATM   17  CAN   D T 501      45.953  36.930 -11.489  1.00 64.07     0.005 A 
ENDBRANCH  10  12
ENDBRANCH   7   8
BRANCH   2  18
HETATM   18  OAV   D T 501      43.094  38.420  -6.107  1.00 51.71    -0.348 OA
HETATM   19  CAA   D T 501      44.357  38.864  -5.618  1.00 53.01     0.174 C 
ENDBRANCH   2  18
BRANCH   1  20
HETATM   20  NBO   D T 501      41.408  36.823  -4.832  1.00 51.03    -0.306 N 
HETATM   21  CBJ   D T 501      42.130  36.666  -3.703  1.00 50.94     0.078 A 
HETATM   22  CBI   D T 501      43.330  36.094  -3.468  1.00 51.53     0.078 A 
HETATM   23  CBG   D T 501      41.462  37.224  -2.695  1.00 50.22     0.020 A 
HETATM   24  CBH   D T 501      43.872  36.061  -2.226  1.00 51.25     0.023 A 
HETATM   25  NBN   D T 501      44.157  35.474  -4.313  1.00 50.08    -0.304 N 
HETATM   26  CBB   D T 501      43.190  36.627  -1.187  1.00 50.95     0.061 A 
HETATM   27  CBC   D T 501      45.055  35.421  -2.345  1.00 50.16     0.018 A 
HETATM   28  CAX   D T 501      43.431  36.776   0.148  1.00 50.99     0.279 A 
HETATM   29  CBA   D T 501      41.988  37.201  -1.450  1.00 49.90     0.025 A 
HETATM   30  OAD   D T 501      44.432  36.416   0.771  1.00 50.93    -0.265 OA
HETATM   31  NAU   D T 501      42.466  37.428   0.767  1.00 48.81    -0.206 NA
HETATM   32  CAS   D T 501      41.468  37.711  -0.256  1.00 49.83     0.102 A 
HETATM   33  CAO   D T 501      46.013  35.105  -1.464  1.00 50.61     0.002 A 
HETATM   34  CBE   D T 501      45.230  35.073  -3.639  1.00 50.79     0.062 A 
HETATM   35  CAI   D T 501      47.175  34.425  -1.853  1.00 49.90     0.000 A 
HETATM   36  CAK   D T 501      47.339  34.069  -3.178  1.00 49.08     0.002 A 
HETATM   37  CAQ   D T 501      46.331  34.416  -4.066  1.00 49.54     0.017 A 
HETATM   38  CBD   D T 501      40.309  37.706  -3.198  1.00 49.67     0.017 A 
HETATM   39  CAP   D T 501      39.289  38.344  -2.610  1.00 49.34     0.002 A 
HETATM   40  CBF   D T 501      40.274  37.456  -4.515  1.00 49.59     0.062 A 
HETATM   41  CAJ   D T 501      38.167  38.744  -3.325  1.00 48.60     0.000 A 
HETATM   42  CAL   D T 501      38.134  38.479  -4.680  1.00 49.77     0.002 A 
HETATM   43  CAR   D T 501      39.222  37.839  -5.256  1.00 48.78     0.017 A 
ENDBRANCH   1  20
TORSDOF 5
ENDMDL
