MODEL 1
REMARK VINA RESULT:      -5.4      0.000      0.000
REMARK  5 active torsions:
REMARK  status: ('A' for Active; 'I' for Inactive)
REMARK       I    between atoms: NBM_14  and  CAY_34 
REMARK    1  A    between atoms: NBM_14  and  CBL_43 
REMARK    2  A    between atoms: NBN_24  and  CBK_31 
REMARK    3  A    between atoms: CBQ_25  and  NBO_42 
REMARK    4  A    between atoms: CBP_26  and  OAV_27 
REMARK    5  A    between atoms: CAY_34  and  CAZ_36 
ROOT
HETATM    1  CBQ   D T 501      46.339  37.118  -9.282  1.00 50.59     0.192 C 
HETATM    2  CBP   D T 501      44.988  36.718  -8.638  1.00 51.47     0.181 C 
HETATM    3  CAC   D T 501      47.172  37.865  -8.238  1.00 49.86     0.057 C 
HETATM    4  OAW   D T 501      46.157  38.065 -10.338  1.00 50.94    -0.319 OA
HETATM    5  CBK   D T 501      44.955  38.024 -11.123  1.00 51.68     0.208 C 
HETATM    6  CAT   D T 501      43.689  37.947 -10.295  1.00 52.45     0.079 C 
HETATM    7  CBL   D T 501      44.075  37.896  -8.823  1.00 53.19     0.120 C 
ENDROOT
BRANCH   7   8
HETATM    8  NBM   D T 501      42.836  37.860  -8.033  1.00 56.59    -0.314 N 
HETATM    9  CAB   D T 501      41.531  37.686  -8.711  1.00 55.78     0.129 C 
HETATM   10  CAY   D T 501      42.914  38.062  -6.687  1.00 60.97     0.257 C 
HETATM   11  OAE   D T 501      43.988  38.246  -6.104  1.00 63.13    -0.267 OA
BRANCH  10  12
HETATM   12  CAZ   D T 501      41.744  38.176  -5.943  1.00 63.15     0.056 A 
HETATM   13  CAM   D T 501      41.032  39.369  -5.892  1.00 63.31     0.005 A 
HETATM   14  CAG   D T 501      39.843  39.423  -5.166  1.00 63.55     0.000 A 
HETATM   15  CAF   D T 501      39.362  38.291  -4.503  1.00 64.46     0.000 A 
HETATM   16  CAH   D T 501      40.066  37.089  -4.566  1.00 64.03     0.000 A 
HETATM   17  CAN   D T 501      41.249  37.032  -5.299  1.00 64.07     0.005 A 
ENDBRANCH  10  12
ENDBRANCH   7   8
BRANCH   2  18
HETATM   18  OAV   D T 501      44.437  35.553  -9.312  1.00 51.71    -0.348 OA
HETATM   19  CAA   D T 501      43.530  34.760  -8.551  1.00 53.01     0.174 C 
ENDBRANCH   2  18
BRANCH   1  20
HETATM   20  NBO   D T 501      46.997  35.911  -9.890  1.00 51.03    -0.306 N 
HETATM   21  CBJ   D T 501      47.682  34.980  -9.193  1.00 50.94     0.078 A 
HETATM   22  CBI   D T 501      47.935  34.842  -7.874  1.00 51.53     0.078 A 
HETATM   23  CBG   D T 501      48.139  34.066 -10.047  1.00 50.22     0.020 A 
HETATM   24  CBH   D T 501      48.655  33.798  -7.394  1.00 51.25     0.023 A 
HETATM   25  NBN   D T 501      47.590  35.631  -6.854  1.00 50.08    -0.304 N 
HETATM   26  CBB   D T 501      49.131  32.861  -8.265  1.00 50.95     0.061 A 
HETATM   27  CBC   D T 501      48.722  33.968  -6.056  1.00 50.16     0.018 A 
HETATM   28  CAX   D T 501      49.864  31.716  -8.133  1.00 50.99     0.279 A 
HETATM   29  CBA   D T 501      48.859  33.020  -9.586  1.00 49.90     0.025 A 
HETATM   30  OAD   D T 501      50.279  31.212  -7.088  1.00 50.93    -0.265 OA
HETATM   31  NAU   D T 501      50.068  31.111  -9.287  1.00 48.81    -0.206 NA
HETATM   32  CAS   D T 501      49.437  31.958 -10.290  1.00 49.83     0.102 A 
HETATM   33  CAO   D T 501      49.292  33.257  -5.075  1.00 50.61     0.002 A 
HETATM   34  CBE   D T 501      48.051  35.095  -5.729  1.00 50.79     0.062 A 
HETATM   35  CAI   D T 501      49.211  33.657  -3.734  1.00 49.90     0.000 A 
HETATM   36  CAK   D T 501      48.527  34.814  -3.413  1.00 49.08     0.002 A 
HETATM   37  CAQ   D T 501      47.944  35.524  -4.452  1.00 49.54     0.017 A 
HETATM   38  CBD   D T 501      47.758  34.447 -11.282  1.00 49.67     0.017 A 
HETATM   39  CAP   D T 501      47.965  33.888 -12.481  1.00 49.34     0.002 A 
HETATM   40  CBF   D T 501      47.055  35.586 -11.186  1.00 49.59     0.062 A 
HETATM   41  CAJ   D T 501      47.490  34.468 -13.651  1.00 48.60     0.000 A 
HETATM   42  CAL   D T 501      46.773  35.644 -13.545  1.00 49.77     0.002 A 
HETATM   43  CAR   D T 501      46.557  36.177 -12.283  1.00 48.78     0.017 A 
ENDBRANCH   1  20
TORSDOF 5
ENDMDL
MODEL 2
REMARK VINA RESULT:      -5.1      2.464      8.944
REMARK  5 active torsions:
REMARK  status: ('A' for Active; 'I' for Inactive)
REMARK       I    between atoms: NBM_14  and  CAY_34 
REMARK    1  A    between atoms: NBM_14  and  CBL_43 
REMARK    2  A    between atoms: NBN_24  and  CBK_31 
REMARK    3  A    between atoms: CBQ_25  and  NBO_42 
REMARK    4  A    between atoms: CBP_26  and  OAV_27 
REMARK    5  A    between atoms: CAY_34  and  CAZ_36 
ROOT
HETATM    1  CBQ   D T 501      50.118  34.413  -7.768  1.00 50.59     0.192 C 
HETATM    2  CBP   D T 501      49.562  33.664  -9.004  1.00 51.47     0.181 C 
HETATM    3  CAC   D T 501      50.713  35.744  -8.234  1.00 49.86     0.057 C 
HETATM    4  OAW   D T 501      51.220  33.715  -7.183  1.00 50.94    -0.319 OA
HETATM    5  CBK   D T 501      51.262  32.281  -7.250  1.00 51.68     0.208 C 
HETATM    6  CAT   D T 501      50.997  31.729  -8.636  1.00 52.45     0.079 C 
HETATM    7  CBL   D T 501      50.716  32.892  -9.576  1.00 53.19     0.120 C 
ENDROOT
BRANCH   7   8
HETATM    8  NBM   D T 501      50.499  32.342 -10.922  1.00 56.59    -0.314 N 
HETATM    9  CAB   D T 501      50.293  30.887 -11.101  1.00 55.78     0.129 C 
HETATM   10  CAY   D T 501      50.564  33.186 -11.990  1.00 60.97     0.257 C 
HETATM   11  OAE   D T 501      50.772  34.398 -11.867  1.00 63.13    -0.267 OA
BRANCH  10  12
HETATM   12  CAZ   D T 501      50.506  32.665 -13.279  1.00 63.15     0.056 A 
HETATM   13  CAM   D T 501      49.306  32.598 -13.978  1.00 63.31     0.005 A 
HETATM   14  CAG   D T 501      49.304  32.106 -15.283  1.00 63.55     0.000 A 
HETATM   15  CAF   D T 501      50.493  31.693 -15.889  1.00 64.46     0.000 A 
HETATM   16  CAH   D T 501      51.700  31.774 -15.196  1.00 64.03     0.000 A 
HETATM   17  CAN   D T 501      51.704  32.275 -13.896  1.00 64.07     0.005 A 
ENDBRANCH  10  12
ENDBRANCH   7   8
BRANCH   2  18
HETATM   18  OAV   D T 501      48.504  32.750  -8.603  1.00 51.71    -0.348 OA
HETATM   19  CAA   D T 501      47.428  32.594  -9.523  1.00 53.01     0.174 C 
ENDBRANCH   2  18
BRANCH   1  20
HETATM   20  NBO   D T 501      49.057  34.517  -6.708  1.00 51.03    -0.306 N 
HETATM   21  CBJ   D T 501      47.897  35.191  -6.849  1.00 50.94     0.078 A 
HETATM   22  CBI   D T 501      47.371  35.882  -7.884  1.00 51.53     0.078 A 
HETATM   23  CBG   D T 501      47.207  35.086  -5.715  1.00 50.22     0.020 A 
HETATM   24  CBH   D T 501      46.159  36.482  -7.795  1.00 51.25     0.023 A 
HETATM   25  NBN   D T 501      47.883  36.124  -9.093  1.00 50.08    -0.304 N 
HETATM   26  CBB   D T 501      45.450  36.382  -6.634  1.00 50.95     0.061 A 
HETATM   27  CBC   D T 501      45.945  37.079  -8.987  1.00 50.16     0.018 A 
HETATM   28  CAX   D T 501      44.236  36.842  -6.210  1.00 50.99     0.279 A 
HETATM   29  CBA   D T 501      45.997  35.679  -5.609  1.00 49.90     0.025 A 
HETATM   30  OAD   D T 501      43.418  37.497  -6.859  1.00 50.93    -0.265 OA
HETATM   31  NAU   D T 501      43.953  36.464  -4.979  1.00 48.81    -0.206 NA
HETATM   32  CAS   D T 501      45.112  35.705  -4.527  1.00 49.83     0.102 A 
HETATM   33  CAO   D T 501      44.929  37.804  -9.474  1.00 50.61     0.002 A 
HETATM   34  CBE   D T 501      47.008  36.842  -9.788  1.00 50.79     0.062 A 
HETATM   35  CAI   D T 501      44.951  38.319 -10.777  1.00 49.90     0.000 A 
HETATM   36  CAK   D T 501      46.046  38.074 -11.584  1.00 49.08     0.002 A 
HETATM   37  CAQ   D T 501      47.078  37.316 -11.052  1.00 49.54     0.017 A 
HETATM   38  CBD   D T 501      47.956  34.364  -4.858  1.00 49.67     0.017 A 
HETATM   39  CAP   D T 501      47.729  33.981  -3.595  1.00 49.34     0.002 A 
HETATM   40  CBF   D T 501      49.098  34.014  -5.469  1.00 49.59     0.062 A 
HETATM   41  CAJ   D T 501      48.660  33.243  -2.875  1.00 48.60     0.000 A 
HETATM   42  CAL   D T 501      49.837  32.892  -3.509  1.00 49.77     0.002 A 
HETATM   43  CAR   D T 501      50.022  33.285  -4.826  1.00 48.78     0.017 A 
ENDBRANCH   1  20
TORSDOF 5
ENDMDL
MODEL 3
REMARK VINA RESULT:      -5.1      3.253      5.236
REMARK  5 active torsions:
REMARK  status: ('A' for Active; 'I' for Inactive)
REMARK       I    between atoms: NBM_14  and  CAY_34 
REMARK    1  A    between atoms: NBM_14  and  CBL_43 
REMARK    2  A    between atoms: NBN_24  and  CBK_31 
REMARK    3  A    between atoms: CBQ_25  and  NBO_42 
REMARK    4  A    between atoms: CBP_26  and  OAV_27 
REMARK    5  A    between atoms: CAY_34  and  CAZ_36 
ROOT
HETATM    1  CBQ   D T 501      48.707  36.390 -10.275  1.00 50.59     0.192 C 
HETATM    2  CBP   D T 501      47.202  36.230 -10.607  1.00 51.47     0.181 C 
HETATM    3  CAC   D T 501      49.076  35.369  -9.196  1.00 49.86     0.057 C 
HETATM    4  OAW   D T 501      48.980  37.659  -9.675  1.00 50.94    -0.319 OA
HETATM    5  CBK   D T 501      48.186  38.798 -10.042  1.00 51.68     0.208 C 
HETATM    6  CAT   D T 501      46.694  38.537 -10.006  1.00 52.45     0.079 C 
HETATM    7  CBL   D T 501      46.466  37.084  -9.615  1.00 53.19     0.120 C 
ENDROOT
BRANCH   7   8
HETATM    8  NBM   D T 501      45.014  36.858  -9.548  1.00 56.59    -0.314 N 
HETATM    9  CAB   D T 501      44.134  37.385 -10.616  1.00 55.78     0.129 C 
HETATM   10  CAY   D T 501      44.502  36.225  -8.455  1.00 60.97     0.257 C 
HETATM   11  OAE   D T 501      45.214  35.810  -7.534  1.00 63.13    -0.267 OA
BRANCH  10  12
HETATM   12  CAZ   D T 501      43.122  36.129  -8.303  1.00 63.15     0.056 A 
HETATM   13  CAM   D T 501      42.474  34.900  -8.343  1.00 63.31     0.005 A 
HETATM   14  CAG   D T 501      41.095  34.851  -8.144  1.00 63.55     0.000 A 
HETATM   15  CAF   D T 501      40.369  36.019  -7.898  1.00 64.46     0.000 A 
HETATM   16  CAH   D T 501      41.020  37.251  -7.842  1.00 64.03     0.000 A 
HETATM   17  CAN   D T 501      42.399  37.300  -8.030  1.00 64.07     0.005 A 
ENDBRANCH  10  12
ENDBRANCH   7   8
BRANCH   2  18
HETATM   18  OAV   D T 501      46.935  36.696 -11.958  1.00 51.71    -0.348 OA
HETATM   19  CAA   D T 501      46.411  35.728 -12.863  1.00 53.01     0.174 C 
ENDBRANCH   2  18
BRANCH   1  20
HETATM   20  NBO   D T 501      49.522  36.320 -11.536  1.00 51.03    -0.306 N 
HETATM   21  CBJ   D T 501      49.743  35.193 -12.243  1.00 50.94     0.078 A 
HETATM   22  CBI   D T 501      49.321  33.921 -12.076  1.00 51.53     0.078 A 
HETATM   23  CBG   D T 501      50.516  35.494 -13.285  1.00 50.22     0.020 A 
HETATM   24  CBH   D T 501      49.672  32.936 -12.938  1.00 51.25     0.023 A 
HETATM   25  NBN   D T 501      48.561  33.397 -11.111  1.00 50.08    -0.304 N 
HETATM   26  CBB   D T 501      50.467  33.237 -14.005  1.00 50.95     0.061 A 
HETATM   27  CBC   D T 501      49.091  31.807 -12.478  1.00 50.16     0.018 A 
HETATM   28  CAX   D T 501      50.994  32.519 -15.040  1.00 50.99     0.279 A 
HETATM   29  CBA   D T 501      50.875  34.524 -14.155  1.00 49.90     0.025 A 
HETATM   30  OAD   D T 501      50.829  31.320 -15.277  1.00 50.93    -0.265 OA
HETATM   31  NAU   D T 501      51.703  33.264 -15.864  1.00 48.81    -0.206 NA
HETATM   32  CAS   D T 501      51.674  34.607 -15.300  1.00 49.83     0.102 A 
HETATM   33  CAO   D T 501      49.083  30.542 -12.919  1.00 50.61     0.002 A 
HETATM   34  CBE   D T 501      48.396  32.102 -11.358  1.00 50.79     0.062 A 
HETATM   35  CAI   D T 501      48.382  29.533 -12.245  1.00 49.90     0.000 A 
HETATM   36  CAK   D T 501      47.680  29.846 -11.097  1.00 49.08     0.002 A 
HETATM   37  CAQ   D T 501      47.704  31.166 -10.671  1.00 49.54     0.017 A 
HETATM   38  CBD   D T 501      50.795  36.810 -13.208  1.00 49.67     0.017 A 
HETATM   39  CAP   D T 501      51.532  37.603 -13.997  1.00 49.34     0.002 A 
HETATM   40  CBF   D T 501      50.185  37.319 -12.128  1.00 49.59     0.062 A 
HETATM   41  CAJ   D T 501      51.708  38.952 -13.719  1.00 48.60     0.000 A 
HETATM   42  CAL   D T 501      51.082  39.469 -12.600  1.00 49.77     0.002 A 
HETATM   43  CAR   D T 501      50.307  38.621 -11.824  1.00 48.78     0.017 A 
ENDBRANCH   1  20
TORSDOF 5
ENDMDL
MODEL 4
REMARK VINA RESULT:      -5.0      1.941      2.775
REMARK  5 active torsions:
REMARK  status: ('A' for Active; 'I' for Inactive)
REMARK       I    between atoms: NBM_14  and  CAY_34 
REMARK    1  A    between atoms: NBM_14  and  CBL_43 
REMARK    2  A    between atoms: NBN_24  and  CBK_31 
REMARK    3  A    between atoms: CBQ_25  and  NBO_42 
REMARK    4  A    between atoms: CBP_26  and  OAV_27 
REMARK    5  A    between atoms: CAY_34  and  CAZ_36 
ROOT
HETATM    1  CBQ   D T 501      47.043  38.054  -9.758  1.00 50.59     0.192 C 
HETATM    2  CBP   D T 501      45.885  37.474  -8.909  1.00 51.47     0.181 C 
HETATM    3  CAC   D T 501      48.255  38.261  -8.848  1.00 49.86     0.057 C 
HETATM    4  OAW   D T 501      46.733  39.363 -10.243  1.00 50.94    -0.319 OA
HETATM    5  CBK   D T 501      45.368  39.701 -10.537  1.00 51.68     0.208 C 
HETATM    6  CAT   D T 501      44.399  39.333  -9.433  1.00 52.45     0.079 C 
HETATM    7  CBL   D T 501      45.175  38.655  -8.313  1.00 53.19     0.120 C 
ENDROOT
BRANCH   7   8
HETATM    8  NBM   D T 501      44.226  38.339  -7.234  1.00 56.59    -0.314 N 
HETATM    9  CAB   D T 501      42.769  38.434  -7.480  1.00 55.78     0.129 C 
HETATM   10  CAY   D T 501      44.719  38.032  -6.001  1.00 60.97     0.257 C 
HETATM   11  OAE   D T 501      45.931  37.982  -5.764  1.00 63.13    -0.267 OA
BRANCH  10  12
HETATM   12  CAZ   D T 501      43.841  37.871  -4.934  1.00 63.15     0.056 A 
HETATM   13  CAM   D T 501      43.325  36.624  -4.603  1.00 63.31     0.005 A 
HETATM   14  CAG   D T 501      42.482  36.506  -3.499  1.00 63.55     0.000 A 
HETATM   15  CAF   D T 501      42.163  37.624  -2.725  1.00 64.46     0.000 A 
HETATM   16  CAH   D T 501      42.692  38.874  -3.046  1.00 64.03     0.000 A 
HETATM   17  CAN   D T 501      43.543  38.990  -4.142  1.00 64.07     0.005 A 
ENDBRANCH  10  12
ENDBRANCH   7   8
BRANCH   2  18
HETATM   18  OAV   D T 501      44.971  36.721  -9.754  1.00 51.71    -0.348 OA
HETATM   19  CAA   D T 501      44.459  35.511  -9.202  1.00 53.01     0.174 C 
ENDBRANCH   2  18
BRANCH   1  20
HETATM   20  NBO   D T 501      47.281  37.188 -10.964  1.00 51.03    -0.306 N 
HETATM   21  CBJ   D T 501      47.808  35.948 -10.923  1.00 50.94     0.078 A 
HETATM   22  CBI   D T 501      48.213  35.169  -9.897  1.00 51.53     0.078 A 
HETATM   23  CBG   D T 501      47.891  35.483 -12.169  1.00 50.22     0.020 A 
HETATM   24  CBH   D T 501      48.713  33.925 -10.102  1.00 51.25     0.023 A 
HETATM   25  NBN   D T 501      48.231  35.429  -8.588  1.00 50.08    -0.304 N 
HETATM   26  CBB   D T 501      48.805  33.446 -11.377  1.00 50.95     0.061 A 
HETATM   27  CBC   D T 501      49.019  33.435  -8.882  1.00 50.16     0.018 A 
HETATM   28  CAX   D T 501      49.240  32.277 -11.931  1.00 50.99     0.279 A 
HETATM   29  CBA   D T 501      48.388  34.246 -12.391  1.00 49.90     0.025 A 
HETATM   30  OAD   D T 501      49.668  31.284 -11.339  1.00 50.93    -0.265 OA
HETATM   31  NAU   D T 501      49.113  32.261 -13.243  1.00 48.81    -0.206 NA
HETATM   32  CAS   D T 501      48.570  33.565 -13.599  1.00 49.83     0.102 A 
HETATM   33  CAO   D T 501      49.533  32.269  -8.471  1.00 50.61     0.002 A 
HETATM   34  CBE   D T 501      48.706  34.364  -7.951  1.00 50.79     0.062 A 
HETATM   35  CAI   D T 501      49.755  31.999  -7.113  1.00 49.90     0.000 A 
HETATM   36  CAK   D T 501      49.437  32.959  -6.172  1.00 49.08     0.002 A 
HETATM   37  CAQ   D T 501      48.901  34.154  -6.630  1.00 49.54     0.017 A 
HETATM   38  CBD   D T 501      47.436  36.453 -12.987  1.00 49.67     0.017 A 
HETATM   39  CAP   D T 501      47.317  36.498 -14.320  1.00 49.34     0.002 A 
HETATM   40  CBF   D T 501      47.062  37.505 -12.245  1.00 49.59     0.062 A 
HETATM   41  CAJ   D T 501      46.833  37.624 -14.974  1.00 48.60     0.000 A 
HETATM   42  CAL   D T 501      46.455  38.707 -14.204  1.00 49.77     0.002 A 
HETATM   43  CAR   D T 501      46.570  38.611 -12.825  1.00 48.78     0.017 A 
ENDBRANCH   1  20
TORSDOF 5
ENDMDL
MODEL 5
REMARK VINA RESULT:      -5.0      4.795      7.842
REMARK  5 active torsions:
REMARK  status: ('A' for Active; 'I' for Inactive)
REMARK       I    between atoms: NBM_14  and  CAY_34 
REMARK    1  A    between atoms: NBM_14  and  CBL_43 
REMARK    2  A    between atoms: NBN_24  and  CBK_31 
REMARK    3  A    between atoms: CBQ_25  and  NBO_42 
REMARK    4  A    between atoms: CBP_26  and  OAV_27 
REMARK    5  A    between atoms: CAY_34  and  CAZ_36 
ROOT
HETATM    1  CBQ   D T 501      48.670  31.129 -10.268  1.00 50.59     0.192 C 
HETATM    2  CBP   D T 501      49.531  31.844  -9.197  1.00 51.47     0.181 C 
HETATM    3  CAC   D T 501      47.257  31.714 -10.225  1.00 49.86     0.057 C 
HETATM    4  OAW   D T 501      48.493  29.744  -9.959  1.00 50.94    -0.319 OA
HETATM    5  CBK   D T 501      49.532  29.037  -9.264  1.00 51.68     0.208 C 
HETATM    6  CAT   D T 501      50.044  29.763  -8.036  1.00 52.45     0.079 C 
HETATM    7  CBL   D T 501      49.310  31.091  -7.917  1.00 53.19     0.120 C 
ENDROOT
BRANCH   7   8
HETATM    8  NBM   D T 501      49.791  31.765  -6.701  1.00 56.59    -0.314 N 
HETATM    9  CAB   D T 501      50.654  31.035  -5.745  1.00 55.78     0.129 C 
HETATM   10  CAY   D T 501      49.368  33.035  -6.448  1.00 60.97     0.257 C 
HETATM   11  OAE   D T 501      48.618  33.650  -7.214  1.00 63.13    -0.267 OA
BRANCH  10  12
HETATM   12  CAZ   D T 501      49.693  33.637  -5.236  1.00 63.15     0.056 A 
HETATM   13  CAM   D T 501      50.901  34.302  -5.061  1.00 63.31     0.005 A 
HETATM   14  CAG   D T 501      51.166  34.925  -3.842  1.00 63.55     0.000 A 
HETATM   15  CAF   D T 501      50.226  34.892  -2.808  1.00 64.46     0.000 A 
HETATM   16  CAH   D T 501      49.008  34.239  -2.987  1.00 64.03     0.000 A 
HETATM   17  CAN   D T 501      48.739  33.626  -4.208  1.00 64.07     0.005 A 
ENDBRANCH  10  12
ENDBRANCH   7   8
BRANCH   2  18
HETATM   18  OAV   D T 501      50.936  31.793  -9.567  1.00 51.71    -0.348 OA
HETATM   19  CAA   D T 501      51.708  32.951  -9.261  1.00 53.01     0.174 C 
ENDBRANCH   2  18
BRANCH   1  20
HETATM   20  NBO   D T 501      49.354  31.192 -11.605  1.00 51.03    -0.306 N 
HETATM   21  CBJ   D T 501      49.619  32.332 -12.276  1.00 50.94     0.078 A 
HETATM   22  CBI   D T 501      49.403  33.631 -11.976  1.00 51.53     0.078 A 
HETATM   23  CBG   D T 501      50.215  32.016 -13.425  1.00 50.22     0.020 A 
HETATM   24  CBH   D T 501      49.769  34.626 -12.820  1.00 51.25     0.023 A 
HETATM   25  NBN   D T 501      48.820  34.170 -10.903  1.00 50.08    -0.304 N 
HETATM   26  CBB   D T 501      50.375  34.309 -14.001  1.00 50.95     0.061 A 
HETATM   27  CBC   D T 501      49.407  35.781 -12.222  1.00 50.16     0.018 A 
HETATM   28  CAX   D T 501      50.864  35.032 -15.051  1.00 50.99     0.279 A 
HETATM   29  CBA   D T 501      50.586  32.996 -14.278  1.00 49.90     0.025 A 
HETATM   30  OAD   D T 501      50.889  36.259 -15.165  1.00 50.93    -0.265 OA
HETATM   31  NAU   D T 501      51.396  34.269 -15.986  1.00 48.81    -0.206 NA
HETATM   32  CAS   D T 501      51.212  32.900 -15.525  1.00 49.83     0.102 A 
HETATM   33  CAO   D T 501      49.520  37.067 -12.580  1.00 50.61     0.002 A 
HETATM   34  CBE   D T 501      48.834  35.492 -11.032  1.00 50.79     0.062 A 
HETATM   35  CAI   D T 501      49.057  38.103 -11.757  1.00 49.90     0.000 A 
HETATM   36  CAK   D T 501      48.468  37.794 -10.546  1.00 49.08     0.002 A 
HETATM   37  CAQ   D T 501      48.371  36.454 -10.203  1.00 49.54     0.017 A 
HETATM   38  CBD   D T 501      50.297  30.672 -13.476  1.00 49.67     0.017 A 
HETATM   39  CAP   D T 501      50.796  29.854 -14.411  1.00 49.34     0.002 A 
HETATM   40  CBF   D T 501      49.764  30.163 -12.355  1.00 49.59     0.062 A 
HETATM   41  CAJ   D T 501      50.761  28.472 -14.269  1.00 48.60     0.000 A 
HETATM   42  CAL   D T 501      50.206  27.955 -13.114  1.00 49.77     0.002 A 
HETATM   43  CAR   D T 501      49.723  28.837 -12.159  1.00 48.78     0.017 A 
ENDBRANCH   1  20
TORSDOF 5
ENDMDL
MODEL 6
REMARK VINA RESULT:      -4.8      2.651      9.454
REMARK  5 active torsions:
REMARK  status: ('A' for Active; 'I' for Inactive)
REMARK       I    between atoms: NBM_14  and  CAY_34 
REMARK    1  A    between atoms: NBM_14  and  CBL_43 
REMARK    2  A    between atoms: NBN_24  and  CBK_31 
REMARK    3  A    between atoms: CBQ_25  and  NBO_42 
REMARK    4  A    between atoms: CBP_26  and  OAV_27 
REMARK    5  A    between atoms: CAY_34  and  CAZ_36 
ROOT
HETATM    1  CBQ   D T 501      49.846  33.678  -8.346  1.00 50.59     0.192 C 
HETATM    2  CBP   D T 501      49.338  32.600  -9.335  1.00 51.47     0.181 C 
HETATM    3  CAC   D T 501      50.952  34.483  -9.032  1.00 49.86     0.057 C 
HETATM    4  OAW   D T 501      50.485  33.089  -7.211  1.00 50.94    -0.319 OA
HETATM    5  CBK   D T 501      50.037  31.810  -6.734  1.00 51.68     0.208 C 
HETATM    6  CAT   D T 501      49.895  30.769  -7.825  1.00 52.45     0.079 C 
HETATM    7  CBL   D T 501      50.243  31.415  -9.159  1.00 53.19     0.120 C 
ENDROOT
BRANCH   7   8
HETATM    8  NBM   D T 501      50.137  30.383 -10.201  1.00 56.59    -0.314 N 
HETATM    9  CAB   D T 501      49.244  29.220 -10.000  1.00 55.78     0.129 C 
HETATM   10  CAY   D T 501      50.928  30.488 -11.306  1.00 60.97     0.257 C 
HETATM   11  OAE   D T 501      51.708  31.431 -11.477  1.00 63.13    -0.267 OA
BRANCH  10  12
HETATM   12  CAZ   D T 501      50.949  29.451 -12.234  1.00 63.15     0.056 A 
HETATM   13  CAM   D T 501      50.374  29.594 -13.491  1.00 63.31     0.005 A 
HETATM   14  CAG   D T 501      50.457  28.541 -14.402  1.00 63.55     0.000 A 
HETATM   15  CAF   D T 501      51.117  27.357 -14.063  1.00 64.46     0.000 A 
HETATM   16  CAH   D T 501      51.708  27.218 -12.808  1.00 64.03     0.000 A 
HETATM   17  CAN   D T 501      51.635  28.273 -11.902  1.00 64.07     0.005 A 
ENDBRANCH  10  12
ENDBRANCH   7   8
BRANCH   2  18
HETATM   18  OAV   D T 501      47.969  32.230  -9.014  1.00 51.71    -0.348 OA
HETATM   19  CAA   D T 501      47.088  32.063 -10.122  1.00 53.01     0.174 C 
ENDBRANCH   2  18
BRANCH   1  20
HETATM   20  NBO   D T 501      48.689  34.484  -7.825  1.00 51.03    -0.306 N 
HETATM   21  CBJ   D T 501      47.938  35.318  -8.573  1.00 50.94     0.078 A 
HETATM   22  CBI   D T 501      47.967  35.630  -9.887  1.00 51.53     0.078 A 
HETATM   23  CBG   D T 501      47.018  35.875  -7.788  1.00 50.22     0.020 A 
HETATM   24  CBH   D T 501      47.088  36.508 -10.429  1.00 51.25     0.023 A 
HETATM   25  NBN   D T 501      48.797  35.207 -10.843  1.00 50.08    -0.304 N 
HETATM   26  CBB   D T 501      46.146  37.087  -9.629  1.00 50.95     0.061 A 
HETATM   27  CBC   D T 501      47.397  36.592 -11.740  1.00 50.16     0.018 A 
HETATM   28  CAX   D T 501      45.134  37.981  -9.833  1.00 50.99     0.279 A 
HETATM   29  CBA   D T 501      46.134  36.753  -8.312  1.00 49.90     0.025 A 
HETATM   30  OAD   D T 501      44.799  38.498 -10.901  1.00 50.93    -0.265 OA
HETATM   31  NAU   D T 501      44.453  38.234  -8.733  1.00 48.81    -0.206 NA
HETATM   32  CAS   D T 501      45.100  37.455  -7.685  1.00 49.83     0.102 A 
HETATM   33  CAO   D T 501      46.874  37.289 -12.757  1.00 50.61     0.002 A 
HETATM   34  CBE   D T 501      48.445  35.776 -11.991  1.00 50.79     0.062 A 
HETATM   35  CAI   D T 501      47.390  37.193 -14.057  1.00 49.90     0.000 A 
HETATM   36  CAK   D T 501      48.464  36.360 -14.300  1.00 49.08     0.002 A 
HETATM   37  CAQ   D T 501      48.980  35.648 -13.226  1.00 49.54     0.017 A 
HETATM   38  CBD   D T 501      47.217  35.404  -6.542  1.00 49.67     0.017 A 
HETATM   39  CAP   D T 501      46.577  35.652  -5.392  1.00 49.34     0.002 A 
HETATM   40  CBF   D T 501      48.249  34.548  -6.563  1.00 49.59     0.062 A 
HETATM   41  CAJ   D T 501      46.965  35.062  -4.196  1.00 48.60     0.000 A 
HETATM   42  CAL   D T 501      48.034  34.186  -4.224  1.00 49.77     0.002 A 
HETATM   43  CAR   D T 501      48.653  33.935  -5.440  1.00 48.78     0.017 A 
ENDBRANCH   1  20
TORSDOF 5
ENDMDL
MODEL 7
REMARK VINA RESULT:      -4.7      5.589      8.614
REMARK  5 active torsions:
REMARK  status: ('A' for Active; 'I' for Inactive)
REMARK       I    between atoms: NBM_14  and  CAY_34 
REMARK    1  A    between atoms: NBM_14  and  CBL_43 
REMARK    2  A    between atoms: NBN_24  and  CBK_31 
REMARK    3  A    between atoms: CBQ_25  and  NBO_42 
REMARK    4  A    between atoms: CBP_26  and  OAV_27 
REMARK    5  A    between atoms: CAY_34  and  CAZ_36 
ROOT
HETATM    1  CBQ   D T 501      50.692  31.005  -9.075  1.00 50.59     0.192 C 
HETATM    2  CBP   D T 501      49.277  31.043  -9.704  1.00 51.47     0.181 C 
HETATM    3  CAC   D T 501      51.707  30.705 -10.181  1.00 49.86     0.057 C 
HETATM    4  OAW   D T 501      50.830  29.917  -8.159  1.00 50.94    -0.319 OA
HETATM    5  CBK   D T 501      49.685  29.473  -7.413  1.00 51.68     0.208 C 
HETATM    6  CAT   D T 501      48.451  29.258  -8.265  1.00 52.45     0.079 C 
HETATM    7  CBL   D T 501      48.785  29.624  -9.704  1.00 53.19     0.120 C 
ENDROOT
BRANCH   7   8
HETATM    8  NBM   D T 501      47.590  29.374 -10.523  1.00 56.59    -0.314 N 
HETATM    9  CAB   D T 501      47.625  29.633 -11.980  1.00 55.78     0.129 C 
HETATM   10  CAY   D T 501      46.445  28.974  -9.901  1.00 60.97     0.257 C 
HETATM   11  OAE   D T 501      46.382  28.788  -8.680  1.00 63.13    -0.267 OA
BRANCH  10  12
HETATM   12  CAZ   D T 501      45.267  28.872 -10.634  1.00 63.15     0.056 A 
HETATM   13  CAM   D T 501      45.017  27.776 -11.451  1.00 63.31     0.005 A 
HETATM   14  CAG   D T 501      43.804  27.697 -12.135  1.00 63.55     0.000 A 
HETATM   15  CAF   D T 501      42.843  28.702 -11.996  1.00 64.46     0.000 A 
HETATM   16  CAH   D T 501      43.085  29.795 -11.164  1.00 64.03     0.000 A 
HETATM   17  CAN   D T 501      44.292  29.868 -10.473  1.00 64.07     0.005 A 
ENDBRANCH  10  12
ENDBRANCH   7   8
BRANCH   2  18
HETATM   18  OAV   D T 501      48.393  31.875  -8.903  1.00 51.71    -0.348 OA
HETATM   19  CAA   D T 501      47.534  32.753  -9.624  1.00 53.01     0.174 C 
ENDBRANCH   2  18
BRANCH   1  20
HETATM   20  NBO   D T 501      50.942  32.266  -8.295  1.00 51.03    -0.306 N 
HETATM   21  CBJ   D T 501      51.048  33.495  -8.840  1.00 50.94     0.078 A 
HETATM   22  CBI   D T 501      50.944  33.934 -10.113  1.00 51.53     0.078 A 
HETATM   23  CBG   D T 501      51.284  34.370  -7.864  1.00 50.22     0.020 A 
HETATM   24  CBH   D T 501      51.085  35.245 -10.427  1.00 51.25     0.023 A 
HETATM   25  NBN   D T 501      50.727  33.244 -11.235  1.00 50.08    -0.304 N 
HETATM   26  CBB   D T 501      51.331  36.146  -9.432  1.00 50.95     0.061 A 
HETATM   27  CBC   D T 501      50.929  35.331 -11.766  1.00 50.16     0.018 A 
HETATM   28  CAX   D T 501      51.516  37.498  -9.388  1.00 50.99     0.279 A 
HETATM   29  CBA   D T 501      51.427  35.681  -8.160  1.00 49.90     0.025 A 
HETATM   30  OAD   D T 501      51.474  38.288 -10.334  1.00 50.93    -0.265 OA
HETATM   31  NAU   D T 501      51.708  37.943  -8.162  1.00 48.81    -0.206 NA
HETATM   32  CAS   D T 501      51.681  36.762  -7.309  1.00 49.83     0.102 A 
HETATM   33  CAO   D T 501      50.958  36.361 -12.621  1.00 50.61     0.002 A 
HETATM   34  CBE   D T 501      50.695  34.094 -12.256  1.00 50.79     0.062 A 
HETATM   35  CAI   D T 501      50.758  36.180 -13.997  1.00 49.90     0.000 A 
HETATM   36  CAK   D T 501      50.526  34.910 -14.486  1.00 49.08     0.002 A 
HETATM   37  CAQ   D T 501      50.497  33.866 -13.573  1.00 49.54     0.017 A 
HETATM   38  CBD   D T 501      51.349  33.675  -6.712  1.00 49.67     0.017 A 
HETATM   39  CAP   D T 501      51.571  34.073  -5.452  1.00 49.34     0.002 A 
HETATM   40  CBF   D T 501      51.140  32.377  -6.977  1.00 49.59     0.062 A 
HETATM   41  CAJ   D T 501      51.616  33.171  -4.396  1.00 48.60     0.000 A 
HETATM   42  CAL   D T 501      51.406  31.835  -4.678  1.00 49.77     0.002 A 
HETATM   43  CAR   D T 501      51.154  31.466  -5.991  1.00 48.78     0.017 A 
ENDBRANCH   1  20
TORSDOF 5
ENDMDL
MODEL 8
REMARK VINA RESULT:      -4.0      3.855      7.025
REMARK  5 active torsions:
REMARK  status: ('A' for Active; 'I' for Inactive)
REMARK       I    between atoms: NBM_14  and  CAY_34 
REMARK    1  A    between atoms: NBM_14  and  CBL_43 
REMARK    2  A    between atoms: NBN_24  and  CBK_31 
REMARK    3  A    between atoms: CBQ_25  and  NBO_42 
REMARK    4  A    between atoms: CBP_26  and  OAV_27 
REMARK    5  A    between atoms: CAY_34  and  CAZ_36 
ROOT
HETATM    1  CBQ   D T 501      42.430  35.379  -6.005  1.00 50.59     0.192 C 
HETATM    2  CBP   D T 501      42.774  34.400  -7.154  1.00 51.47     0.181 C 
HETATM    3  CAC   D T 501      42.842  34.735  -4.679  1.00 49.86     0.057 C 
HETATM    4  OAW   D T 501      41.019  35.573  -5.886  1.00 50.94    -0.319 OA
HETATM    5  CBK   D T 501      40.195  35.504  -7.060  1.00 51.68     0.208 C 
HETATM    6  CAT   D T 501      40.463  34.286  -7.921  1.00 52.45     0.079 C 
HETATM    7  CBL   D T 501      41.592  33.484  -7.288  1.00 53.19     0.120 C 
ENDROOT
BRANCH   7   8
HETATM    8  NBM   D T 501      41.813  32.288  -8.113  1.00 56.59    -0.314 N 
HETATM    9  CAB   D T 501      42.396  32.423  -9.468  1.00 55.78     0.129 C 
HETATM   10  CAY   D T 501      41.406  31.079  -7.634  1.00 60.97     0.257 C 
HETATM   11  OAE   D T 501      40.883  30.948  -6.522  1.00 63.13    -0.267 OA
BRANCH  10  12
HETATM   12  CAZ   D T 501      41.473  29.959  -8.456  1.00 63.15     0.056 A 
HETATM   13  CAM   D T 501      42.586  29.125  -8.452  1.00 63.31     0.005 A 
HETATM   14  CAG   D T 501      42.591  27.991  -9.262  1.00 63.55     0.000 A 
HETATM   15  CAF   D T 501      41.488  27.685 -10.064  1.00 64.46     0.000 A 
HETATM   16  CAH   D T 501      40.365  28.510 -10.058  1.00 64.03     0.000 A 
HETATM   17  CAN   D T 501      40.355  29.638  -9.240  1.00 64.07     0.005 A 
ENDBRANCH  10  12
ENDBRANCH   7   8
BRANCH   2  18
HETATM   18  OAV   D T 501      42.977  35.132  -8.394  1.00 51.71    -0.348 OA
HETATM   19  CAA   D T 501      44.319  35.207  -8.867  1.00 53.01     0.174 C 
ENDBRANCH   2  18
BRANCH   1  20
HETATM   20  NBO   D T 501      43.032  36.729  -6.281  1.00 51.03    -0.306 N 
HETATM   21  CBJ   D T 501      44.279  37.099  -5.924  1.00 50.94     0.078 A 
HETATM   22  CBI   D T 501      45.277  36.435  -5.302  1.00 51.53     0.078 A 
HETATM   23  CBG   D T 501      44.473  38.359  -6.310  1.00 50.22     0.020 A 
HETATM   24  CBH   D T 501      46.473  37.022  -5.050  1.00 51.25     0.023 A 
HETATM   25  NBN   D T 501      45.301  35.189  -4.823  1.00 50.08    -0.304 N 
HETATM   26  CBB   D T 501      46.675  38.314  -5.439  1.00 50.95     0.061 A 
HETATM   27  CBC   D T 501      47.225  36.093  -4.422  1.00 50.16     0.018 A 
HETATM   28  CAX   D T 501      47.722  39.187  -5.354  1.00 50.99     0.279 A 
HETATM   29  CBA   D T 501      45.659  38.959  -6.067  1.00 49.90     0.025 A 
HETATM   30  OAD   D T 501      48.839  38.970  -4.879  1.00 50.93    -0.265 OA
HETATM   31  NAU   D T 501      47.453  40.355  -5.905  1.00 48.81    -0.206 NA
HETATM   32  CAS   D T 501      46.077  40.258  -6.374  1.00 49.83     0.102 A 
HETATM   33  CAO   D T 501      48.477  36.105  -3.946  1.00 50.61     0.002 A 
HETATM   34  CBE   D T 501      46.500  34.960  -4.298  1.00 50.79     0.062 A 
HETATM   35  CAI   D T 501      49.038  34.980  -3.325  1.00 49.90     0.000 A 
HETATM   36  CAK   D T 501      48.285  33.830  -3.199  1.00 49.08     0.002 A 
HETATM   37  CAQ   D T 501      46.994  33.849  -3.707  1.00 49.54     0.017 A 
HETATM   38  CBD   D T 501      43.330  38.779  -6.888  1.00 49.67     0.017 A 
HETATM   39  CAP   D T 501      42.998  39.957  -7.431  1.00 49.34     0.002 A 
HETATM   40  CBF   D T 501      42.441  37.775  -6.868  1.00 49.59     0.062 A 
HETATM   41  CAJ   D T 501      41.736  40.187  -7.964  1.00 48.60     0.000 A 
HETATM   42  CAL   D T 501      40.822  39.151  -7.935  1.00 49.77     0.002 A 
HETATM   43  CAR   D T 501      41.214  37.938  -7.387  1.00 48.78     0.017 A 
ENDBRANCH   1  20
TORSDOF 5
ENDMDL
MODEL 9
REMARK VINA RESULT:      -3.7      7.177      9.371
REMARK  5 active torsions:
REMARK  status: ('A' for Active; 'I' for Inactive)
REMARK       I    between atoms: NBM_14  and  CAY_34 
REMARK    1  A    between atoms: NBM_14  and  CBL_43 
REMARK    2  A    between atoms: NBN_24  and  CBK_31 
REMARK    3  A    between atoms: CBQ_25  and  NBO_42 
REMARK    4  A    between atoms: CBP_26  and  OAV_27 
REMARK    5  A    between atoms: CAY_34  and  CAZ_36 
ROOT
HETATM    1  CBQ   D T 501      41.165  30.116  -8.831  1.00 50.59     0.192 C 
HETATM    2  CBP   D T 501      41.723  31.560  -8.843  1.00 51.47     0.181 C 
HETATM    3  CAC   D T 501      39.699  30.158  -9.271  1.00 49.86     0.057 C 
HETATM    4  OAW   D T 501      41.125  29.581  -7.506  1.00 50.94    -0.319 OA
HETATM    5  CBK   D T 501      42.113  29.992  -6.549  1.00 51.68     0.208 C 
HETATM    6  CAT   D T 501      42.303  31.493  -6.477  1.00 52.45     0.079 C 
HETATM    7  CBL   D T 501      41.387  32.147  -7.503  1.00 53.19     0.120 C 
ENDROOT
BRANCH   7   8
HETATM    8  NBM   D T 501      41.556  33.604  -7.394  1.00 56.59    -0.314 N 
HETATM    9  CAB   D T 501      42.579  34.163  -6.482  1.00 55.78     0.129 C 
HETATM   10  CAY   D T 501      40.707  34.412  -8.089  1.00 60.97     0.257 C 
HETATM   11  OAE   D T 501      39.821  33.967  -8.827  1.00 63.13    -0.267 OA
BRANCH  10  12
HETATM   12  CAZ   D T 501      40.755  35.788  -7.889  1.00 63.15     0.056 A 
HETATM   13  CAM   D T 501      39.937  36.412  -6.954  1.00 63.31     0.005 A 
HETATM   14  CAG   D T 501      40.051  37.788  -6.760  1.00 63.55     0.000 A 
HETATM   15  CAF   D T 501      40.980  38.536  -7.487  1.00 64.46     0.000 A 
HETATM   16  CAH   D T 501      41.813  37.909  -8.414  1.00 64.03     0.000 A 
HETATM   17  CAN   D T 501      41.707  36.533  -8.601  1.00 64.07     0.005 A 
ENDBRANCH  10  12
ENDBRANCH   7   8
BRANCH   2  18
HETATM   18  OAV   D T 501      43.165  31.540  -9.029  1.00 51.71    -0.348 OA
HETATM   19  CAA   D T 501      43.774  32.787  -9.354  1.00 53.01     0.174 C 
ENDBRANCH   2  18
BRANCH   1  20
HETATM   20  NBO   D T 501      42.055  29.213  -9.638  1.00 51.03    -0.306 N 
HETATM   21  CBJ   D T 501      41.616  28.215 -10.432  1.00 50.94     0.078 A 
HETATM   22  CBI   D T 501      40.374  27.782 -10.739  1.00 51.53     0.078 A 
HETATM   23  CBG   D T 501      42.672  27.615 -10.979  1.00 50.22     0.020 A 
HETATM   24  CBH   D T 501      40.173  26.742 -11.586  1.00 51.25     0.023 A 
HETATM   25  NBN   D T 501      39.189  28.219 -10.306  1.00 50.08    -0.304 N 
HETATM   26  CBB   D T 501      41.251  26.121 -12.146  1.00 50.95     0.061 A 
HETATM   27  CBC   D T 501      38.835  26.574 -11.666  1.00 50.16     0.018 A 
HETATM   28  CAX   D T 501      41.412  25.080 -13.015  1.00 50.99     0.279 A 
HETATM   29  CBA   D T 501      42.489  26.577 -11.825  1.00 49.90     0.025 A 
HETATM   30  OAD   D T 501      40.526  24.420 -13.561  1.00 50.93    -0.265 OA
HETATM   31  NAU   D T 501      42.679  24.844 -13.293  1.00 48.81    -0.206 NA
HETATM   32  CAS   D T 501      43.438  25.804 -12.502  1.00 49.83     0.102 A 
HETATM   33  CAO   D T 501      38.064  25.715 -12.345  1.00 50.61     0.002 A 
HETATM   34  CBE   D T 501      38.235  27.498 -10.884  1.00 50.79     0.062 A 
HETATM   35  CAI   D T 501      36.666  25.753 -12.256  1.00 49.90     0.000 A 
HETATM   36  CAK   D T 501      36.064  26.698 -11.449  1.00 49.08     0.002 A 
HETATM   37  CAQ   D T 501      36.891  27.576 -10.763  1.00 49.54     0.017 A 
HETATM   38  CBD   D T 501      43.772  28.230 -10.502  1.00 49.67     0.017 A 
HETATM   39  CAP   D T 501      45.073  28.010 -10.727  1.00 49.34     0.002 A 
HETATM   40  CBF   D T 501      43.392  29.214  -9.673  1.00 49.59     0.062 A 
HETATM   41  CAJ   D T 501      46.062  28.762 -10.105  1.00 48.60     0.000 A 
HETATM   42  CAL   D T 501      45.664  29.770  -9.247  1.00 49.77     0.002 A 
HETATM   43  CAR   D T 501      44.306  29.983  -9.061  1.00 48.78     0.017 A 
ENDBRANCH   1  20
TORSDOF 5
ENDMDL
