MODEL 1
REMARK VINA RESULT:   -10.421      0.000      0.000
REMARK INTER + INTRA:         -11.315
REMARK INTER:                 -12.858
REMARK INTRA:                   1.543
REMARK UNBOUND:                 1.543
REMARK  5 active torsions:
REMARK  status: ('A' for Active; 'I' for Inactive)
REMARK       I    between atoms: NBM_14  and  CAY_34 
REMARK    1  A    between atoms: NBM_14  and  CBL_43 
REMARK    2  A    between atoms: NBN_24  and  CBK_31 
REMARK    3  A    between atoms: CBQ_25  and  NBO_42 
REMARK    4  A    between atoms: CBP_26  and  OAV_27 
REMARK    5  A    between atoms: CAY_34  and  CAZ_36 
ROOT
HETATM    1  CBQ   D T 501      -1.697  -0.503  -9.085  1.00 56.13     0.192 C 
HETATM    2  CBP   D T 501      -2.436   0.282 -10.214  1.00 58.89     0.181 C 
HETATM    3  CAC   D T 501      -2.682  -0.675  -7.924  1.00 54.70     0.057 C 
HETATM    4  OAW   D T 501      -0.626   0.295  -8.546  1.00 56.41    -0.319 OA
HETATM    5  CBK   D T 501       0.113   1.174  -9.427  1.00 58.59     0.208 C 
HETATM    6  CAT   D T 501      -0.780   2.046 -10.332  1.00 60.77     0.079 C 
HETATM    7  CBL   D T 501      -2.223   1.762  -9.955  1.00 62.40     0.120 C 
ENDROOT
BRANCH   7   8
HETATM    8  NBM   D T 501      -3.131   2.674 -10.686  1.00 69.47    -0.314 N 
HETATM    9  CAB   D T 501      -2.708   3.269 -11.974  1.00 69.73     0.129 C 
HETATM   10  CAY   D T 501      -4.327   3.030 -10.126  1.00 78.65     0.257 C 
HETATM   11  OAE   D T 501      -4.712   2.590  -9.042  1.00 84.78    -0.267 OA
BRANCH  10  12
HETATM   12  CAZ   D T 501      -5.147   3.954 -10.780  1.00 83.94     0.056 A 
HETATM   13  CAM   D T 501      -6.302   3.538 -11.442  1.00 85.65     0.005 A 
HETATM   14  CAG   D T 501      -7.120   4.479 -12.071  1.00 86.83     0.000 A 
HETATM   15  CAF   D T 501      -6.795   5.838 -12.030  1.00 87.55     0.000 A 
HETATM   16  CAH   D T 501      -5.647   6.261 -11.358  1.00 86.87     0.000 A 
HETATM   17  CAN   D T 501      -4.832   5.319 -10.726  1.00 86.77     0.005 A 
ENDBRANCH  10  12
ENDBRANCH   7   8
BRANCH   2  18
HETATM   18  OAV   D T 501      -1.863  -0.069 -11.491  1.00 58.49    -0.348 OA
HETATM   19  CAA   D T 501      -2.785  -0.065 -12.588  1.00 58.91     0.174 C 
ENDBRANCH   2  18
BRANCH   1  20
HETATM   20  NBO   D T 501      -1.075  -1.801  -9.618  1.00 52.97    -0.306 N 
HETATM   21  CBJ   D T 501      -1.767  -2.779 -10.241  1.00 52.84     0.078 A 
HETATM   22  CBI   D T 501      -3.066  -2.895 -10.572  1.00 54.34     0.078 A 
HETATM   23  CBG   D T 501      -0.932  -3.765 -10.556  1.00 49.70     0.020 A 
HETATM   24  CBH   D T 501      -3.531  -3.983 -11.208  1.00 53.24     0.023 A 
HETATM   25  NBN   D T 501      -4.085  -2.059 -10.363  1.00 56.00    -0.304 N 
HETATM   26  CBB   D T 501      -2.679  -4.981 -11.519  1.00 51.65     0.061 A 
HETATM   27  CBC   D T 501      -4.853  -3.795 -11.400  1.00 55.43     0.018 A 
HETATM   28  CAX   D T 501      -2.826  -6.172 -12.144  1.00 52.61     0.279 A 
HETATM   29  CBA   D T 501      -1.379  -4.855 -11.183  1.00 50.39     0.025 A 
HETATM   30  OAD   D T 501      -3.867  -6.610 -12.636  1.00 50.87    -0.265 OA
HETATM   31  NAU   D T 501      -1.681  -6.841 -12.232  1.00 51.23    -0.206 NA
HETATM   32  CAS   D T 501      -0.683  -6.005 -11.588  1.00 50.53     0.102 A 
HETATM   33  CAO   D T 501      -5.807  -4.551 -11.980  1.00 55.71     0.002 A 
HETATM   34  CBE   D T 501      -5.185  -2.594 -10.884  1.00 56.05     0.062 A 
HETATM   35  CAI   D T 501      -7.129  -4.116 -12.052  1.00 56.13     0.000 A 
HETATM   36  CAK   D T 501      -7.458  -2.876 -11.513  1.00 56.08     0.002 A 
HETATM   37  CAQ   D T 501      -6.446  -2.125 -10.925  1.00 55.62     0.017 A 
HETATM   38  CBD   D T 501       0.281  -3.428 -10.118  1.00 49.53     0.017 A 
HETATM   39  CAP   D T 501       1.450  -4.088 -10.190  1.00 47.22     0.002 A 
HETATM   40  CBF   D T 501       0.197  -2.216  -9.535  1.00 49.98     0.062 A 
HETATM   41  CAJ   D T 501       2.608  -3.546  -9.656  1.00 47.45     0.000 A 
HETATM   42  CAL   D T 501       2.529  -2.301  -9.052  1.00 48.41     0.002 A 
HETATM   43  CAR   D T 501       1.296  -1.653  -9.013  1.00 49.30     0.017 A 
ENDBRANCH   1  20
TORSDOF 5
ENDMDL
MODEL 2
REMARK VINA RESULT:   -10.352      2.272      5.786
REMARK INTER + INTRA:         -11.229
REMARK INTER:                 -12.260
REMARK INTRA:                   1.031
REMARK UNBOUND:                 1.543
REMARK  5 active torsions:
REMARK  status: ('A' for Active; 'I' for Inactive)
REMARK       I    between atoms: NBM_14  and  CAY_34 
REMARK    1  A    between atoms: NBM_14  and  CBL_43 
REMARK    2  A    between atoms: NBN_24  and  CBK_31 
REMARK    3  A    between atoms: CBQ_25  and  NBO_42 
REMARK    4  A    between atoms: CBP_26  and  OAV_27 
REMARK    5  A    between atoms: CAY_34  and  CAZ_36 
ROOT
HETATM    1  CBQ   D T 501      -5.403  -0.328 -12.945  1.00 56.13     0.192 C 
HETATM    2  CBP   D T 501      -5.107   0.413 -11.603  1.00 58.89     0.181 C 
HETATM    3  CAC   D T 501      -4.151  -0.211 -13.822  1.00 54.70     0.057 C 
HETATM    4  OAW   D T 501      -6.432   0.364 -13.677  1.00 56.41    -0.319 OA
HETATM    5  CBK   D T 501      -7.503   1.011 -12.948  1.00 58.59     0.208 C 
HETATM    6  CAT   D T 501      -7.020   1.887 -11.776  1.00 60.77     0.079 C 
HETATM    7  CBL   D T 501      -5.502   1.866 -11.788  1.00 62.40     0.120 C 
ENDROOT
BRANCH   7   8
HETATM    8  NBM   D T 501      -4.970   2.804 -10.774  1.00 69.47    -0.314 N 
HETATM    9  CAB   D T 501      -5.739   3.079  -9.539  1.00 69.73     0.129 C 
HETATM   10  CAY   D T 501      -3.806   3.479 -11.023  1.00 78.65     0.257 C 
HETATM   11  OAE   D T 501      -3.146   3.313 -12.049  1.00 84.78    -0.267 OA
BRANCH  10  12
HETATM   12  CAZ   D T 501      -3.348   4.425 -10.102  1.00 83.94     0.056 A 
HETATM   13  CAM   D T 501      -2.349   4.099  -9.183  1.00 85.65     0.005 A 
HETATM   14  CAG   D T 501      -1.889   5.064  -8.285  1.00 86.83     0.000 A 
HETATM   15  CAF   D T 501      -2.414   6.360  -8.309  1.00 87.55     0.000 A 
HETATM   16  CAH   D T 501      -3.403   6.694  -9.234  1.00 86.87     0.000 A 
HETATM   17  CAN   D T 501      -3.860   5.729 -10.135  1.00 86.77     0.005 A 
ENDBRANCH  10  12
ENDBRANCH   7   8
BRANCH   2  18
HETATM   18  OAV   D T 501      -5.902  -0.173 -10.551  1.00 58.49    -0.348 OA
HETATM   19  CAA   D T 501      -5.167  -0.566  -9.386  1.00 58.91     0.174 C 
ENDBRANCH   2  18
BRANCH   1  20
HETATM   20  NBO   D T 501      -5.901  -1.759 -12.699  1.00 52.97    -0.306 N 
HETATM   21  CBJ   D T 501      -5.122  -2.777 -12.280  1.00 52.84     0.078 A 
HETATM   22  CBI   D T 501      -3.816  -2.842 -11.960  1.00 54.34     0.078 A 
HETATM   23  CBG   D T 501      -5.861  -3.878 -12.186  1.00 49.70     0.020 A 
HETATM   24  CBH   D T 501      -3.251  -3.990 -11.553  1.00 53.24     0.023 A 
HETATM   25  NBN   D T 501      -2.878  -1.893 -11.977  1.00 56.00    -0.304 N 
HETATM   26  CBB   D T 501      -4.007  -5.104 -11.466  1.00 51.65     0.061 A 
HETATM   27  CBC   D T 501      -1.951  -3.728 -11.307  1.00 55.43     0.018 A 
HETATM   28  CAX   D T 501      -3.750  -6.379 -11.096  1.00 52.61     0.279 A 
HETATM   29  CBA   D T 501      -5.314  -5.029 -11.789  1.00 50.39     0.025 A 
HETATM   30  OAD   D T 501      -2.671  -6.814 -10.689  1.00 50.87    -0.265 OA
HETATM   31  NAU   D T 501      -4.828  -7.153 -11.165  1.00 51.23    -0.206 NA
HETATM   32  CAS   D T 501      -5.901  -6.296 -11.638  1.00 50.53     0.102 A 
HETATM   33  CAO   D T 501      -0.930  -4.498 -10.880  1.00 55.71     0.002 A 
HETATM   34  CBE   D T 501      -1.731  -2.422 -11.561  1.00 56.05     0.062 A 
HETATM   35  CAI   D T 501       0.348  -3.969 -10.701  1.00 56.13     0.000 A 
HETATM   36  CAK   D T 501       0.560  -2.621 -10.969  1.00 56.08     0.002 A 
HETATM   37  CAQ   D T 501      -0.519  -1.860 -11.405  1.00 55.62     0.017 A 
HETATM   38  CBD   D T 501      -7.101  -3.569 -12.563  1.00 49.53     0.017 A 
HETATM   39  CAP   D T 501      -8.206  -4.332 -12.646  1.00 47.22     0.002 A 
HETATM   40  CBF   D T 501      -7.130  -2.261 -12.885  1.00 49.98     0.062 A 
HETATM   41  CAJ   D T 501      -9.410  -3.799 -13.075  1.00 47.45     0.000 A 
HETATM   42  CAL   D T 501      -9.447  -2.454 -13.410  1.00 48.41     0.002 A 
HETATM   43  CAR   D T 501      -8.279  -1.704 -13.297  1.00 49.30     0.017 A 
ENDBRANCH   1  20
TORSDOF 5
ENDMDL
MODEL 3
REMARK VINA RESULT:   -10.090      2.993      8.487
REMARK INTER + INTRA:         -10.907
REMARK INTER:                 -12.659
REMARK INTRA:                   1.752
REMARK UNBOUND:                 1.543
REMARK  5 active torsions:
REMARK  status: ('A' for Active; 'I' for Inactive)
REMARK       I    between atoms: NBM_14  and  CAY_34 
REMARK    1  A    between atoms: NBM_14  and  CBL_43 
REMARK    2  A    between atoms: NBN_24  and  CBK_31 
REMARK    3  A    between atoms: CBQ_25  and  NBO_42 
REMARK    4  A    between atoms: CBP_26  and  OAV_27 
REMARK    5  A    between atoms: CAY_34  and  CAZ_36 
ROOT
HETATM    1  CBQ   D T 501      -2.676   2.427 -11.527  1.00 56.13     0.192 C 
HETATM    2  CBP   D T 501      -2.619   1.034 -10.825  1.00 58.89     0.181 C 
HETATM    3  CAC   D T 501      -4.152   2.766 -11.760  1.00 54.70     0.057 C 
HETATM    4  OAW   D T 501      -2.104   2.341 -12.846  1.00 56.41    -0.319 OA
HETATM    5  CBK   D T 501      -0.983   1.454 -13.074  1.00 58.59     0.208 C 
HETATM    6  CAT   D T 501      -1.181   0.038 -12.500  1.00 60.77     0.079 C 
HETATM    7  CBL   D T 501      -2.580  -0.023 -11.913  1.00 62.40     0.120 C 
ENDROOT
BRANCH   7   8
HETATM    8  NBM   D T 501      -2.889  -1.402 -11.472  1.00 69.47    -0.314 N 
HETATM    9  CAB   D T 501      -1.916  -2.156 -10.651  1.00 69.73     0.129 C 
HETATM   10  CAY   D T 501      -4.041  -2.005 -11.899  1.00 78.65     0.257 C 
HETATM   11  OAE   D T 501      -4.867  -1.435 -12.611  1.00 84.78    -0.267 OA
BRANCH  10  12
HETATM   12  CAZ   D T 501      -4.292  -3.335 -11.549  1.00 83.94     0.056 A 
HETATM   13  CAM   D T 501      -5.143  -3.644 -10.487  1.00 85.65     0.005 A 
HETATM   14  CAG   D T 501      -5.399  -4.978 -10.166  1.00 86.83     0.000 A 
HETATM   15  CAF   D T 501      -4.818  -6.008 -10.912  1.00 87.55     0.000 A 
HETATM   16  CAH   D T 501      -3.977  -5.705 -11.983  1.00 86.87     0.000 A 
HETATM   17  CAN   D T 501      -3.725  -4.370 -12.305  1.00 86.77     0.005 A 
ENDBRANCH  10  12
ENDBRANCH   7   8
BRANCH   2  18
HETATM   18  OAV   D T 501      -1.418   0.950 -10.030  1.00 58.49    -0.348 OA
HETATM   19  CAA   D T 501      -1.636   0.796  -8.622  1.00 58.91     0.174 C 
ENDBRANCH   2  18
BRANCH   1  20
HETATM   20  NBO   D T 501      -1.874   3.481 -10.751  1.00 52.97    -0.306 N 
HETATM   21  CBJ   D T 501      -2.365   4.212  -9.727  1.00 52.84     0.078 A 
HETATM   22  CBI   D T 501      -3.568   4.225  -9.124  1.00 54.34     0.078 A 
HETATM   23  CBG   D T 501      -1.418   5.038  -9.293  1.00 49.70     0.020 A 
HETATM   24  CBH   D T 501      -3.827   5.054  -8.099  1.00 53.24     0.023 A 
HETATM   25  NBN   D T 501      -4.665   3.508  -9.375  1.00 56.00    -0.304 N 
HETATM   26  CBB   D T 501      -2.862   5.893  -7.668  1.00 51.65     0.061 A 
HETATM   27  CBC   D T 501      -5.099   4.825  -7.714  1.00 55.43     0.018 A 
HETATM   28  CAX   D T 501      -2.805   6.821  -6.685  1.00 52.61     0.279 A 
HETATM   29  CBA   D T 501      -1.661   5.872  -8.280  1.00 50.39     0.025 A 
HETATM   30  OAD   D T 501      -3.701   7.085  -5.882  1.00 50.87    -0.265 OA
HETATM   31  NAU   D T 501      -1.619   7.418  -6.623  1.00 51.23    -0.206 NA
HETATM   32  CAS   D T 501      -0.821   6.826  -7.682  1.00 50.53     0.102 A 
HETATM   33  CAO   D T 501      -5.872   5.361  -6.749  1.00 55.71     0.002 A 
HETATM   34  CBE   D T 501      -5.607   3.856  -8.504  1.00 56.05     0.062 A 
HETATM   35  CAI   D T 501      -7.185   4.936  -6.553  1.00 56.13     0.000 A 
HETATM   36  CAK   D T 501      -7.696   3.937  -7.376  1.00 56.08     0.002 A 
HETATM   37  CAQ   D T 501      -6.868   3.408  -8.360  1.00 55.62     0.017 A 
HETATM   38  CBD   D T 501      -0.336   4.850 -10.047  1.00 49.53     0.017 A 
HETATM   39  CAP   D T 501       0.870   5.443 -10.008  1.00 47.22     0.002 A 
HETATM   40  CBF   D T 501      -0.614   3.891 -10.952  1.00 49.98     0.062 A 
HETATM   41  CAJ   D T 501       1.866   5.094 -10.906  1.00 47.45     0.000 A 
HETATM   42  CAL   D T 501       1.587   4.109 -11.841  1.00 48.41     0.002 A 
HETATM   43  CAR   D T 501       0.325   3.518 -11.833  1.00 49.30     0.017 A 
ENDBRANCH   1  20
TORSDOF 5
ENDMDL
MODEL 4
REMARK VINA RESULT:   -10.021      2.433      5.814
REMARK INTER + INTRA:         -10.821
REMARK INTER:                 -11.739
REMARK INTRA:                   0.917
REMARK UNBOUND:                 1.543
REMARK  5 active torsions:
REMARK  status: ('A' for Active; 'I' for Inactive)
REMARK       I    between atoms: NBM_14  and  CAY_34 
REMARK    1  A    between atoms: NBM_14  and  CBL_43 
REMARK    2  A    between atoms: NBN_24  and  CBK_31 
REMARK    3  A    between atoms: CBQ_25  and  NBO_42 
REMARK    4  A    between atoms: CBP_26  and  OAV_27 
REMARK    5  A    between atoms: CAY_34  and  CAZ_36 
ROOT
HETATM    1  CBQ   D T 501      -4.825  -2.236 -12.877  1.00 56.13     0.192 C 
HETATM    2  CBP   D T 501      -5.694  -1.476 -11.826  1.00 58.89     0.181 C 
HETATM    3  CAC   D T 501      -4.456  -1.236 -13.978  1.00 54.70     0.057 C 
HETATM    4  OAW   D T 501      -5.615  -3.241 -13.541  1.00 56.41    -0.319 OA
HETATM    5  CBK   D T 501      -6.637  -3.944 -12.793  1.00 58.59     0.208 C 
HETATM    6  CAT   D T 501      -7.555  -3.019 -11.971  1.00 60.77     0.079 C 
HETATM    7  CBL   D T 501      -7.142  -1.589 -12.266  1.00 62.40     0.120 C 
ENDROOT
BRANCH   7   8
HETATM    8  NBM   D T 501      -8.079  -0.643 -11.618  1.00 69.47    -0.314 N 
HETATM    9  CAB   D T 501      -9.026  -1.123 -10.588  1.00 69.73     0.129 C 
HETATM   10  CAY   D T 501      -8.122   0.659 -12.038  1.00 78.65     0.257 C 
HETATM   11  OAE   D T 501      -7.380   1.101 -12.915  1.00 84.78    -0.267 OA
BRANCH  10  12
HETATM   12  CAZ   D T 501      -9.063   1.531 -11.483  1.00 83.94     0.056 A 
HETATM   13  CAM   D T 501      -8.752   2.291 -10.356  1.00 85.65     0.005 A 
HETATM   14  CAG   D T 501      -9.698   3.173  -9.829  1.00 86.83     0.000 A 
HETATM   15  CAF   D T 501     -10.952   3.308 -10.432  1.00 87.55     0.000 A 
HETATM   16  CAH   D T 501     -11.264   2.559 -11.567  1.00 86.87     0.000 A 
HETATM   17  CAN   D T 501     -10.315   1.681 -12.096  1.00 86.77     0.005 A 
ENDBRANCH  10  12
ENDBRANCH   7   8
BRANCH   2  18
HETATM   18  OAV   D T 501      -5.533  -2.101 -10.535  1.00 58.49    -0.348 OA
HETATM   19  CAA   D T 501      -5.444  -1.192  -9.432  1.00 58.91     0.174 C 
ENDBRANCH   2  18
BRANCH   1  20
HETATM   20  NBO   D T 501      -3.640  -2.951 -12.215  1.00 52.97    -0.306 N 
HETATM   21  CBJ   D T 501      -2.621  -2.323 -11.591  1.00 52.84     0.078 A 
HETATM   22  CBI   D T 501      -2.369  -1.021 -11.361  1.00 54.34     0.078 A 
HETATM   23  CBG   D T 501      -1.759  -3.233 -11.147  1.00 49.70     0.020 A 
HETATM   24  CBH   D T 501      -1.269  -0.628 -10.698  1.00 53.24     0.023 A 
HETATM   25  NBN   D T 501      -3.066   0.064 -11.705  1.00 56.00    -0.304 N 
HETATM   26  CBB   D T 501      -0.397  -1.557 -10.256  1.00 51.65     0.061 A 
HETATM   27  CBC   D T 501      -1.308   0.718 -10.627  1.00 55.43     0.018 A 
HETATM   28  CAX   D T 501       0.768  -1.491  -9.572  1.00 52.61     0.279 A 
HETATM   29  CBA   D T 501      -0.659  -2.858 -10.492  1.00 50.39     0.025 A 
HETATM   30  OAD   D T 501       1.300  -0.467  -9.140  1.00 50.87    -0.265 OA
HETATM   31  NAU   D T 501       1.291  -2.692  -9.348  1.00 51.23    -0.206 NA
HETATM   32  CAS   D T 501       0.378  -3.642  -9.959  1.00 50.53     0.102 A 
HETATM   33  CAO   D T 501      -0.476   1.628 -10.082  1.00 55.71     0.002 A 
HETATM   34  CBE   D T 501      -2.432   1.138 -11.244  1.00 56.05     0.062 A 
HETATM   35  CAI   D T 501      -0.755   2.993 -10.146  1.00 56.13     0.000 A 
HETATM   36  CAK   D T 501      -1.917   3.411 -10.787  1.00 56.08     0.002 A 
HETATM   37  CAQ   D T 501      -2.750   2.443 -11.336  1.00 55.62     0.017 A 
HETATM   38  CBD   D T 501      -2.214  -4.433 -11.504  1.00 49.53     0.017 A 
HETATM   39  CAP   D T 501      -1.702  -5.659 -11.295  1.00 47.22     0.002 A 
HETATM   40  CBF   D T 501      -3.375  -4.264 -12.167  1.00 49.98     0.062 A 
HETATM   41  CAJ   D T 501      -2.348  -6.791 -11.765  1.00 47.45     0.000 A 
HETATM   42  CAL   D T 501      -3.542  -6.625 -12.450  1.00 48.41     0.002 A 
HETATM   43  CAR   D T 501      -4.036  -5.335 -12.631  1.00 49.30     0.017 A 
ENDBRANCH   1  20
TORSDOF 5
ENDMDL
MODEL 5
REMARK VINA RESULT:    -9.619      2.436      6.077
REMARK INTER + INTRA:         -10.326
REMARK INTER:                 -11.308
REMARK INTRA:                   0.982
REMARK UNBOUND:                 1.543
REMARK  5 active torsions:
REMARK  status: ('A' for Active; 'I' for Inactive)
REMARK       I    between atoms: NBM_14  and  CAY_34 
REMARK    1  A    between atoms: NBM_14  and  CBL_43 
REMARK    2  A    between atoms: NBN_24  and  CBK_31 
REMARK    3  A    between atoms: CBQ_25  and  NBO_42 
REMARK    4  A    between atoms: CBP_26  and  OAV_27 
REMARK    5  A    between atoms: CAY_34  and  CAZ_36 
ROOT
HETATM    1  CBQ   D T 501      -6.691  -0.232 -12.350  1.00 56.13     0.192 C 
HETATM    2  CBP   D T 501      -6.047   0.425 -11.089  1.00 58.89     0.181 C 
HETATM    3  CAC   D T 501      -5.775   0.065 -13.543  1.00 54.70     0.057 C 
HETATM    4  OAW   D T 501      -7.935   0.421 -12.668  1.00 56.41    -0.319 OA
HETATM    5  CBK   D T 501      -8.771   0.911 -11.593  1.00 58.59     0.208 C 
HETATM    6  CAT   D T 501      -8.008   1.732 -10.535  1.00 60.77     0.079 C 
HETATM    7  CBL   D T 501      -6.568   1.847 -11.000  1.00 62.40     0.120 C 
ENDROOT
BRANCH   7   8
HETATM    8  NBM   D T 501      -5.811   2.747 -10.100  1.00 69.47    -0.314 N 
HETATM    9  CAB   D T 501      -6.373   3.127  -8.785  1.00 69.73     0.129 C 
HETATM   10  CAY   D T 501      -4.631   3.292 -10.527  1.00 78.65     0.257 C 
HETATM   11  OAE   D T 501      -4.137   3.036 -11.625  1.00 84.78    -0.267 OA
BRANCH  10  12
HETATM   12  CAZ   D T 501      -3.958   4.205  -9.709  1.00 83.94     0.056 A 
HETATM   13  CAM   D T 501      -4.164   5.577  -9.853  1.00 85.65     0.005 A 
HETATM   14  CAG   D T 501      -3.500   6.472  -9.012  1.00 86.83     0.000 A 
HETATM   15  CAF   D T 501      -2.639   6.001  -8.017  1.00 87.55     0.000 A 
HETATM   16  CAH   D T 501      -2.439   4.629  -7.861  1.00 86.87     0.000 A 
HETATM   17  CAN   D T 501      -3.107   3.734  -8.700  1.00 86.77     0.005 A 
ENDBRANCH  10  12
ENDBRANCH   7   8
BRANCH   2  18
HETATM   18  OAV   D T 501      -6.447  -0.309  -9.913  1.00 58.49    -0.348 OA
HETATM   19  CAA   D T 501      -5.411  -0.507  -8.944  1.00 58.91     0.174 C 
ENDBRANCH   2  18
BRANCH   1  20
HETATM   20  NBO   D T 501      -7.002  -1.716 -12.114  1.00 52.97    -0.306 N 
HETATM   21  CBJ   D T 501      -6.068  -2.668 -11.907  1.00 52.84     0.078 A 
HETATM   22  CBI   D T 501      -4.726  -2.614 -11.830  1.00 54.34     0.078 A 
HETATM   23  CBG   D T 501      -6.674  -3.842 -11.755  1.00 49.70     0.020 A 
HETATM   24  CBH   D T 501      -3.993  -3.717 -11.606  1.00 53.24     0.023 A 
HETATM   25  NBN   D T 501      -3.898  -1.574 -11.952  1.00 56.00    -0.304 N 
HETATM   26  CBB   D T 501      -4.615  -4.904 -11.459  1.00 51.65     0.061 A 
HETATM   27  CBC   D T 501      -2.700  -3.335 -11.578  1.00 55.43     0.018 A 
HETATM   28  CAX   D T 501      -4.177  -6.163 -11.226  1.00 52.61     0.279 A 
HETATM   29  CBA   D T 501      -5.960  -4.948 -11.538  1.00 50.39     0.025 A 
HETATM   30  OAD   D T 501      -3.007  -6.504 -11.045  1.00 50.87    -0.265 OA
HETATM   31  NAU   D T 501      -5.174  -7.039 -11.151  1.00 51.23    -0.206 NA
HETATM   32  CAS   D T 501      -6.390  -6.275 -11.369  1.00 50.53     0.102 A 
HETATM   33  CAO   D T 501      -1.551  -4.015 -11.392  1.00 55.71     0.002 A 
HETATM   34  CBE   D T 501      -2.651  -2.002 -11.782  1.00 56.05     0.062 A 
HETATM   35  CAI   D T 501      -0.316  -3.368 -11.409  1.00 56.13     0.000 A 
HETATM   36  CAK   D T 501      -0.281  -1.994 -11.621  1.00 56.08     0.002 A 
HETATM   37  CAQ   D T 501      -1.487  -1.327 -11.808  1.00 55.62     0.017 A 
HETATM   38  CBD   D T 501      -7.985  -3.644 -11.885  1.00 49.53     0.017 A 
HETATM   39  CAP   D T 501      -9.011  -4.511 -11.819  1.00 47.22     0.002 A 
HETATM   40  CBF   D T 501      -8.193  -2.332 -12.110  1.00 49.98     0.062 A 
HETATM   41  CAJ   D T 501     -10.318  -4.084 -11.992  1.00 47.45     0.000 A 
HETATM   42  CAL   D T 501     -10.539  -2.736 -12.226  1.00 48.41     0.002 A 
HETATM   43  CAR   D T 501      -9.443  -1.876 -12.274  1.00 49.30     0.017 A 
ENDBRANCH   1  20
TORSDOF 5
ENDMDL
MODEL 6
REMARK VINA RESULT:    -9.343      2.525      7.799
REMARK INTER + INTRA:          -9.985
REMARK INTER:                 -11.546
REMARK INTRA:                   1.561
REMARK UNBOUND:                 1.543
REMARK  5 active torsions:
REMARK  status: ('A' for Active; 'I' for Inactive)
REMARK       I    between atoms: NBM_14  and  CAY_34 
REMARK    1  A    between atoms: NBM_14  and  CBL_43 
REMARK    2  A    between atoms: NBN_24  and  CBK_31 
REMARK    3  A    between atoms: CBQ_25  and  NBO_42 
REMARK    4  A    between atoms: CBP_26  and  OAV_27 
REMARK    5  A    between atoms: CAY_34  and  CAZ_36 
ROOT
HETATM    1  CBQ   D T 501      -3.776   0.108 -11.850  1.00 56.13     0.192 C 
HETATM    2  CBP   D T 501      -3.464  -1.242 -11.131  1.00 58.89     0.181 C 
HETATM    3  CAC   D T 501      -4.016  -0.203 -13.331  1.00 54.70     0.057 C 
HETATM    4  OAW   D T 501      -2.613   0.957 -11.835  1.00 56.41    -0.319 OA
HETATM    5  CBK   D T 501      -1.731   0.928 -10.687  1.00 58.59     0.208 C 
HETATM    6  CAT   D T 501      -1.343  -0.493 -10.234  1.00 60.77     0.079 C 
HETATM    7  CBL   D T 501      -1.966  -1.468 -11.216  1.00 62.40     0.120 C 
ENDROOT
BRANCH   7   8
HETATM    8  NBM   D T 501      -1.514  -2.847 -10.923  1.00 69.47    -0.314 N 
HETATM    9  CAB   D T 501      -0.479  -3.087  -9.893  1.00 69.73     0.129 C 
HETATM   10  CAY   D T 501      -1.996  -3.889 -11.668  1.00 78.65     0.257 C 
HETATM   11  OAE   D T 501      -2.832  -3.740 -12.559  1.00 84.78    -0.267 OA
BRANCH  10  12
HETATM   12  CAZ   D T 501      -1.507  -5.179 -11.445  1.00 83.94     0.056 A 
HETATM   13  CAM   D T 501      -2.378  -6.235 -11.176  1.00 85.65     0.005 A 
HETATM   14  CAG   D T 501      -1.872  -7.521 -10.977  1.00 86.83     0.000 A 
HETATM   15  CAF   D T 501      -0.497  -7.760 -11.060  1.00 87.55     0.000 A 
HETATM   16  CAH   D T 501       0.378  -6.710 -11.341  1.00 86.87     0.000 A 
HETATM   17  CAN   D T 501      -0.130  -5.425 -11.544  1.00 86.77     0.005 A 
ENDBRANCH  10  12
ENDBRANCH   7   8
BRANCH   2  18
HETATM   18  OAV   D T 501      -3.859  -1.145  -9.746  1.00 58.49    -0.348 OA
HETATM   19  CAA   D T 501      -4.516  -2.306  -9.223  1.00 58.91     0.174 C 
ENDBRANCH   2  18
BRANCH   1  20
HETATM   20  NBO   D T 501      -4.907   0.872 -11.147  1.00 52.97    -0.306 N 
HETATM   21  CBJ   D T 501      -6.187   0.448 -11.080  1.00 52.84     0.078 A 
HETATM   22  CBI   D T 501      -6.795  -0.661 -11.538  1.00 54.34     0.078 A 
HETATM   23  CBG   D T 501      -6.906   1.349 -10.419  1.00 49.70     0.020 A 
HETATM   24  CBH   D T 501      -8.107  -0.872 -11.341  1.00 53.24     0.023 A 
HETATM   25  NBN   D T 501      -6.300  -1.693 -12.224  1.00 56.00    -0.304 N 
HETATM   26  CBB   D T 501      -8.831   0.050 -10.674  1.00 51.65     0.061 A 
HETATM   27  CBC   D T 501      -8.408  -2.058 -11.906  1.00 55.43     0.018 A 
HETATM   28  CAX   D T 501     -10.133   0.133 -10.316  1.00 52.61     0.279 A 
HETATM   29  CBA   D T 501      -8.212   1.159 -10.220  1.00 50.39     0.025 A 
HETATM   30  OAD   D T 501     -10.997  -0.721 -10.517  1.00 50.87    -0.265 OA
HETATM   31  NAU   D T 501     -10.404   1.250  -9.649  1.00 51.23    -0.206 NA
HETATM   32  CAS   D T 501      -9.150   1.979  -9.571  1.00 50.53     0.102 A 
HETATM   33  CAO   D T 501      -9.557  -2.756 -12.008  1.00 55.71     0.002 A 
HETATM   34  CBE   D T 501      -7.279  -2.567 -12.441  1.00 56.05     0.062 A 
HETATM   35  CAI   D T 501      -9.600  -3.989 -12.657  1.00 56.13     0.000 A 
HETATM   36  CAK   D T 501      -8.428  -4.500 -13.205  1.00 56.08     0.002 A 
HETATM   37  CAQ   D T 501      -7.263  -3.752 -13.079  1.00 55.62     0.017 A 
HETATM   38  CBD   D T 501      -6.095   2.352 -10.083  1.00 49.53     0.017 A 
HETATM   39  CAP   D T 501      -6.345   3.492  -9.415  1.00 47.22     0.002 A 
HETATM   40  CBF   D T 501      -4.859   2.063 -10.534  1.00 49.98     0.062 A 
HETATM   41  CAJ   D T 501      -5.338   4.414  -9.177  1.00 47.45     0.000 A 
HETATM   42  CAL   D T 501      -4.064   4.124  -9.639  1.00 48.41     0.002 A 
HETATM   43  CAR   D T 501      -3.855   2.924 -10.317  1.00 49.30     0.017 A 
ENDBRANCH   1  20
TORSDOF 5
ENDMDL
MODEL 7
REMARK VINA RESULT:    -9.342      2.257      7.699
REMARK INTER + INTRA:          -9.984
REMARK INTER:                 -11.633
REMARK INTRA:                   1.649
REMARK UNBOUND:                 1.543
REMARK  5 active torsions:
REMARK  status: ('A' for Active; 'I' for Inactive)
REMARK       I    between atoms: NBM_14  and  CAY_34 
REMARK    1  A    between atoms: NBM_14  and  CBL_43 
REMARK    2  A    between atoms: NBN_24  and  CBK_31 
REMARK    3  A    between atoms: CBQ_25  and  NBO_42 
REMARK    4  A    between atoms: CBP_26  and  OAV_27 
REMARK    5  A    between atoms: CAY_34  and  CAZ_36 
ROOT
HETATM    1  CBQ   D T 501      -3.240   1.503 -12.149  1.00 56.13     0.192 C 
HETATM    2  CBP   D T 501      -2.644   0.520 -11.094  1.00 58.89     0.181 C 
HETATM    3  CAC   D T 501      -3.365   0.739 -13.472  1.00 54.70     0.057 C 
HETATM    4  OAW   D T 501      -2.304   2.563 -12.423  1.00 56.41    -0.319 OA
HETATM    5  CBK   D T 501      -1.468   3.062 -11.351  1.00 58.59     0.208 C 
HETATM    6  CAT   D T 501      -0.775   1.954 -10.534  1.00 60.77     0.079 C 
HETATM    7  CBL   D T 501      -1.133   0.625 -11.174  1.00 62.40     0.120 C 
ENDROOT
BRANCH   7   8
HETATM    8  NBM   D T 501      -0.383  -0.473 -10.525  1.00 69.47    -0.314 N 
HETATM    9  CAB   D T 501       0.076  -0.334  -9.125  1.00 69.73     0.129 C 
HETATM   10  CAY   D T 501      -0.043  -1.582 -11.252  1.00 78.65     0.257 C 
HETATM   11  OAE   D T 501      -0.370  -1.732 -12.429  1.00 84.78    -0.267 OA
BRANCH  10  12
HETATM   12  CAZ   D T 501       0.735  -2.581 -10.661  1.00 83.94     0.056 A 
HETATM   13  CAM   D T 501       1.846  -2.254  -9.884  1.00 85.65     0.005 A 
HETATM   14  CAG   D T 501       2.598  -3.266  -9.284  1.00 86.83     0.000 A 
HETATM   15  CAF   D T 501       2.236  -4.607  -9.446  1.00 87.55     0.000 A 
HETATM   16  CAH   D T 501       1.118  -4.939 -10.212  1.00 86.87     0.000 A 
HETATM   17  CAN   D T 501       0.364  -3.925 -10.808  1.00 86.77     0.005 A 
ENDBRANCH  10  12
ENDBRANCH   7   8
BRANCH   2  18
HETATM   18  OAV   D T 501      -3.084   0.912  -9.776  1.00 58.49    -0.348 OA
HETATM   19  CAA   D T 501      -3.591  -0.155  -8.966  1.00 58.91     0.174 C 
ENDBRANCH   2  18
BRANCH   1  20
HETATM   20  NBO   D T 501      -4.533   2.156 -11.643  1.00 52.97    -0.306 N 
HETATM   21  CBJ   D T 501      -5.702   1.503 -11.472  1.00 52.84     0.078 A 
HETATM   22  CBI   D T 501      -6.051   0.216 -11.652  1.00 54.34     0.078 A 
HETATM   23  CBG   D T 501      -6.619   2.363 -11.040  1.00 49.70     0.020 A 
HETATM   24  CBH   D T 501      -7.300  -0.211 -11.406  1.00 53.24     0.023 A 
HETATM   25  NBN   D T 501      -5.326  -0.821 -12.076  1.00 56.00    -0.304 N 
HETATM   26  CBB   D T 501      -8.226   0.669 -10.973  1.00 51.65     0.061 A 
HETATM   27  CBC   D T 501      -7.328  -1.533 -11.673  1.00 55.43     0.018 A 
HETATM   28  CAX   D T 501      -9.533   0.560 -10.640  1.00 52.61     0.279 A 
HETATM   29  CBA   D T 501      -7.866   1.956 -10.796  1.00 50.39     0.025 A 
HETATM   30  OAD   D T 501     -10.195  -0.479 -10.629  1.00 50.87    -0.265 OA
HETATM   31  NAU   D T 501     -10.055   1.720 -10.255  1.00 51.23    -0.206 NA
HETATM   32  CAS   D T 501      -8.980   2.691 -10.357  1.00 50.53     0.102 A 
HETATM   33  CAO   D T 501      -8.305  -2.458 -11.602  1.00 55.71     0.002 A 
HETATM   34  CBE   D T 501      -6.096  -1.905 -12.077  1.00 56.05     0.062 A 
HETATM   35  CAI   D T 501      -8.067  -3.790 -11.940  1.00 56.13     0.000 A 
HETATM   36  CAK   D T 501      -6.792  -4.159 -12.357  1.00 56.08     0.002 A 
HETATM   37  CAQ   D T 501      -5.810  -3.176 -12.416  1.00 55.62     0.017 A 
HETATM   38  CBD   D T 501      -6.045   3.563 -10.955  1.00 49.53     0.017 A 
HETATM   39  CAP   D T 501      -6.551   4.749 -10.574  1.00 47.22     0.002 A 
HETATM   40  CBF   D T 501      -4.756   3.440 -11.329  1.00 49.98     0.062 A 
HETATM   41  CAJ   D T 501      -5.765   5.890 -10.565  1.00 47.45     0.000 A 
HETATM   42  CAL   D T 501      -4.438   5.772 -10.951  1.00 48.41     0.002 A 
HETATM   43  CAR   D T 501      -3.959   4.519 -11.326  1.00 49.30     0.017 A 
ENDBRANCH   1  20
TORSDOF 5
ENDMDL
MODEL 8
REMARK VINA RESULT:    -9.194      2.167      7.668
REMARK INTER + INTRA:          -9.802
REMARK INTER:                 -11.242
REMARK INTRA:                   1.440
REMARK UNBOUND:                 1.543
REMARK  5 active torsions:
REMARK  status: ('A' for Active; 'I' for Inactive)
REMARK       I    between atoms: NBM_14  and  CAY_34 
REMARK    1  A    between atoms: NBM_14  and  CBL_43 
REMARK    2  A    between atoms: NBN_24  and  CBK_31 
REMARK    3  A    between atoms: CBQ_25  and  NBO_42 
REMARK    4  A    between atoms: CBP_26  and  OAV_27 
REMARK    5  A    between atoms: CAY_34  and  CAZ_36 
ROOT
HETATM    1  CBQ   D T 501      -1.925   0.971 -11.428  1.00 56.13     0.192 C 
HETATM    2  CBP   D T 501      -2.036  -0.472 -10.842  1.00 58.89     0.181 C 
HETATM    3  CAC   D T 501      -1.891   0.847 -12.955  1.00 54.70     0.057 C 
HETATM    4  OAW   D T 501      -0.655   1.552 -11.076  1.00 56.41    -0.319 OA
HETATM    5  CBK   D T 501      -0.065   1.238  -9.792  1.00 58.59     0.208 C 
HETATM    6  CAT   D T 501      -0.058  -0.267  -9.460  1.00 60.77     0.079 C 
HETATM    7  CBL   D T 501      -0.625  -1.000 -10.661  1.00 62.40     0.120 C 
ENDROOT
BRANCH   7   8
HETATM    8  NBM   D T 501      -0.514  -2.463 -10.466  1.00 69.47    -0.314 N 
HETATM    9  CAB   D T 501      -0.395  -3.025  -9.102  1.00 69.73     0.129 C 
HETATM   10  CAY   D T 501      -0.436  -3.287 -11.557  1.00 78.65     0.257 C 
HETATM   11  OAE   D T 501      -0.495  -2.868 -12.713  1.00 84.78    -0.267 OA
BRANCH  10  12
HETATM   12  CAZ   D T 501      -0.249  -4.659 -11.371  1.00 83.94     0.056 A 
HETATM   13  CAM   D T 501       1.013  -5.173 -11.074  1.00 85.65     0.005 A 
HETATM   14  CAG   D T 501       1.176  -6.545 -10.871  1.00 86.83     0.000 A 
HETATM   15  CAF   D T 501       0.078  -7.406 -10.951  1.00 87.55     0.000 A 
HETATM   16  CAH   D T 501      -1.190  -6.896 -11.235  1.00 86.87     0.000 A 
HETATM   17  CAN   D T 501      -1.352  -5.523 -11.434  1.00 86.77     0.005 A 
ENDBRANCH  10  12
ENDBRANCH   7   8
BRANCH   2  18
HETATM   18  OAV   D T 501      -2.697  -0.415  -9.560  1.00 58.49    -0.348 OA
HETATM   19  CAA   D T 501      -3.522  -1.546  -9.256  1.00 58.91     0.174 C 
ENDBRANCH   2  18
BRANCH   1  20
HETATM   20  NBO   D T 501      -3.018   1.891 -10.867  1.00 52.97    -0.306 N 
HETATM   21  CBJ   D T 501      -4.343   1.653 -10.969  1.00 52.84     0.078 A 
HETATM   22  CBI   D T 501      -5.037   0.637 -11.514  1.00 54.34     0.078 A 
HETATM   23  CBG   D T 501      -5.007   2.651 -10.395  1.00 49.70     0.020 A 
HETATM   24  CBH   D T 501      -6.380   0.616 -11.489  1.00 53.24     0.023 A 
HETATM   25  NBN   D T 501      -4.609  -0.459 -12.142  1.00 56.00    -0.304 N 
HETATM   26  CBB   D T 501      -7.046   1.635 -10.909  1.00 51.65     0.061 A 
HETATM   27  CBC   D T 501      -6.770  -0.521 -12.101  1.00 55.43     0.018 A 
HETATM   28  CAX   D T 501      -8.359   1.903 -10.720  1.00 52.61     0.279 A 
HETATM   29  CBA   D T 501      -6.341   2.648 -10.367  1.00 50.39     0.025 A 
HETATM   30  OAD   D T 501      -9.302   1.178 -11.040  1.00 50.87    -0.265 OA
HETATM   31  NAU   D T 501      -8.553   3.052 -10.080  1.00 51.23    -0.206 NA
HETATM   32  CAS   D T 501      -7.229   3.597  -9.834  1.00 50.53     0.102 A 
HETATM   33  CAO   D T 501      -7.984  -1.050 -12.357  1.00 55.71     0.002 A 
HETATM   34  CBE   D T 501      -5.665  -1.187 -12.493  1.00 56.05     0.062 A 
HETATM   35  CAI   D T 501      -8.116  -2.269 -13.020  1.00 56.13     0.000 A 
HETATM   36  CAK   D T 501      -6.967  -2.944 -13.420  1.00 56.08     0.002 A 
HETATM   37  CAQ   D T 501      -5.734  -2.367 -13.137  1.00 55.62     0.017 A 
HETATM   38  CBD   D T 501      -4.112   3.532  -9.947  1.00 49.53     0.017 A 
HETATM   39  CAP   D T 501      -4.283   4.700  -9.303  1.00 47.22     0.002 A 
HETATM   40  CBF   D T 501      -2.882   3.068 -10.239  1.00 49.98     0.062 A 
HETATM   41  CAJ   D T 501      -3.195   5.472  -8.928  1.00 47.45     0.000 A 
HETATM   42  CAL   D T 501      -1.926   5.002  -9.227  1.00 48.41     0.002 A 
HETATM   43  CAR   D T 501      -1.802   3.781  -9.885  1.00 49.30     0.017 A 
ENDBRANCH   1  20
TORSDOF 5
ENDMDL
MODEL 9
REMARK VINA RESULT:    -9.099      2.782      5.281
REMARK INTER + INTRA:          -9.685
REMARK INTER:                 -10.642
REMARK INTRA:                   0.958
REMARK UNBOUND:                 1.543
REMARK  5 active torsions:
REMARK  status: ('A' for Active; 'I' for Inactive)
REMARK       I    between atoms: NBM_14  and  CAY_34 
REMARK    1  A    between atoms: NBM_14  and  CBL_43 
REMARK    2  A    between atoms: NBN_24  and  CBK_31 
REMARK    3  A    between atoms: CBQ_25  and  NBO_42 
REMARK    4  A    between atoms: CBP_26  and  OAV_27 
REMARK    5  A    between atoms: CAY_34  and  CAZ_36 
ROOT
HETATM    1  CBQ   D T 501      -5.178  -0.154 -10.193  1.00 56.13     0.192 C 
HETATM    2  CBP   D T 501      -5.889  -0.584 -11.514  1.00 58.89     0.181 C 
HETATM    3  CAC   D T 501      -5.799  -0.966  -9.050  1.00 54.70     0.057 C 
HETATM    4  OAW   D T 501      -5.492   1.217  -9.884  1.00 56.41    -0.319 OA
HETATM    5  CBK   D T 501      -5.656   2.165 -10.966  1.00 58.59     0.208 C 
HETATM    6  CAT   D T 501      -6.572   1.664 -12.100  1.00 60.77     0.079 C 
HETATM    7  CBL   D T 501      -7.106   0.306 -11.686  1.00 62.40     0.120 C 
ENDROOT
BRANCH   7   8
HETATM    8  NBM   D T 501      -8.108  -0.170 -12.667  1.00 69.47    -0.314 N 
HETATM    9  CAB   D T 501      -8.198   0.462 -14.003  1.00 69.73     0.129 C 
HETATM   10  CAY   D T 501      -9.005  -1.136 -12.303  1.00 78.65     0.257 C 
HETATM   11  OAE   D T 501      -8.996  -1.670 -11.193  1.00 84.78    -0.267 OA
BRANCH  10  12
HETATM   12  CAZ   D T 501     -10.002  -1.526 -13.202  1.00 83.94     0.056 A 
HETATM   13  CAM   D T 501      -9.783  -2.572 -14.098  1.00 85.65     0.005 A 
HETATM   14  CAG   D T 501     -10.799  -2.961 -14.974  1.00 86.83     0.000 A 
HETATM   15  CAF   D T 501     -12.039  -2.316 -14.949  1.00 87.55     0.000 A 
HETATM   16  CAH   D T 501     -12.267  -1.278 -14.046  1.00 86.87     0.000 A 
HETATM   17  CAN   D T 501     -11.252  -0.892 -13.168  1.00 86.77     0.005 A 
ENDBRANCH  10  12
ENDBRANCH   7   8
BRANCH   2  18
HETATM   18  OAV   D T 501      -4.989  -0.388 -12.625  1.00 58.49    -0.348 OA
HETATM   19  CAA   D T 501      -5.035  -1.410 -13.627  1.00 58.91     0.174 C 
ENDBRANCH   2  18
BRANCH   1  20
HETATM   20  NBO   D T 501      -3.652  -0.256 -10.317  1.00 52.97    -0.306 N 
HETATM   21  CBJ   D T 501      -2.978  -1.407 -10.523  1.00 52.84     0.078 A 
HETATM   22  CBI   D T 501      -3.391  -2.677 -10.688  1.00 54.34     0.078 A 
HETATM   23  CBG   D T 501      -1.675  -1.145 -10.564  1.00 49.70     0.020 A 
HETATM   24  CBH   D T 501      -2.516  -3.677 -10.889  1.00 53.24     0.023 A 
HETATM   25  NBN   D T 501      -4.623  -3.189 -10.682  1.00 56.00    -0.304 N 
HETATM   26  CBB   D T 501      -1.196  -3.403 -10.923  1.00 51.65     0.061 A 
HETATM   27  CBC   D T 501      -3.233  -4.811 -11.022  1.00 55.43     0.018 A 
HETATM   28  CAX   D T 501      -0.091  -4.161 -11.106  1.00 52.61     0.279 A 
HETATM   29  CBA   D T 501      -0.793  -2.127 -10.757  1.00 50.39     0.025 A 
HETATM   30  OAD   D T 501      -0.070  -5.371 -11.338  1.00 50.87    -0.265 OA
HETATM   31  NAU   D T 501       1.027  -3.443 -11.063  1.00 51.23    -0.206 NA
HETATM   32  CAS   D T 501       0.610  -2.074 -10.816  1.00 50.53     0.102 A 
HETATM   33  CAO   D T 501      -2.881  -6.094 -11.238  1.00 55.71     0.002 A 
HETATM   34  CBE   D T 501      -4.540  -4.498 -10.904  1.00 56.05     0.062 A 
HETATM   35  CAI   D T 501      -3.840  -7.101 -11.339  1.00 56.13     0.000 A 
HETATM   36  CAK   D T 501      -5.183  -6.763 -11.214  1.00 56.08     0.002 A 
HETATM   37  CAQ   D T 501      -5.508  -5.429 -10.993  1.00 55.62     0.017 A 
HETATM   38  CBD   D T 501      -1.517   0.163 -10.364  1.00 49.53     0.017 A 
HETATM   39  CAP   D T 501      -0.400   0.911 -10.311  1.00 47.22     0.002 A 
HETATM   40  CBF   D T 501      -2.735   0.716 -10.208  1.00 49.98     0.062 A 
HETATM   41  CAJ   D T 501      -0.465   2.276 -10.084  1.00 47.45     0.000 A 
HETATM   42  CAL   D T 501      -1.716   2.851  -9.920  1.00 48.41     0.002 A 
HETATM   43  CAR   D T 501      -2.843   2.036  -9.994  1.00 49.30     0.017 A 
ENDBRANCH   1  20
TORSDOF 5
ENDMDL
