MODEL 1
REMARK VINA RESULT:    -9.982      0.000      0.000
REMARK INTER + INTRA:         -10.821
REMARK INTER:                 -12.316
REMARK INTRA:                   1.496
REMARK UNBOUND:                 1.496
REMARK  5 active torsions:
REMARK  status: ('A' for Active; 'I' for Inactive)
REMARK       I    between atoms: NBM_14  and  CAY_34 
REMARK    1  A    between atoms: NBM_14  and  CBL_43 
REMARK    2  A    between atoms: NBN_24  and  CBK_31 
REMARK    3  A    between atoms: CBQ_25  and  NBO_42 
REMARK    4  A    between atoms: CBP_26  and  OAV_27 
REMARK    5  A    between atoms: CAY_34  and  CAZ_36 
ROOT
HETATM    1  CBQ   D T 501      11.540   4.690  -5.786  1.00 56.13     0.192 C 
HETATM    2  CBP   D T 501      10.323   4.619  -4.810  1.00 58.89     0.181 C 
HETATM    3  CAC   D T 501      12.584   3.682  -5.295  1.00 54.70     0.057 C 
HETATM    4  OAW   D T 501      12.186   5.972  -5.681  1.00 56.41    -0.319 OA
HETATM    5  CBK   D T 501      11.383   7.150  -5.430  1.00 58.59     0.208 C 
HETATM    6  CAT   D T 501      10.371   6.982  -4.278  1.00 60.77     0.079 C 
HETATM    7  CBL   D T 501      10.585   5.603  -3.684  1.00 62.40     0.120 C 
ENDROOT
BRANCH   7   8
HETATM    8  NBM   D T 501       9.742   5.429  -2.480  1.00 69.47    -0.314 N 
HETATM    9  CAB   D T 501       8.380   6.007  -2.436  1.00 69.73     0.129 C 
HETATM   10  CAY   D T 501      10.260   4.806  -1.377  1.00 78.65     0.257 C 
HETATM   11  OAE   D T 501      11.398   4.338  -1.348  1.00 84.78    -0.267 OA
BRANCH  10  12
HETATM   12  CAZ   D T 501       9.491   4.716  -0.213  1.00 83.94     0.056 A 
HETATM   13  CAM   D T 501       8.839   3.528   0.120  1.00 85.65     0.005 A 
HETATM   14  CAG   D T 501       8.094   3.451   1.298  1.00 86.83     0.000 A 
HETATM   15  CAF   D T 501       8.009   4.552   2.155  1.00 87.55     0.000 A 
HETATM   16  CAH   D T 501       8.670   5.738   1.833  1.00 86.87     0.000 A 
HETATM   17  CAN   D T 501       9.417   5.813   0.656  1.00 86.77     0.005 A 
ENDBRANCH  10  12
ENDBRANCH   7   8
BRANCH   2  18
HETATM   18  OAV   D T 501       9.124   5.004  -5.515  1.00 58.49    -0.348 OA
HETATM   19  CAA   D T 501       8.089   4.013  -5.532  1.00 58.91     0.174 C 
ENDBRANCH   2  18
BRANCH   1  20
HETATM   20  NBO   D T 501      11.099   4.520  -7.246  1.00 52.97    -0.306 N 
HETATM   21  CBJ   D T 501      10.892   3.330  -7.848  1.00 52.84     0.078 A 
HETATM   22  CBI   D T 501      10.976   2.065  -7.398  1.00 54.34     0.078 A 
HETATM   23  CBG   D T 501      10.537   3.541  -9.112  1.00 49.70     0.020 A 
HETATM   24  CBH   D T 501      10.710   1.019  -8.198  1.00 53.24     0.023 A 
HETATM   25  NBN   D T 501      11.310   1.600  -6.192  1.00 56.00    -0.304 N 
HETATM   26  CBB   D T 501      10.357   1.241  -9.480  1.00 51.65     0.061 A 
HETATM   27  CBC   D T 501      10.875  -0.098  -7.459  1.00 55.43     0.018 A 
HETATM   28  CAX   D T 501      10.030   0.428 -10.512  1.00 52.61     0.279 A 
HETATM   29  CBA   D T 501      10.276   2.512  -9.922  1.00 50.39     0.025 A 
HETATM   30  OAD   D T 501       9.946  -0.800 -10.471  1.00 50.87    -0.265 OA
HETATM   31  NAU   D T 501       9.741   1.106 -11.617  1.00 51.23    -0.206 NA
HETATM   32  CAS   D T 501       9.906   2.509 -11.277  1.00 50.53     0.102 A 
HETATM   33  CAO   D T 501      10.743  -1.408  -7.744  1.00 55.71     0.002 A 
HETATM   34  CBE   D T 501      11.236   0.274  -6.214  1.00 56.05     0.062 A 
HETATM   35  CAI   D T 501      10.975  -2.387  -6.778  1.00 56.13     0.000 A 
HETATM   36  CAK   D T 501      11.348  -1.989  -5.498  1.00 56.08     0.002 A 
HETATM   37  CAQ   D T 501      11.473  -0.627  -5.242  1.00 55.62     0.017 A 
HETATM   38  CBD   D T 501      10.537   4.856  -9.323  1.00 49.53     0.017 A 
HETATM   39  CAP   D T 501      10.256   5.565 -10.430  1.00 47.22     0.002 A 
HETATM   40  CBF   D T 501      10.887   5.466  -8.173  1.00 49.98     0.062 A 
HETATM   41  CAJ   D T 501      10.326   6.948 -10.428  1.00 47.45     0.000 A 
HETATM   42  CAL   D T 501      10.687   7.583  -9.249  1.00 48.41     0.002 A 
HETATM   43  CAR   D T 501      10.959   6.805  -8.126  1.00 49.30     0.017 A 
ENDBRANCH   1  20
TORSDOF 5
ENDMDL
MODEL 2
REMARK VINA RESULT:    -8.995      3.244      6.242
REMARK INTER + INTRA:          -9.603
REMARK INTER:                 -11.224
REMARK INTRA:                   1.621
REMARK UNBOUND:                 1.496
REMARK  5 active torsions:
REMARK  status: ('A' for Active; 'I' for Inactive)
REMARK       I    between atoms: NBM_14  and  CAY_34 
REMARK    1  A    between atoms: NBM_14  and  CBL_43 
REMARK    2  A    between atoms: NBN_24  and  CBK_31 
REMARK    3  A    between atoms: CBQ_25  and  NBO_42 
REMARK    4  A    between atoms: CBP_26  and  OAV_27 
REMARK    5  A    between atoms: CAY_34  and  CAZ_36 
ROOT
HETATM    1  CBQ   D T 501      10.643   4.960   0.257  1.00 56.13     0.192 C 
HETATM    2  CBP   D T 501       9.987   3.620   0.717  1.00 58.89     0.181 C 
HETATM    3  CAC   D T 501      12.153   4.722   0.153  1.00 54.70     0.057 C 
HETATM    4  OAW   D T 501      10.497   5.960   1.283  1.00 56.41    -0.319 OA
HETATM    5  CBK   D T 501       9.295   5.976   2.090  1.00 58.59     0.208 C 
HETATM    6  CAT   D T 501       8.904   4.594   2.653  1.00 60.77     0.079 C 
HETATM    7  CBL   D T 501       9.982   3.612   2.235  1.00 62.40     0.120 C 
ENDROOT
BRANCH   7   8
HETATM    8  NBM   D T 501       9.743   2.294   2.864  1.00 69.47    -0.314 N 
HETATM    9  CAB   D T 501       8.842   2.179   4.031  1.00 69.73     0.129 C 
HETATM   10  CAY   D T 501      10.425   1.196   2.412  1.00 78.65     0.257 C 
HETATM   11  OAE   D T 501      11.212   1.243   1.467  1.00 84.78    -0.267 OA
BRANCH  10  12
HETATM   12  CAZ   D T 501      10.260  -0.032   3.059  1.00 83.94     0.056 A 
HETATM   13  CAM   D T 501      10.722  -0.219   4.363  1.00 85.65     0.005 A 
HETATM   14  CAG   D T 501      10.528  -1.445   5.000  1.00 86.83     0.000 A 
HETATM   15  CAF   D T 501       9.861  -2.485   4.345  1.00 87.55     0.000 A 
HETATM   16  CAH   D T 501       9.385  -2.299   3.046  1.00 86.87     0.000 A 
HETATM   17  CAN   D T 501       9.577  -1.071   2.412  1.00 86.77     0.005 A 
ENDBRANCH  10  12
ENDBRANCH   7   8
BRANCH   2  18
HETATM   18  OAV   D T 501       8.629   3.563   0.233  1.00 58.49    -0.348 OA
HETATM   19  CAA   D T 501       8.233   2.296  -0.307  1.00 58.91     0.174 C 
ENDBRANCH   2  18
BRANCH   1  20
HETATM   20  NBO   D T 501       9.974   5.507  -1.011  1.00 52.97    -0.306 N 
HETATM   21  CBJ   D T 501       9.970   4.877  -2.204  1.00 52.84     0.078 A 
HETATM   22  CBI   D T 501      10.475   3.695  -2.602  1.00 54.34     0.078 A 
HETATM   23  CBG   D T 501       9.321   5.629  -3.088  1.00 49.70     0.020 A 
HETATM   24  CBH   D T 501      10.338   3.265  -3.868  1.00 53.24     0.023 A 
HETATM   25  NBN   D T 501      11.160   2.776  -1.916  1.00 56.00    -0.304 N 
HETATM   26  CBB   D T 501       9.684   4.037  -4.759  1.00 51.65     0.061 A 
HETATM   27  CBC   D T 501      10.939   2.060  -3.946  1.00 55.43     0.018 A 
HETATM   28  CAX   D T 501       9.380   3.894  -6.070  1.00 52.61     0.279 A 
HETATM   29  CBA   D T 501       9.182   5.219  -4.351  1.00 50.39     0.025 A 
HETATM   30  OAD   D T 501       9.634   2.915  -6.772  1.00 50.87    -0.265 OA
HETATM   31  NAU   D T 501       8.703   4.932  -6.548  1.00 51.23    -0.206 NA
HETATM   32  CAS   D T 501       8.557   5.856  -5.436  1.00 50.53     0.102 A 
HETATM   33  CAO   D T 501      11.103   1.186  -4.958  1.00 55.71     0.002 A 
HETATM   34  CBE   D T 501      11.436   1.761  -2.728  1.00 56.05     0.062 A 
HETATM   35  CAI   D T 501      11.778  -0.020  -4.771  1.00 56.13     0.000 A 
HETATM   36  CAK   D T 501      12.286  -0.315  -3.510  1.00 56.08     0.002 A 
HETATM   37  CAQ   D T 501      12.096   0.612  -2.491  1.00 55.62     0.017 A 
HETATM   38  CBD   D T 501       8.930   6.742  -2.469  1.00 49.53     0.017 A 
HETATM   39  CAP   D T 501       8.252   7.807  -2.929  1.00 47.22     0.002 A 
HETATM   40  CBF   D T 501       9.335   6.672  -1.185  1.00 49.98     0.062 A 
HETATM   41  CAJ   D T 501       7.953   8.875  -2.100  1.00 47.45     0.000 A 
HETATM   42  CAL   D T 501       8.366   8.812  -0.778  1.00 48.41     0.002 A 
HETATM   43  CAR   D T 501       9.058   7.682  -0.346  1.00 49.30     0.017 A 
ENDBRANCH   1  20
TORSDOF 5
ENDMDL
MODEL 3
REMARK VINA RESULT:    -8.832      2.909      6.512
REMARK INTER + INTRA:          -9.401
REMARK INTER:                 -11.748
REMARK INTRA:                   2.347
REMARK UNBOUND:                 1.496
REMARK  5 active torsions:
REMARK  status: ('A' for Active; 'I' for Inactive)
REMARK       I    between atoms: NBM_14  and  CAY_34 
REMARK    1  A    between atoms: NBM_14  and  CBL_43 
REMARK    2  A    between atoms: NBN_24  and  CBK_31 
REMARK    3  A    between atoms: CBQ_25  and  NBO_42 
REMARK    4  A    between atoms: CBP_26  and  OAV_27 
REMARK    5  A    between atoms: CAY_34  and  CAZ_36 
ROOT
HETATM    1  CBQ   D T 501       8.937   5.487  -3.688  1.00 56.13     0.192 C 
HETATM    2  CBP   D T 501      10.155   6.438  -3.915  1.00 58.89     0.181 C 
HETATM    3  CAC   D T 501       8.034   5.594  -4.922  1.00 54.70     0.057 C 
HETATM    4  OAW   D T 501       8.130   5.968  -2.597  1.00 56.41    -0.319 OA
HETATM    5  CBK   D T 501       8.774   6.609  -1.470  1.00 58.59     0.208 C 
HETATM    6  CAT   D T 501       9.801   7.688  -1.870  1.00 60.77     0.079 C 
HETATM    7  CBL   D T 501       9.770   7.806  -3.382  1.00 62.40     0.120 C 
ENDROOT
BRANCH   7   8
HETATM    8  NBM   D T 501      10.631   8.926  -3.824  1.00 69.47    -0.314 N 
HETATM    9  CAB   D T 501      11.845   8.658  -4.626  1.00 69.73     0.129 C 
HETATM   10  CAY   D T 501      10.344  10.201  -3.417  1.00 78.65     0.257 C 
HETATM   11  OAE   D T 501       9.366  10.474  -2.722  1.00 84.78    -0.267 OA
BRANCH  10  12
HETATM   12  CAZ   D T 501      11.203  11.246  -3.768  1.00 83.94     0.056 A 
HETATM   13  CAM   D T 501      10.982  11.993  -4.926  1.00 85.65     0.005 A 
HETATM   14  CAG   D T 501      11.839  13.046  -5.247  1.00 86.83     0.000 A 
HETATM   15  CAF   D T 501      12.911  13.368  -4.409  1.00 87.55     0.000 A 
HETATM   16  CAH   D T 501      13.128  12.632  -3.243  1.00 86.87     0.000 A 
HETATM   17  CAN   D T 501      12.268  11.582  -2.921  1.00 86.77     0.005 A 
ENDBRANCH  10  12
ENDBRANCH   7   8
BRANCH   2  18
HETATM   18  OAV   D T 501      11.291   5.939  -3.180  1.00 58.49    -0.348 OA
HETATM   19  CAA   D T 501      12.324   5.358  -3.986  1.00 58.91     0.174 C 
ENDBRANCH   2  18
BRANCH   1  20
HETATM   20  NBO   D T 501       9.392   4.067  -3.328  1.00 52.97    -0.306 N 
HETATM   21  CBJ   D T 501       9.878   3.173  -4.214  1.00 52.84     0.078 A 
HETATM   22  CBI   D T 501      10.108   3.249  -5.537  1.00 54.34     0.078 A 
HETATM   23  CBG   D T 501      10.160   2.041  -3.576  1.00 49.70     0.020 A 
HETATM   24  CBH   D T 501      10.614   2.208  -6.221  1.00 53.24     0.023 A 
HETATM   25  NBN   D T 501       9.908   4.256  -6.391  1.00 56.00    -0.304 N 
HETATM   26  CBB   D T 501      10.891   1.061  -5.567  1.00 51.65     0.061 A 
HETATM   27  CBC   D T 501      10.733   2.596  -7.507  1.00 55.43     0.018 A 
HETATM   28  CAX   D T 501      11.397  -0.133  -5.953  1.00 52.61     0.279 A 
HETATM   29  CBA   D T 501      10.656   0.995  -4.241  1.00 50.39     0.025 A 
HETATM   30  OAD   D T 501      11.777  -0.429  -7.086  1.00 50.87    -0.265 OA
HETATM   31  NAU   D T 501      11.502  -0.988  -4.941  1.00 51.23    -0.206 NA
HETATM   32  CAS   D T 501      11.003  -0.283  -3.772  1.00 50.53     0.102 A 
HETATM   33  CAO   D T 501      11.177   1.968  -8.613  1.00 55.71     0.002 A 
HETATM   34  CBE   D T 501      10.303   3.872  -7.600  1.00 56.05     0.062 A 
HETATM   35  CAI   D T 501      11.198   2.609  -9.851  1.00 56.13     0.000 A 
HETATM   36  CAK   D T 501      10.751   3.924  -9.933  1.00 56.08     0.002 A 
HETATM   37  CAQ   D T 501      10.301   4.539  -8.769  1.00 55.62     0.017 A 
HETATM   38  CBD   D T 501       9.837   2.204  -2.294  1.00 49.53     0.017 A 
HETATM   39  CAP   D T 501       9.927   1.356  -1.254  1.00 47.22     0.002 A 
HETATM   40  CBF   D T 501       9.359   3.454  -2.136  1.00 49.98     0.062 A 
HETATM   41  CAJ   D T 501       9.523   1.736   0.014  1.00 47.45     0.000 A 
HETATM   42  CAL   D T 501       9.029   3.021   0.184  1.00 48.41     0.002 A 
HETATM   43  CAR   D T 501       8.964   3.866  -0.922  1.00 49.30     0.017 A 
ENDBRANCH   1  20
TORSDOF 5
ENDMDL
MODEL 4
REMARK VINA RESULT:    -8.682      3.398      9.753
REMARK INTER + INTRA:          -9.216
REMARK INTER:                 -10.546
REMARK INTRA:                   1.330
REMARK UNBOUND:                 1.496
REMARK  5 active torsions:
REMARK  status: ('A' for Active; 'I' for Inactive)
REMARK       I    between atoms: NBM_14  and  CAY_34 
REMARK    1  A    between atoms: NBM_14  and  CBL_43 
REMARK    2  A    between atoms: NBN_24  and  CBK_31 
REMARK    3  A    between atoms: CBQ_25  and  NBO_42 
REMARK    4  A    between atoms: CBP_26  and  OAV_27 
REMARK    5  A    between atoms: CAY_34  and  CAZ_36 
ROOT
HETATM    1  CBQ   D T 501      11.150   6.474  -2.477  1.00 56.13     0.192 C 
HETATM    2  CBP   D T 501      10.421   5.999  -3.774  1.00 58.89     0.181 C 
HETATM    3  CAC   D T 501      12.555   6.936  -2.881  1.00 54.70     0.057 C 
HETATM    4  OAW   D T 501      11.369   5.358  -1.594  1.00 56.41    -0.319 OA
HETATM    5  CBK   D T 501      10.379   4.303  -1.529  1.00 58.59     0.208 C 
HETATM    6  CAT   D T 501       9.922   3.791  -2.911  1.00 60.77     0.079 C 
HETATM    7  CBL   D T 501      10.736   4.526  -3.959  1.00 62.40     0.120 C 
ENDROOT
BRANCH   7   8
HETATM    8  NBM   D T 501      10.449   3.979  -5.304  1.00 69.47    -0.314 N 
HETATM    9  CAB   D T 501       9.050   3.743  -5.728  1.00 69.73     0.129 C 
HETATM   10  CAY   D T 501      11.484   3.614  -6.121  1.00 78.65     0.257 C 
HETATM   11  OAE   D T 501      12.665   3.757  -5.804  1.00 84.78    -0.267 OA
BRANCH  10  12
HETATM   12  CAZ   D T 501      11.211   3.022  -7.357  1.00 83.94     0.056 A 
HETATM   13  CAM   D T 501      11.275   3.768  -8.535  1.00 85.65     0.005 A 
HETATM   14  CAG   D T 501      11.019   3.154  -9.762  1.00 86.83     0.000 A 
HETATM   15  CAF   D T 501      10.714   1.791  -9.820  1.00 87.55     0.000 A 
HETATM   16  CAH   D T 501      10.662   1.037  -8.647  1.00 86.87     0.000 A 
HETATM   17  CAN   D T 501      10.921   1.652  -7.421  1.00 86.77     0.005 A 
ENDBRANCH  10  12
ENDBRANCH   7   8
BRANCH   2  18
HETATM   18  OAV   D T 501       8.998   6.169  -3.609  1.00 58.49    -0.348 OA
HETATM   19  CAA   D T 501       8.344   6.858  -4.682  1.00 58.91     0.174 C 
ENDBRANCH   2  18
BRANCH   1  20
HETATM   20  NBO   D T 501      10.315   7.506  -1.708  1.00 52.97    -0.306 N 
HETATM   21  CBJ   D T 501      10.124   8.782  -2.105  1.00 52.84     0.078 A 
HETATM   22  CBI   D T 501      10.542   9.462  -3.187  1.00 54.34     0.078 A 
HETATM   23  CBG   D T 501       9.368   9.405  -1.206  1.00 49.70     0.020 A 
HETATM   24  CBH   D T 501      10.213  10.751  -3.374  1.00 53.24     0.023 A 
HETATM   25  NBN   D T 501      11.301   9.067  -4.213  1.00 56.00    -0.304 N 
HETATM   26  CBB   D T 501       9.451  11.378  -2.455  1.00 51.65     0.061 A 
HETATM   27  CBC   D T 501      10.772  11.140  -4.539  1.00 55.43     0.018 A 
HETATM   28  CAX   D T 501       8.956  12.634  -2.353  1.00 52.61     0.279 A 
HETATM   29  CBA   D T 501       9.038  10.688  -1.373  1.00 50.39     0.025 A 
HETATM   30  OAD   D T 501       9.086  13.535  -3.182  1.00 50.87    -0.265 OA
HETATM   31  NAU   D T 501       8.237  12.805  -1.249  1.00 51.23    -0.206 NA
HETATM   32  CAS   D T 501       8.274  11.532  -0.550  1.00 50.53     0.102 A 
HETATM   33  CAO   D T 501      10.770  12.309  -5.207  1.00 55.71     0.002 A 
HETATM   34  CBE   D T 501      11.435  10.085  -5.057  1.00 56.05     0.062 A 
HETATM   35  CAI   D T 501      11.440  12.451  -6.422  1.00 56.13     0.000 A 
HETATM   36  CAK   D T 501      12.121  11.356  -6.943  1.00 56.08     0.002 A 
HETATM   37  CAQ   D T 501      12.100  10.165  -6.224  1.00 55.62     0.017 A 
HETATM   38  CBD   D T 501       9.094   8.540  -0.231  1.00 49.53     0.017 A 
HETATM   39  CAP   D T 501       8.377   8.689   0.896  1.00 47.22     0.002 A 
HETATM   40  CBF   D T 501       9.680   7.365  -0.536  1.00 49.98     0.062 A 
HETATM   41  CAJ   D T 501       8.224   7.641   1.789  1.00 47.45     0.000 A 
HETATM   42  CAL   D T 501       8.825   6.429   1.482  1.00 48.41     0.002 A 
HETATM   43  CAR   D T 501       9.550   6.322   0.298  1.00 49.30     0.017 A 
ENDBRANCH   1  20
TORSDOF 5
ENDMDL
MODEL 5
REMARK VINA RESULT:    -8.664      2.387      9.324
REMARK INTER + INTRA:          -9.194
REMARK INTER:                 -12.345
REMARK INTRA:                   3.151
REMARK UNBOUND:                 1.496
REMARK  5 active torsions:
REMARK  status: ('A' for Active; 'I' for Inactive)
REMARK       I    between atoms: NBM_14  and  CAY_34 
REMARK    1  A    between atoms: NBM_14  and  CBL_43 
REMARK    2  A    between atoms: NBN_24  and  CBK_31 
REMARK    3  A    between atoms: CBQ_25  and  NBO_42 
REMARK    4  A    between atoms: CBP_26  and  OAV_27 
REMARK    5  A    between atoms: CAY_34  and  CAZ_36 
ROOT
HETATM    1  CBQ   D T 501      11.757   3.102  -3.579  1.00 56.13     0.192 C 
HETATM    2  CBP   D T 501      10.844   2.868  -4.823  1.00 58.89     0.181 C 
HETATM    3  CAC   D T 501      12.897   4.030  -4.012  1.00 54.70     0.057 C 
HETATM    4  OAW   D T 501      12.405   1.873  -3.201  1.00 56.41    -0.319 OA
HETATM    5  CBK   D T 501      11.695   0.622  -3.359  1.00 58.59     0.208 C 
HETATM    6  CAT   D T 501      11.026   0.454  -4.739  1.00 60.77     0.079 C 
HETATM    7  CBL   D T 501      11.393   1.667  -5.572  1.00 62.40     0.120 C 
ENDROOT
BRANCH   7   8
HETATM    8  NBM   D T 501      10.901   1.502  -6.958  1.00 69.47    -0.314 N 
HETATM    9  CAB   D T 501      10.126   2.584  -7.605  1.00 69.73     0.129 C 
HETATM   10  CAY   D T 501      11.093   0.312  -7.606  1.00 78.65     0.257 C 
HETATM   11  OAE   D T 501      11.701  -0.631  -7.101  1.00 84.78    -0.267 OA
BRANCH  10  12
HETATM   12  CAZ   D T 501      10.557   0.130  -8.884  1.00 83.94     0.056 A 
HETATM   13  CAM   D T 501      10.698   1.114  -9.864  1.00 85.65     0.005 A 
HETATM   14  CAG   D T 501      10.174   0.904 -11.140  1.00 86.83     0.000 A 
HETATM   15  CAF   D T 501       9.521  -0.293 -11.449  1.00 87.55     0.000 A 
HETATM   16  CAH   D T 501       9.388  -1.285 -10.477  1.00 86.87     0.000 A 
HETATM   17  CAN   D T 501       9.916  -1.075  -9.202  1.00 86.77     0.005 A 
ENDBRANCH  10  12
ENDBRANCH   7   8
BRANCH   2  18
HETATM   18  OAV   D T 501       9.500   2.584  -4.381  1.00 58.49    -0.348 OA
HETATM   19  CAA   D T 501       8.543   3.614  -4.659  1.00 58.91     0.174 C 
ENDBRANCH   2  18
BRANCH   1  20
HETATM   20  NBO   D T 501      10.945   3.580  -2.368  1.00 52.97    -0.306 N 
HETATM   21  CBJ   D T 501      10.609   4.866  -2.133  1.00 52.84     0.078 A 
HETATM   22  CBI   D T 501      10.837   5.998  -2.823  1.00 54.34     0.078 A 
HETATM   23  CBG   D T 501       9.924   4.933  -0.995  1.00 49.70     0.020 A 
HETATM   24  CBH   D T 501      10.389   7.186  -2.385  1.00 53.24     0.023 A 
HETATM   25  NBN   D T 501      11.492   6.190  -3.971  1.00 56.00    -0.304 N 
HETATM   26  CBB   D T 501       9.700   7.246  -1.227  1.00 51.65     0.061 A 
HETATM   27  CBC   D T 501      10.768   8.112  -3.290  1.00 55.43     0.018 A 
HETATM   28  CAX   D T 501       9.125   8.258  -0.535  1.00 52.61     0.279 A 
HETATM   29  CBA   D T 501       9.477   6.107  -0.543  1.00 50.39     0.025 A 
HETATM   30  OAD   D T 501       9.082   9.439  -0.878  1.00 50.87    -0.265 OA
HETATM   31  NAU   D T 501       8.537   7.837   0.579  1.00 51.23    -0.206 NA
HETATM   32  CAS   D T 501       8.758   6.401   0.627  1.00 50.53     0.102 A 
HETATM   33  CAO   D T 501      10.592   9.446  -3.359  1.00 55.71     0.002 A 
HETATM   34  CBE   D T 501      11.442   7.483  -4.275  1.00 56.05     0.062 A 
HETATM   35  CAI   D T 501      11.095  10.188  -4.427  1.00 56.13     0.000 A 
HETATM   36  CAK   D T 501      11.789   9.527  -5.435  1.00 56.08     0.002 A 
HETATM   37  CAQ   D T 501      11.949   8.149  -5.329  1.00 55.62     0.017 A 
HETATM   38  CBD   D T 501       9.841   3.700  -0.496  1.00 49.53     0.017 A 
HETATM   39  CAP   D T 501       9.258   3.250   0.629  1.00 47.22     0.002 A 
HETATM   40  CBF   D T 501      10.474   2.861  -1.339  1.00 49.98     0.062 A 
HETATM   41  CAJ   D T 501       9.298   1.907   0.965  1.00 47.45     0.000 A 
HETATM   42  CAL   D T 501       9.948   1.037   0.102  1.00 48.41     0.002 A 
HETATM   43  CAR   D T 501      10.528   1.551  -1.056  1.00 49.30     0.017 A 
ENDBRANCH   1  20
TORSDOF 5
ENDMDL
MODEL 6
REMARK VINA RESULT:    -8.360      2.285      5.058
REMARK INTER + INTRA:          -8.819
REMARK INTER:                 -12.831
REMARK INTRA:                   4.013
REMARK UNBOUND:                 1.496
REMARK  5 active torsions:
REMARK  status: ('A' for Active; 'I' for Inactive)
REMARK       I    between atoms: NBM_14  and  CAY_34 
REMARK    1  A    between atoms: NBM_14  and  CBL_43 
REMARK    2  A    between atoms: NBN_24  and  CBK_31 
REMARK    3  A    between atoms: CBQ_25  and  NBO_42 
REMARK    4  A    between atoms: CBP_26  and  OAV_27 
REMARK    5  A    between atoms: CAY_34  and  CAZ_36 
ROOT
HETATM    1  CBQ   D T 501      11.060   4.162  -5.079  1.00 56.13     0.192 C 
HETATM    2  CBP   D T 501      10.445   4.883  -3.838  1.00 58.89     0.181 C 
HETATM    3  CAC   D T 501      12.387   4.855  -5.405  1.00 54.70     0.057 C 
HETATM    4  OAW   D T 501      10.235   4.380  -6.238  1.00 56.41    -0.319 OA
HETATM    5  CBK   D T 501       8.798   4.460  -6.079  1.00 58.59     0.208 C 
HETATM    6  CAT   D T 501       8.348   5.395  -4.938  1.00 60.77     0.079 C 
HETATM    7  CBL   D T 501       9.596   6.030  -4.354  1.00 62.40     0.120 C 
ENDROOT
BRANCH   7   8
HETATM    8  NBM   D T 501       9.225   7.050  -3.346  1.00 69.47    -0.314 N 
HETATM    9  CAB   D T 501       7.811   7.218  -2.944  1.00 69.73     0.129 C 
HETATM   10  CAY   D T 501      10.184   7.891  -2.852  1.00 78.65     0.257 C 
HETATM   11  OAE   D T 501      11.369   7.816  -3.178  1.00 84.78    -0.267 OA
BRANCH  10  12
HETATM   12  CAZ   D T 501       9.819   8.906  -1.962  1.00 83.94     0.056 A 
HETATM   13  CAM   D T 501       9.400  10.150  -2.434  1.00 85.65     0.005 A 
HETATM   14  CAG   D T 501       9.018  11.143  -1.531  1.00 86.83     0.000 A 
HETATM   15  CAF   D T 501       9.039  10.894  -0.155  1.00 87.55     0.000 A 
HETATM   16  CAH   D T 501       9.445   9.647   0.321  1.00 86.87     0.000 A 
HETATM   17  CAN   D T 501       9.823   8.654  -0.583  1.00 86.77     0.005 A 
ENDBRANCH  10  12
ENDBRANCH   7   8
BRANCH   2  18
HETATM   18  OAV   D T 501       9.611   3.956  -3.113  1.00 58.49    -0.348 OA
HETATM   19  CAA   D T 501       9.321   4.335  -1.762  1.00 58.91     0.174 C 
ENDBRANCH   2  18
BRANCH   1  20
HETATM   20  NBO   D T 501      11.147   2.645  -4.861  1.00 52.97    -0.306 N 
HETATM   21  CBJ   D T 501      11.016   1.724  -5.839  1.00 52.84     0.078 A 
HETATM   22  CBI   D T 501      10.814   1.838  -7.164  1.00 54.34     0.078 A 
HETATM   23  CBG   D T 501      11.128   0.511  -5.307  1.00 49.70     0.020 A 
HETATM   24  CBH   D T 501      10.722   0.755  -7.954  1.00 53.24     0.023 A 
HETATM   25  NBN   D T 501      10.667   2.928  -7.922  1.00 56.00    -0.304 N 
HETATM   26  CBB   D T 501      10.830  -0.472  -7.406  1.00 51.65     0.061 A 
HETATM   27  CBC   D T 501      10.529   1.197  -9.214  1.00 55.43     0.018 A 
HETATM   28  CAX   D T 501      10.788  -1.726  -7.913  1.00 52.61     0.279 A 
HETATM   29  CBA   D T 501      11.032  -0.576  -6.077  1.00 50.39     0.025 A 
HETATM   30  OAD   D T 501      10.668  -2.026  -9.101  1.00 50.87    -0.265 OA
HETATM   31  NAU   D T 501      10.949  -2.655  -6.976  1.00 51.23    -0.206 NA
HETATM   32  CAS   D T 501      11.102  -1.934  -5.724  1.00 50.53     0.102 A 
HETATM   33  CAO   D T 501      10.371   0.560 -10.390  1.00 55.71     0.002 A 
HETATM   34  CBE   D T 501      10.508   2.546  -9.185  1.00 56.05     0.062 A 
HETATM   35  CAI   D T 501      10.184   1.267 -11.577  1.00 56.13     0.000 A 
HETATM   36  CAK   D T 501      10.163   2.657 -11.533  1.00 56.08     0.002 A 
HETATM   37  CAQ   D T 501      10.330   3.279 -10.300  1.00 55.62     0.017 A 
HETATM   38  CBD   D T 501      11.308   0.654  -3.995  1.00 49.53     0.017 A 
HETATM   39  CAP   D T 501      11.466  -0.266  -3.028  1.00 47.22     0.002 A 
HETATM   40  CBF   D T 501      11.317   1.972  -3.714  1.00 49.98     0.062 A 
HETATM   41  CAJ   D T 501      11.635   0.110  -1.706  1.00 47.45     0.000 A 
HETATM   42  CAL   D T 501      11.645   1.465  -1.408  1.00 48.41     0.002 A 
HETATM   43  CAR   D T 501      11.487   2.380  -2.447  1.00 49.30     0.017 A 
ENDBRANCH   1  20
TORSDOF 5
ENDMDL
MODEL 7
REMARK VINA RESULT:    -8.247      3.701      8.394
REMARK INTER + INTRA:          -8.680
REMARK INTER:                 -10.353
REMARK INTRA:                   1.673
REMARK UNBOUND:                 1.496
REMARK  5 active torsions:
REMARK  status: ('A' for Active; 'I' for Inactive)
REMARK       I    between atoms: NBM_14  and  CAY_34 
REMARK    1  A    between atoms: NBM_14  and  CBL_43 
REMARK    2  A    between atoms: NBN_24  and  CBK_31 
REMARK    3  A    between atoms: CBQ_25  and  NBO_42 
REMARK    4  A    between atoms: CBP_26  and  OAV_27 
REMARK    5  A    between atoms: CAY_34  and  CAZ_36 
ROOT
HETATM    1  CBQ   D T 501       9.025   7.712  -2.401  1.00 56.13     0.192 C 
HETATM    2  CBP   D T 501      10.413   8.307  -2.798  1.00 58.89     0.181 C 
HETATM    3  CAC   D T 501       8.415   7.086  -3.660  1.00 54.70     0.057 C 
HETATM    4  OAW   D T 501       8.118   8.770  -2.039  1.00 56.41    -0.319 OA
HETATM    5  CBK   D T 501       8.631   9.939  -1.358  1.00 58.59     0.208 C 
HETATM    6  CAT   D T 501       9.893  10.539  -2.012  1.00 60.77     0.079 C 
HETATM    7  CBL   D T 501      10.181   9.733  -3.265  1.00 62.40     0.120 C 
ENDROOT
BRANCH   7   8
HETATM    8  NBM   D T 501      11.297  10.344  -4.020  1.00 69.47    -0.314 N 
HETATM    9  CAB   D T 501      11.765  11.707  -3.681  1.00 69.73     0.129 C 
HETATM   10  CAY   D T 501      11.838   9.677  -5.086  1.00 78.65     0.257 C 
HETATM   11  OAE   D T 501      11.463   8.557  -5.430  1.00 84.78    -0.267 OA
BRANCH  10  12
HETATM   12  CAZ   D T 501      12.836  10.291  -5.848  1.00 83.94     0.056 A 
HETATM   13  CAM   D T 501      14.183  10.129  -5.521  1.00 85.65     0.005 A 
HETATM   14  CAG   D T 501      15.166  10.732  -6.307  1.00 86.83     0.000 A 
HETATM   15  CAF   D T 501      14.811  11.486  -7.429  1.00 87.55     0.000 A 
HETATM   16  CAH   D T 501      13.466  11.641  -7.767  1.00 86.87     0.000 A 
HETATM   17  CAN   D T 501      12.484  11.035  -6.982  1.00 86.77     0.005 A 
ENDBRANCH  10  12
ENDBRANCH   7   8
BRANCH   2  18
HETATM   18  OAV   D T 501      11.276   8.315  -1.642  1.00 58.49    -0.348 OA
HETATM   19  CAA   D T 501      12.648   7.999  -1.909  1.00 58.91     0.174 C 
ENDBRANCH   2  18
BRANCH   1  20
HETATM   20  NBO   D T 501       9.140   6.776  -1.191  1.00 52.97    -0.306 N 
HETATM   21  CBJ   D T 501       9.559   5.494  -1.254  1.00 52.84     0.078 A 
HETATM   22  CBI   D T 501       9.979   4.733  -2.280  1.00 54.34     0.078 A 
HETATM   23  CBG   D T 501       9.523   4.968  -0.034  1.00 49.70     0.020 A 
HETATM   24  CBH   D T 501      10.360   3.457  -2.095  1.00 53.24     0.023 A 
HETATM   25  NBN   D T 501      10.099   5.025  -3.578  1.00 56.00    -0.304 N 
HETATM   26  CBB   D T 501      10.316   2.929  -0.855  1.00 51.65     0.061 A 
HETATM   27  CBC   D T 501      10.729   2.973  -3.299  1.00 55.43     0.018 A 
HETATM   28  CAX   D T 501      10.627   1.713  -0.348  1.00 52.61     0.279 A 
HETATM   29  CBA   D T 501       9.893   3.700   0.166  1.00 50.39     0.025 A 
HETATM   30  OAD   D T 501      11.094   0.762  -0.975  1.00 50.87    -0.265 OA
HETATM   31  NAU   D T 501      10.422   1.646   0.963  1.00 51.23    -0.206 NA
HETATM   32  CAS   D T 501       9.916   2.950   1.354  1.00 50.53     0.102 A 
HETATM   33  CAO   D T 501      11.190   1.772  -3.697  1.00 55.71     0.002 A 
HETATM   34  CBE   D T 501      10.574   3.956  -4.210  1.00 56.05     0.062 A 
HETATM   35  CAI   D T 501      11.506   1.524  -5.033  1.00 56.13     0.000 A 
HETATM   36  CAK   D T 501      11.340   2.546  -5.961  1.00 56.08     0.002 A 
HETATM   37  CAQ   D T 501      10.863   3.773  -5.512  1.00 55.62     0.017 A 
HETATM   38  CBD   D T 501       9.066   5.900   0.801  1.00 49.53     0.017 A 
HETATM   39  CAP   D T 501       8.844   5.855   2.126  1.00 47.22     0.002 A 
HETATM   40  CBF   D T 501       8.824   7.019   0.089  1.00 49.98     0.062 A 
HETATM   41  CAJ   D T 501       8.351   6.957   2.804  1.00 47.45     0.000 A 
HETATM   42  CAL   D T 501       8.099   8.112   2.078  1.00 48.41     0.002 A 
HETATM   43  CAR   D T 501       8.353   8.111   0.709  1.00 49.30     0.017 A 
ENDBRANCH   1  20
TORSDOF 5
ENDMDL
MODEL 8
REMARK VINA RESULT:    -8.214      3.364      7.791
REMARK INTER + INTRA:          -8.639
REMARK INTER:                  -9.998
REMARK INTRA:                   1.359
REMARK UNBOUND:                 1.496
REMARK  5 active torsions:
REMARK  status: ('A' for Active; 'I' for Inactive)
REMARK       I    between atoms: NBM_14  and  CAY_34 
REMARK    1  A    between atoms: NBM_14  and  CBL_43 
REMARK    2  A    between atoms: NBN_24  and  CBK_31 
REMARK    3  A    between atoms: CBQ_25  and  NBO_42 
REMARK    4  A    between atoms: CBP_26  and  OAV_27 
REMARK    5  A    between atoms: CAY_34  and  CAZ_36 
ROOT
HETATM    1  CBQ   D T 501       8.954   7.215  -1.869  1.00 56.13     0.192 C 
HETATM    2  CBP   D T 501      10.211   8.109  -2.113  1.00 58.89     0.181 C 
HETATM    3  CAC   D T 501       8.094   7.274  -3.136  1.00 54.70     0.057 C 
HETATM    4  OAW   D T 501       8.131   7.789  -0.837  1.00 56.41    -0.319 OA
HETATM    5  CBK   D T 501       8.761   8.478   0.269  1.00 58.59     0.208 C 
HETATM    6  CAT   D T 501       9.838   9.495  -0.162  1.00 60.77     0.079 C 
HETATM    7  CBL   D T 501       9.857   9.520  -1.679  1.00 62.40     0.120 C 
ENDROOT
BRANCH   7   8
HETATM    8  NBM   D T 501      10.770  10.581  -2.160  1.00 69.47    -0.314 N 
HETATM    9  CAB   D T 501      11.268  11.614  -1.225  1.00 69.73     0.129 C 
HETATM   10  CAY   D T 501      11.085  10.649  -3.490  1.00 78.65     0.257 C 
HETATM   11  OAE   D T 501      10.671   9.836  -4.316  1.00 84.78    -0.267 OA
BRANCH  10  12
HETATM   12  CAZ   D T 501      11.881  11.700  -3.957  1.00 83.94     0.056 A 
HETATM   13  CAM   D T 501      13.267  11.560  -4.043  1.00 85.65     0.005 A 
HETATM   14  CAG   D T 501      14.042  12.612  -4.531  1.00 86.83     0.000 A 
HETATM   15  CAF   D T 501      13.438  13.802  -4.949  1.00 87.55     0.000 A 
HETATM   16  CAH   D T 501      12.052  13.942  -4.877  1.00 86.87     0.000 A 
HETATM   17  CAN   D T 501      11.277  12.887  -4.392  1.00 86.77     0.005 A 
ENDBRANCH  10  12
ENDBRANCH   7   8
BRANCH   2  18
HETATM   18  OAV   D T 501      11.306   7.620  -1.312  1.00 58.49    -0.348 OA
HETATM   19  CAA   D T 501      12.589   7.667  -1.949  1.00 58.91     0.174 C 
ENDBRANCH   2  18
BRANCH   1  20
HETATM   20  NBO   D T 501       9.348   5.806  -1.407  1.00 52.97    -0.306 N 
HETATM   21  CBJ   D T 501       9.897   4.866  -2.205  1.00 52.84     0.078 A 
HETATM   22  CBI   D T 501      10.249   4.879  -3.503  1.00 54.34     0.078 A 
HETATM   23  CBG   D T 501      10.097   3.760  -1.495  1.00 49.70     0.020 A 
HETATM   24  CBH   D T 501      10.796   3.802  -4.091  1.00 53.24     0.023 A 
HETATM   25  NBN   D T 501      10.147   5.850  -4.414  1.00 56.00    -0.304 N 
HETATM   26  CBB   D T 501      10.990   2.682  -3.365  1.00 51.65     0.061 A 
HETATM   27  CBC   D T 501      11.040   4.130  -5.376  1.00 55.43     0.018 A 
HETATM   28  CAX   D T 501      11.508   1.464  -3.651  1.00 52.61     0.279 A 
HETATM   29  CBA   D T 501      10.633   2.678  -2.066  1.00 50.39     0.025 A 
HETATM   30  OAD   D T 501      11.985   1.112  -4.730  1.00 50.87    -0.265 OA
HETATM   31  NAU   D T 501      11.503   0.654  -2.598  1.00 51.23    -0.206 NA
HETATM   32  CAS   D T 501      10.912   1.418  -1.512  1.00 50.53     0.102 A 
HETATM   33  CAO   D T 501      11.572   3.447  -6.408  1.00 55.71     0.002 A 
HETATM   34  CBE   D T 501      10.644   5.407  -5.564  1.00 56.05     0.062 A 
HETATM   35  CAI   D T 501      11.719   4.032  -7.666  1.00 56.13     0.000 A 
HETATM   36  CAK   D T 501      11.306   5.348  -7.845  1.00 56.08     0.002 A 
HETATM   37  CAQ   D T 501      10.762   6.021  -6.756  1.00 55.62     0.017 A 
HETATM   38  CBD   D T 501       9.661   3.984  -0.256  1.00 49.53     0.017 A 
HETATM   39  CAP   D T 501       9.640   3.182   0.822  1.00 47.22     0.002 A 
HETATM   40  CBF   D T 501       9.194   5.247  -0.198  1.00 49.98     0.062 A 
HETATM   41  CAJ   D T 501       9.127   3.625   2.030  1.00 47.45     0.000 A 
HETATM   42  CAL   D T 501       8.643   4.923   2.098  1.00 48.41     0.002 A 
HETATM   43  CAR   D T 501       8.696   5.718   0.955  1.00 49.30     0.017 A 
ENDBRANCH   1  20
TORSDOF 5
ENDMDL
MODEL 9
REMARK VINA RESULT:    -7.774      3.153     10.478
REMARK INTER + INTRA:          -8.096
REMARK INTER:                  -9.283
REMARK INTRA:                   1.187
REMARK UNBOUND:                 1.496
REMARK  5 active torsions:
REMARK  status: ('A' for Active; 'I' for Inactive)
REMARK       I    between atoms: NBM_14  and  CAY_34 
REMARK    1  A    between atoms: NBM_14  and  CBL_43 
REMARK    2  A    between atoms: NBN_24  and  CBK_31 
REMARK    3  A    between atoms: CBQ_25  and  NBO_42 
REMARK    4  A    between atoms: CBP_26  and  OAV_27 
REMARK    5  A    between atoms: CAY_34  and  CAZ_36 
ROOT
HETATM    1  CBQ   D T 501      10.531   4.816   0.059  1.00 56.13     0.192 C 
HETATM    2  CBP   D T 501      10.090   4.966  -1.431  1.00 58.89     0.181 C 
HETATM    3  CAC   D T 501      12.055   4.967   0.107  1.00 54.70     0.057 C 
HETATM    4  OAW   D T 501      10.279   3.474   0.517  1.00 56.41    -0.319 OA
HETATM    5  CBK   D T 501       9.116   2.766   0.025  1.00 58.59     0.208 C 
HETATM    6  CAT   D T 501       8.947   2.832  -1.506  1.00 60.77     0.079 C 
HETATM    7  CBL   D T 501      10.140   3.587  -2.062  1.00 62.40     0.120 C 
ENDROOT
BRANCH   7   8
HETATM    8  NBM   D T 501      10.114   3.563  -3.542  1.00 69.47    -0.314 N 
HETATM    9  CAB   D T 501       8.823   3.487  -4.262  1.00 69.73     0.129 C 
HETATM   10  CAY   D T 501      11.292   3.527  -4.238  1.00 78.65     0.257 C 
HETATM   11  OAE   D T 501      12.392   3.553  -3.687  1.00 84.78    -0.267 OA
BRANCH  10  12
HETATM   12  CAZ   D T 501      11.266   3.422  -5.631  1.00 83.94     0.056 A 
HETATM   13  CAM   D T 501      11.045   2.190  -6.250  1.00 85.65     0.005 A 
HETATM   14  CAG   D T 501      11.001   2.110  -7.642  1.00 86.83     0.000 A 
HETATM   15  CAF   D T 501      11.162   3.259  -8.423  1.00 87.55     0.000 A 
HETATM   16  CAH   D T 501      11.370   4.495  -7.809  1.00 86.87     0.000 A 
HETATM   17  CAN   D T 501      11.410   4.574  -6.416  1.00 86.77     0.005 A 
ENDBRANCH  10  12
ENDBRANCH   7   8
BRANCH   2  18
HETATM   18  OAV   D T 501       8.739   5.468  -1.480  1.00 58.49    -0.348 OA
HETATM   19  CAA   D T 501       8.488   6.430  -2.512  1.00 58.91     0.174 C 
ENDBRANCH   2  18
BRANCH   1  20
HETATM   20  NBO   D T 501       9.747   5.765   0.975  1.00 52.97    -0.306 N 
HETATM   21  CBJ   D T 501       9.787   7.111   0.894  1.00 52.84     0.078 A 
HETATM   22  CBI   D T 501      10.436   7.945   0.062  1.00 54.34     0.078 A 
HETATM   23  CBG   D T 501       9.009   7.625   1.841  1.00 49.70     0.020 A 
HETATM   24  CBH   D T 501      10.314   9.279   0.172  1.00 53.24     0.023 A 
HETATM   25  NBN   D T 501      11.267   7.679  -0.950  1.00 56.00    -0.304 N 
HETATM   26  CBB   D T 501       9.528   9.792   1.139  1.00 51.65     0.061 A 
HETATM   27  CBC   D T 501      11.074   9.829  -0.798  1.00 55.43     0.018 A 
HETATM   28  CAX   D T 501       9.199  11.054   1.502  1.00 52.61     0.279 A 
HETATM   29  CBA   D T 501       8.881   8.948   1.968  1.00 50.39     0.025 A 
HETATM   30  OAD   D T 501       9.560  12.089   0.942  1.00 50.87    -0.265 OA
HETATM   31  NAU   D T 501       8.367  11.081   2.538  1.00 51.23    -0.206 NA
HETATM   32  CAS   D T 501       8.135   9.692   2.897  1.00 50.53     0.102 A 
HETATM   33  CAO   D T 501      11.320  11.106  -1.150  1.00 55.71     0.002 A 
HETATM   34  CBE   D T 501      11.651   8.829  -1.495  1.00 56.05     0.062 A 
HETATM   35  CAI   D T 501      12.162  11.413  -2.219  1.00 56.13     0.000 A 
HETATM   36  CAK   D T 501      12.752  10.372  -2.928  1.00 56.08     0.002 A 
HETATM   37  CAQ   D T 501      12.472   9.067  -2.535  1.00 55.62     0.017 A 
HETATM   38  CBD   D T 501       8.490   6.614   2.537  1.00 49.53     0.017 A 
HETATM   39  CAP   D T 501       7.654   6.615   3.590  1.00 47.22     0.002 A 
HETATM   40  CBF   D T 501       8.947   5.462   2.008  1.00 49.98     0.062 A 
HETATM   41  CAJ   D T 501       7.240   5.428   4.173  1.00 47.45     0.000 A 
HETATM   42  CAL   D T 501       7.707   4.238   3.634  1.00 48.41     0.002 A 
HETATM   43  CAR   D T 501       8.564   4.290   2.537  1.00 49.30     0.017 A 
ENDBRANCH   1  20
TORSDOF 5
ENDMDL
