MODEL 1
REMARK VINA RESULT:      -7.9      0.000      0.000
REMARK  2 active torsions:
REMARK  status: ('A' for Active; 'I' for Inactive)
REMARK    1  A    between atoms: C5_4  and  O7_13 
REMARK    2  A    between atoms: C8_10  and  O7_13 
ROOT
HETATM    1  O7    D T 302       8.869  16.540  24.627  1.00 10.35    -0.304 OA
ENDROOT
BRANCH   1   2
HETATM    2  C5    D T 302       9.544  17.762  24.513  1.00 11.31     0.125 A 
HETATM    3  C6    D T 302      10.063  18.101  23.280  1.00 12.21     0.154 A 
HETATM    4  C1    D T 302      10.723  19.319  23.118  1.00 14.36     0.041 A 
HETATM    5  O17   D T 302       9.912  17.194  22.213  1.00 12.31    -0.188 OA
HETATM    6  C2    D T 302      10.847  20.182  24.205  1.00 10.74     0.060 A 
HETATM    7  C3    D T 302      10.326  19.831  25.447  1.00 14.97     0.014 A 
HETATM    8 CL14   D T 302      11.688  21.704  24.008  1.00 13.78    -0.082 Cl
HETATM    9  C4    D T 302       9.664  18.617  25.600  1.00 12.53     0.028 A 
ENDBRANCH   1   2
BRANCH   1  10
HETATM   10  C8    D T 302       9.532  15.555  25.373  1.00 14.58     0.111 A 
HETATM   11  C9    D T 302       8.728  14.622  26.009  1.00 16.10     0.081 A 
HETATM   12  C10   D T 302       9.275  13.620  26.782  1.00 12.30     0.025 A 
HETATM   13 CL16   D T 302       6.997  14.725  25.844  1.00 18.17    -0.080 Cl
HETATM   14  C11   D T 302      10.640  13.554  26.922  1.00 13.57     0.059 A 
HETATM   15  C12   D T 302      11.468  14.478  26.289  1.00 15.73     0.013 A 
HETATM   16 CL15   D T 302      11.287  12.285  27.920  1.00 17.72    -0.082 Cl
HETATM   17  C13   D T 302      10.917  15.486  25.502  1.00 14.41     0.026 A 
ENDBRANCH   1  10
TORSDOF 2
ENDMDL
MODEL 2
REMARK VINA RESULT:      -7.8     10.896     12.798
REMARK  2 active torsions:
REMARK  status: ('A' for Active; 'I' for Inactive)
REMARK    1  A    between atoms: C5_4  and  O7_13 
REMARK    2  A    between atoms: C8_10  and  O7_13 
ROOT
HETATM    1  O7    D T 302      15.255  14.302  14.692  1.00 10.35    -0.304 OA
ENDROOT
BRANCH   1   2
HETATM    2  C5    D T 302      14.209  15.105  15.162  1.00 11.31     0.125 A 
HETATM    3  C6    D T 302      12.923  14.611  15.067  1.00 12.21     0.154 A 
HETATM    4  C1    D T 302      11.853  15.369  15.544  1.00 14.36     0.041 A 
HETATM    5  O17   D T 302      12.729  13.345  14.481  1.00 12.31    -0.188 OA
HETATM    6  C2    D T 302      12.097  16.617  16.115  1.00 10.74     0.060 A 
HETATM    7  C3    D T 302      13.396  17.111  16.202  1.00 14.97     0.014 A 
HETATM    8 CL14   D T 302      10.755  17.576  16.699  1.00 13.78    -0.082 Cl
HETATM    9  C4    D T 302      14.458  16.347  15.730  1.00 12.53     0.028 A 
ENDBRANCH   1   2
BRANCH   1  10
HETATM   10  C8    D T 302      16.343  14.996  14.141  1.00 14.58     0.111 A 
HETATM   11  C9    D T 302      16.139  15.562  12.891  1.00 16.10     0.081 A 
HETATM   12  C10   D T 302      17.146  16.253  12.250  1.00 12.30     0.025 A 
HETATM   13 CL16   D T 302      14.593  15.384  12.109  1.00 18.17    -0.080 Cl
HETATM   14  C11   D T 302      18.368  16.375  12.865  1.00 13.57     0.059 A 
HETATM   15  C12   D T 302      18.594  15.819  14.123  1.00 15.73     0.013 A 
HETATM   16 CL15   D T 302      19.615  17.239  12.014  1.00 17.72    -0.082 Cl
HETATM   17  C13   D T 302      17.575  15.128  14.774  1.00 14.41     0.026 A 
ENDBRANCH   1  10
TORSDOF 2
ENDMDL
MODEL 3
REMARK VINA RESULT:      -7.8     10.661     11.750
REMARK  2 active torsions:
REMARK  status: ('A' for Active; 'I' for Inactive)
REMARK    1  A    between atoms: C5_4  and  O7_13 
REMARK    2  A    between atoms: C8_10  and  O7_13 
ROOT
HETATM    1  O7    D T 302      15.767  16.031  16.015  1.00 10.35    -0.304 OA
ENDROOT
BRANCH   1   2
HETATM    2  C5    D T 302      16.687  16.226  14.977  1.00 11.31     0.125 A 
HETATM    3  C6    D T 302      16.751  17.477  14.398  1.00 12.21     0.154 A 
HETATM    4  C1    D T 302      17.670  17.721  13.377  1.00 14.36     0.041 A 
HETATM    5  O17   D T 302      15.875  18.479  14.859  1.00 12.31    -0.188 OA
HETATM    6  C2    D T 302      18.515  16.697  12.956  1.00 10.74     0.060 A 
HETATM    7  C3    D T 302      18.441  15.436  13.541  1.00 14.97     0.014 A 
HETATM    8 CL14   D T 302      19.657  16.996  11.664  1.00 13.78    -0.082 Cl
HETATM    9  C4    D T 302      17.527  15.201  14.563  1.00 12.53     0.028 A 
ENDBRANCH   1   2
BRANCH   1  10
HETATM   10  C8    D T 302      16.317  15.585  17.227  1.00 14.58     0.111 A 
HETATM   11  C9    D T 302      15.814  14.394  17.727  1.00 16.10     0.081 A 
HETATM   12  C10   D T 302      16.271  13.873  18.919  1.00 12.30     0.025 A 
HETATM   13 CL16   D T 302      14.573  13.548  16.846  1.00 18.17    -0.080 Cl
HETATM   14  C11   D T 302      17.239  14.554  19.618  1.00 13.57     0.059 A 
HETATM   15  C12   D T 302      17.762  15.751  19.132  1.00 15.73     0.013 A 
HETATM   16 CL15   D T 302      17.775  13.871  21.125  1.00 17.72    -0.082 Cl
HETATM   17  C13   D T 302      17.306  16.273  17.924  1.00 14.41     0.026 A 
ENDBRANCH   1  10
TORSDOF 2
ENDMDL
MODEL 4
REMARK VINA RESULT:      -7.7     10.660     12.756
REMARK  2 active torsions:
REMARK  status: ('A' for Active; 'I' for Inactive)
REMARK    1  A    between atoms: C5_4  and  O7_13 
REMARK    2  A    between atoms: C8_10  and  O7_13 
ROOT
HETATM    1  O7    D T 302      15.862  15.896  15.929  1.00 10.35    -0.304 OA
ENDROOT
BRANCH   1   2
HETATM    2  C5    D T 302      16.358  15.462  17.165  1.00 11.31     0.125 A 
HETATM    3  C6    D T 302      15.969  14.217  17.616  1.00 12.21     0.154 A 
HETATM    4  C1    D T 302      16.458  13.737  18.831  1.00 14.36     0.041 A 
HETATM    5  O17   D T 302      15.076  13.464  16.829  1.00 12.31    -0.188 OA
HETATM    6  C2    D T 302      17.339  14.520  19.573  1.00 10.74     0.060 A 
HETATM    7  C3    D T 302      17.723  15.777  19.114  1.00 14.97     0.014 A 
HETATM    8 CL14   D T 302      17.942  13.926  21.105  1.00 13.78    -0.082 Cl
HETATM    9  C4    D T 302      17.236  16.248  17.899  1.00 12.53     0.028 A 
ENDBRANCH   1   2
BRANCH   1  10
HETATM   10  C8    D T 302      16.828  16.096  14.932  1.00 14.58     0.111 A 
HETATM   11  C9    D T 302      16.800  17.324  14.288  1.00 16.10     0.081 A 
HETATM   12  C10   D T 302      17.694  17.620  13.281  1.00 12.30     0.025 A 
HETATM   13 CL16   D T 302      15.606  18.507  14.745  1.00 18.17    -0.080 Cl
HETATM   14  C11   D T 302      18.623  16.677  12.914  1.00 13.57     0.059 A 
HETATM   15  C12   D T 302      18.674  15.438  13.550  1.00 15.73     0.013 A 
HETATM   16 CL15   D T 302      19.720  17.085  11.627  1.00 17.72    -0.082 Cl
HETATM   17  C13   D T 302      17.775  15.141  14.573  1.00 14.41     0.026 A 
ENDBRANCH   1  10
TORSDOF 2
ENDMDL
MODEL 5
REMARK VINA RESULT:      -7.7     10.613     12.233
REMARK  2 active torsions:
REMARK  status: ('A' for Active; 'I' for Inactive)
REMARK    1  A    between atoms: C5_4  and  O7_13 
REMARK    2  A    between atoms: C8_10  and  O7_13 
ROOT
HETATM    1  O7    D T 302      15.340  14.564  15.289  1.00 10.35    -0.304 OA
ENDROOT
BRANCH   1   2
HETATM    2  C5    D T 302      16.307  15.208  14.508  1.00 11.31     0.125 A 
HETATM    3  C6    D T 302      17.516  15.513  15.100  1.00 12.21     0.154 A 
HETATM    4  C1    D T 302      18.516  16.134  14.351  1.00 14.36     0.041 A 
HETATM    5  O17   D T 302      17.704  15.189  16.458  1.00 12.31    -0.188 OA
HETATM    6  C2    D T 302      18.283  16.435  13.010  1.00 10.74     0.060 A 
HETATM    7  C3    D T 302      17.058  16.129  12.422  1.00 14.97     0.014 A 
HETATM    8 CL14   D T 302      19.530  17.228  12.074  1.00 13.78    -0.082 Cl
HETATM    9  C4    D T 302      16.068  15.504  13.173  1.00 12.53     0.028 A 
ENDBRANCH   1   2
BRANCH   1  10
HETATM   10  C8    D T 302      14.250  15.360  15.671  1.00 14.58     0.111 A 
HETATM   11  C9    D T 302      12.994  14.889  15.322  1.00 16.10     0.081 A 
HETATM   12  C10   D T 302      11.854  15.600  15.635  1.00 12.30     0.025 A 
HETATM   13 CL16   D T 302      12.850  13.381  14.461  1.00 18.17    -0.080 Cl
HETATM   14  C11   D T 302      11.975  16.796  16.300  1.00 13.57     0.059 A 
HETATM   15  C12   D T 302      13.227  17.287  16.665  1.00 15.73     0.013 A 
HETATM   16 CL15   D T 302      10.515  17.670  16.658  1.00 17.72    -0.082 Cl
HETATM   17  C13   D T 302      14.378  16.565  16.356  1.00 14.41     0.026 A 
ENDBRANCH   1  10
TORSDOF 2
ENDMDL
MODEL 6
REMARK VINA RESULT:      -7.7     10.522     12.093
REMARK  2 active torsions:
REMARK  status: ('A' for Active; 'I' for Inactive)
REMARK    1  A    between atoms: C5_4  and  O7_13 
REMARK    2  A    between atoms: C8_10  and  O7_13 
ROOT
HETATM    1  O7    D T 302      14.786  14.697  14.590  1.00 10.35    -0.304 OA
ENDROOT
BRANCH   1   2
HETATM    2  C5    D T 302      15.942  15.197  13.979  1.00 11.31     0.125 A 
HETATM    3  C6    D T 302      15.815  15.776  12.732  1.00 12.21     0.154 A 
HETATM    4  C1    D T 302      16.938  16.308  12.098  1.00 14.36     0.041 A 
HETATM    5  O17   D T 302      14.542  15.808  12.130  1.00 12.31    -0.188 OA
HETATM    6  C2    D T 302      18.177  16.252  12.735  1.00 10.74     0.060 A 
HETATM    7  C3    D T 302      18.298  15.661  13.990  1.00 14.97     0.014 A 
HETATM    8 CL14   D T 302      19.589  16.904  11.934  1.00 13.78    -0.082 Cl
HETATM    9  C4    D T 302      17.173  15.138  14.619  1.00 12.53     0.028 A 
ENDBRANCH   1   2
BRANCH   1  10
HETATM   10  C8    D T 302      14.242  15.507  15.598  1.00 14.58     0.111 A 
HETATM   11  C9    D T 302      14.347  15.027  16.894  1.00 16.10     0.081 A 
HETATM   12  C10   D T 302      13.832  15.735  17.959  1.00 12.30     0.025 A 
HETATM   13 CL16   D T 302      15.127  13.497  17.183  1.00 18.17    -0.080 Cl
HETATM   14  C11   D T 302      13.203  16.934  17.723  1.00 13.57     0.059 A 
HETATM   15  C12   D T 302      13.090  17.438  16.429  1.00 15.73     0.013 A 
HETATM   16 CL15   D T 302      12.553  17.786  19.093  1.00 17.72    -0.082 Cl
HETATM   17  C13   D T 302      13.617  16.727  15.354  1.00 14.41     0.026 A 
ENDBRANCH   1  10
TORSDOF 2
ENDMDL
MODEL 7
REMARK VINA RESULT:      -7.5     10.197     11.155
REMARK  2 active torsions:
REMARK  status: ('A' for Active; 'I' for Inactive)
REMARK    1  A    between atoms: C5_4  and  O7_13 
REMARK    2  A    between atoms: C8_10  and  O7_13 
ROOT
HETATM    1  O7    D T 302      15.780  15.294  16.918  1.00 10.35    -0.304 OA
ENDROOT
BRANCH   1   2
HETATM    2  C5    D T 302      16.603  15.664  15.847  1.00 11.31     0.125 A 
HETATM    3  C6    D T 302      16.593  14.867  14.720  1.00 12.21     0.154 A 
HETATM    4  C1    D T 302      17.380  15.212  13.621  1.00 14.36     0.041 A 
HETATM    5  O17   D T 302      15.782  13.715  14.716  1.00 12.31    -0.188 OA
HETATM    6  C2    D T 302      18.166  16.362  13.673  1.00 10.74     0.060 A 
HETATM    7  C3    D T 302      18.175  17.157  14.816  1.00 14.97     0.014 A 
HETATM    8 CL14   D T 302      19.166  16.787  12.302  1.00 13.78    -0.082 Cl
HETATM    9  C4    D T 302      17.383  16.811  15.905  1.00 12.53     0.028 A 
ENDBRANCH   1   2
BRANCH   1  10
HETATM   10  C8    D T 302      16.451  14.799  18.046  1.00 14.58     0.111 A 
HETATM   11  C9    D T 302      15.739  14.809  19.236  1.00 16.10     0.081 A 
HETATM   12  C10   D T 302      16.308  14.360  20.409  1.00 12.30     0.025 A 
HETATM   13 CL16   D T 302      14.105  15.413  19.255  1.00 18.17    -0.080 Cl
HETATM   14  C11   D T 302      17.602  13.899  20.391  1.00 13.57     0.059 A 
HETATM   15  C12   D T 302      18.335  13.876  19.205  1.00 15.73     0.013 A 
HETATM   16 CL15   D T 302      18.287  13.359  21.895  1.00 17.72    -0.082 Cl
HETATM   17  C13   D T 302      17.759  14.323  18.019  1.00 14.41     0.026 A 
ENDBRANCH   1  10
TORSDOF 2
ENDMDL
MODEL 8
REMARK VINA RESULT:      -7.5      1.625      5.905
REMARK  2 active torsions:
REMARK  status: ('A' for Active; 'I' for Inactive)
REMARK    1  A    between atoms: C5_4  and  O7_13 
REMARK    2  A    between atoms: C8_10  and  O7_13 
ROOT
HETATM    1  O7    D T 302       9.198  16.505  24.300  1.00 10.35    -0.304 OA
ENDROOT
BRANCH   1   2
HETATM    2  C5    D T 302       9.382  15.443  25.193  1.00 11.31     0.125 A 
HETATM    3  C6    D T 302       8.257  14.844  25.725  1.00 12.21     0.154 A 
HETATM    4  C1    D T 302       8.395  13.767  26.601  1.00 14.36     0.041 A 
HETATM    5  O17   D T 302       6.992  15.347  25.365  1.00 12.31    -0.188 OA
HETATM    6  C2    D T 302       9.669  13.306  26.926  1.00 10.74     0.060 A 
HETATM    7  C3    D T 302      10.798  13.918  26.390  1.00 14.97     0.014 A 
HETATM    8 CL14   D T 302       9.844  11.966  28.037  1.00 13.78    -0.082 Cl
HETATM    9  C4    D T 302      10.654  14.988  25.513  1.00 12.53     0.028 A 
ENDBRANCH   1   2
BRANCH   1  10
HETATM   10  C8    D T 302       9.999  17.632  24.536  1.00 14.58     0.111 A 
HETATM   11  C9    D T 302      11.001  17.877  23.609  1.00 16.10     0.081 A 
HETATM   12  C10   D T 302      11.857  18.949  23.752  1.00 12.30     0.025 A 
HETATM   13 CL16   D T 302      11.194  16.806  22.249  1.00 18.17    -0.080 Cl
HETATM   14  C11   D T 302      11.709  19.781  24.836  1.00 13.57     0.059 A 
HETATM   15  C12   D T 302      10.706  19.557  25.777  1.00 15.73     0.013 A 
HETATM   16 CL15   D T 302      12.820  21.110  24.988  1.00 17.72    -0.082 Cl
HETATM   17  C13   D T 302       9.837  18.479  25.629  1.00 14.41     0.026 A 
ENDBRANCH   1  10
TORSDOF 2
ENDMDL
MODEL 9
REMARK VINA RESULT:      -7.4     10.165     12.027
REMARK  2 active torsions:
REMARK  status: ('A' for Active; 'I' for Inactive)
REMARK    1  A    between atoms: C5_4  and  O7_13 
REMARK    2  A    between atoms: C8_10  and  O7_13 
ROOT
HETATM    1  O7    D T 302      15.646  15.260  17.031  1.00 10.35    -0.304 OA
ENDROOT
BRANCH   1   2
HETATM    2  C5    D T 302      16.305  14.796  18.177  1.00 11.31     0.125 A 
HETATM    3  C6    D T 302      15.639  14.878  19.383  1.00 12.21     0.154 A 
HETATM    4  C1    D T 302      16.250  14.406  20.545  1.00 14.36     0.041 A 
HETATM    5  O17   D T 302      14.350  15.445  19.403  1.00 12.31    -0.188 OA
HETATM    6  C2    D T 302      17.527  13.853  20.472  1.00 10.74     0.060 A 
HETATM    7  C3    D T 302      18.195  13.780  19.253  1.00 14.97     0.014 A 
HETATM    8 CL14   D T 302      18.301  13.276  21.931  1.00 13.78    -0.082 Cl
HETATM    9  C4    D T 302      17.577  14.246  18.098  1.00 12.53     0.028 A 
ENDBRANCH   1   2
BRANCH   1  10
HETATM   10  C8    D T 302      16.483  15.659  15.979  1.00 14.58     0.111 A 
HETATM   11  C9    D T 302      16.466  14.861  14.845  1.00 16.10     0.081 A 
HETATM   12  C10   D T 302      17.262  15.153  13.757  1.00 12.30     0.025 A 
HETATM   13 CL16   D T 302      15.435  13.458  14.797  1.00 18.17    -0.080 Cl
HETATM   14  C11   D T 302      18.085  16.252  13.807  1.00 13.57     0.059 A 
HETATM   15  C12   D T 302      18.115  17.071  14.934  1.00 15.73     0.013 A 
HETATM   16 CL15   D T 302      19.084  16.573  12.421  1.00 17.72    -0.082 Cl
HETATM   17  C13   D T 302      17.306  16.781  16.030  1.00 14.41     0.026 A 
ENDBRANCH   1  10
TORSDOF 2
ENDMDL
