MODEL 1
REMARK VINA RESULT:    -7.306      0.000      0.000
REMARK INTER + INTRA:          -8.694
REMARK INTER:                  -8.160
REMARK INTRA:                  -0.534
REMARK UNBOUND:                -0.534
REMARK  2 active torsions:
REMARK  status: ('A' for Active; 'I' for Inactive)
REMARK    1  A    between atoms: C5_4  and  O7_13 
REMARK    2  A    between atoms: C8_10  and  O7_13 
ROOT
HETATM    1  O7    D T 302       5.711   1.517  -7.185  1.00 10.35    -0.304 OA
ENDROOT
BRANCH   1   2
HETATM    2  C5    D T 302       4.594   2.072  -6.549  1.00 11.31     0.125 A 
HETATM    3  C6    D T 302       3.728   1.215  -5.898  1.00 12.21     0.154 A 
HETATM    4  C1    D T 302       2.616   1.729  -5.232  1.00 14.36     0.041 A 
HETATM    5  O17   D T 302       3.996  -0.167  -5.932  1.00 12.31    -0.188 OA
HETATM    6  C2    D T 302       2.393   3.105  -5.228  1.00 10.74     0.060 A 
HETATM    7  C3    D T 302       3.267   3.962  -5.890  1.00 14.97     0.014 A 
HETATM    8 CL14   D T 302       0.990   3.750  -4.406  1.00 13.78    -0.082 Cl
HETATM    9  C4    D T 302       4.378   3.443  -6.548  1.00 12.53     0.028 A 
ENDBRANCH   1   2
BRANCH   1  10
HETATM   10  C8    D T 302       5.681   1.552  -8.587  1.00 14.58     0.111 A 
HETATM   11  C9    D T 302       6.582   2.410  -9.199  1.00 16.10     0.081 A 
HETATM   12  C10   D T 302       6.627   2.535 -10.571  1.00 12.30     0.025 A 
HETATM   13 CL16   D T 302       7.666   3.359  -8.218  1.00 18.17    -0.080 Cl
HETATM   14  C11   D T 302       5.760   1.796 -11.338  1.00 13.57     0.059 A 
HETATM   15  C12   D T 302       4.849   0.924 -10.746  1.00 15.73     0.013 A 
HETATM   16 CL15   D T 302       5.839   1.998 -13.064  1.00 17.72    -0.082 Cl
HETATM   17  C13   D T 302       4.807   0.792  -9.360  1.00 14.41     0.026 A 
ENDBRANCH   1  10
TORSDOF 2
ENDMDL
MODEL 2
REMARK VINA RESULT:    -7.272      1.583      6.008
REMARK INTER + INTRA:          -8.656
REMARK INTER:                  -8.114
REMARK INTRA:                  -0.542
REMARK UNBOUND:                -0.534
REMARK  2 active torsions:
REMARK  status: ('A' for Active; 'I' for Inactive)
REMARK    1  A    between atoms: C5_4  and  O7_13 
REMARK    2  A    between atoms: C8_10  and  O7_13 
ROOT
HETATM    1  O7    D T 302       5.250   0.987  -7.593  1.00 10.35    -0.304 OA
ENDROOT
BRANCH   1   2
HETATM    2  C5    D T 302       5.306   1.233  -8.970  1.00 11.31     0.125 A 
HETATM    3  C6    D T 302       6.435   1.851  -9.471  1.00 12.21     0.154 A 
HETATM    4  C1    D T 302       6.541   2.094 -10.840  1.00 14.36     0.041 A 
HETATM    5  O17   D T 302       7.452   2.226  -8.572  1.00 12.31    -0.188 OA
HETATM    6  C2    D T 302       5.507   1.706 -11.689  1.00 10.74     0.060 A 
HETATM    7  C3    D T 302       4.370   1.088 -11.176  1.00 14.97     0.014 A 
HETATM    8 CL14   D T 302       5.632   2.024 -13.405  1.00 13.78    -0.082 Cl
HETATM    9  C4    D T 302       4.272   0.843  -9.810  1.00 12.53     0.028 A 
ENDBRANCH   1   2
BRANCH   1  10
HETATM   10  C8    D T 302       4.331   1.771  -6.881  1.00 14.58     0.111 A 
HETATM   11  C9    D T 302       3.310   1.087  -6.237  1.00 16.10     0.081 A 
HETATM   12  C10   D T 302       2.342   1.761  -5.522  1.00 12.30     0.025 A 
HETATM   13 CL16   D T 302       3.238  -0.650  -6.346  1.00 18.17    -0.080 Cl
HETATM   14  C11   D T 302       2.396   3.132  -5.453  1.00 13.57     0.059 A 
HETATM   15  C12   D T 302       3.414   3.839  -6.088  1.00 15.73     0.013 A 
HETATM   16 CL15   D T 302       1.145   3.941  -4.555  1.00 17.72    -0.082 Cl
HETATM   17  C13   D T 302       4.396   3.159  -6.805  1.00 14.41     0.026 A 
ENDBRANCH   1  10
TORSDOF 2
ENDMDL
MODEL 3
REMARK VINA RESULT:    -7.157      1.635      2.117
REMARK INTER + INTRA:          -8.527
REMARK INTER:                  -8.357
REMARK INTRA:                  -0.170
REMARK UNBOUND:                -0.534
REMARK  2 active torsions:
REMARK  status: ('A' for Active; 'I' for Inactive)
REMARK    1  A    between atoms: C5_4  and  O7_13 
REMARK    2  A    between atoms: C8_10  and  O7_13 
ROOT
HETATM    1  O7    D T 302       4.541   0.530  -7.730  1.00 10.35    -0.304 OA
ENDROOT
BRANCH   1   2
HETATM    2  C5    D T 302       3.765   1.426  -6.986  1.00 11.31     0.125 A 
HETATM    3  C6    D T 302       2.863   0.903  -6.080  1.00 12.21     0.154 A 
HETATM    4  C1    D T 302       2.087   1.761  -5.301  1.00 14.36     0.041 A 
HETATM    5  O17   D T 302       2.750  -0.497  -5.974  1.00 12.31    -0.188 OA
HETATM    6  C2    D T 302       2.234   3.139  -5.444  1.00 10.74     0.060 A 
HETATM    7  C3    D T 302       3.142   3.660  -6.362  1.00 14.97     0.014 A 
HETATM    8 CL14   D T 302       1.250   4.217  -4.479  1.00 13.78    -0.082 Cl
HETATM    9  C4    D T 302       3.917   2.798  -7.132  1.00 12.53     0.028 A 
ENDBRANCH   1   2
BRANCH   1  10
HETATM   10  C8    D T 302       4.847   0.943  -9.035  1.00 14.58     0.111 A 
HETATM   11  C9    D T 302       3.851   0.768  -9.984  1.00 16.10     0.081 A 
HETATM   12  C10   D T 302       4.051   1.124 -11.301  1.00 12.30     0.025 A 
HETATM   13 CL16   D T 302       2.325   0.073  -9.510  1.00 18.17    -0.080 Cl
HETATM   14  C11   D T 302       5.261   1.658 -11.672  1.00 13.57     0.059 A 
HETATM   15  C12   D T 302       6.275   1.847 -10.735  1.00 15.73     0.013 A 
HETATM   16 CL15   D T 302       5.477   2.078 -13.346  1.00 17.72    -0.082 Cl
HETATM   17  C13   D T 302       6.071   1.493  -9.404  1.00 14.41     0.026 A 
ENDBRANCH   1  10
TORSDOF 2
ENDMDL
MODEL 4
REMARK VINA RESULT:    -6.893      2.180      2.571
REMARK INTER + INTRA:          -8.233
REMARK INTER:                  -8.108
REMARK INTRA:                  -0.126
REMARK UNBOUND:                -0.534
REMARK  2 active torsions:
REMARK  status: ('A' for Active; 'I' for Inactive)
REMARK    1  A    between atoms: C5_4  and  O7_13 
REMARK    2  A    between atoms: C8_10  and  O7_13 
ROOT
HETATM    1  O7    D T 302       2.970   3.005  -7.726  1.00 10.35    -0.304 OA
ENDROOT
BRANCH   1   2
HETATM    2  C5    D T 302       2.906   2.193  -6.588  1.00 11.31     0.125 A 
HETATM    3  C6    D T 302       2.504   2.773  -5.401  1.00 12.21     0.154 A 
HETATM    4  C1    D T 302       2.404   1.994  -4.249  1.00 14.36     0.041 A 
HETATM    5  O17   D T 302       2.209   4.150  -5.391  1.00 12.31    -0.188 OA
HETATM    6  C2    D T 302       2.709   0.636  -4.310  1.00 10.74     0.060 A 
HETATM    7  C3    D T 302       3.118   0.059  -5.508  1.00 14.97     0.014 A 
HETATM    8 CL14   D T 302       2.599  -0.339  -2.861  1.00 13.78    -0.082 Cl
HETATM    9  C4    D T 302       3.210   0.840  -6.655  1.00 12.53     0.028 A 
ENDBRANCH   1   2
BRANCH   1  10
HETATM   10  C8    D T 302       3.738   2.496  -8.784  1.00 14.58     0.111 A 
HETATM   11  C9    D T 302       5.074   2.867  -8.807  1.00 16.10     0.081 A 
HETATM   12  C10   D T 302       5.916   2.437  -9.810  1.00 12.30     0.025 A 
HETATM   13 CL16   D T 302       5.698   3.907  -7.555  1.00 18.17    -0.080 Cl
HETATM   14  C11   D T 302       5.415   1.630 -10.802  1.00 13.57     0.059 A 
HETATM   15  C12   D T 302       4.077   1.241 -10.798  1.00 15.73     0.013 A 
HETATM   16 CL15   D T 302       6.507   1.125 -12.058  1.00 17.72    -0.082 Cl
HETATM   17  C13   D T 302       3.228   1.669  -9.781  1.00 14.41     0.026 A 
ENDBRANCH   1  10
TORSDOF 2
ENDMDL
MODEL 5
REMARK VINA RESULT:    -6.888      2.373      6.102
REMARK INTER + INTRA:          -8.228
REMARK INTER:                  -7.743
REMARK INTRA:                  -0.485
REMARK UNBOUND:                -0.534
REMARK  2 active torsions:
REMARK  status: ('A' for Active; 'I' for Inactive)
REMARK    1  A    between atoms: C5_4  and  O7_13 
REMARK    2  A    between atoms: C8_10  and  O7_13 
ROOT
HETATM    1  O7    D T 302       2.749   1.709  -8.083  1.00 10.35    -0.304 OA
ENDROOT
BRANCH   1   2
HETATM    2  C5    D T 302       3.592   1.651  -9.200  1.00 11.31     0.125 A 
HETATM    3  C6    D T 302       3.424   2.604 -10.186  1.00 12.21     0.154 A 
HETATM    4  C1    D T 302       4.257   2.597 -11.304  1.00 14.36     0.041 A 
HETATM    5  O17   D T 302       2.402   3.560 -10.031  1.00 12.31    -0.188 OA
HETATM    6  C2    D T 302       5.253   1.629 -11.412  1.00 10.74     0.060 A 
HETATM    7  C3    D T 302       5.413   0.669 -10.417  1.00 14.97     0.014 A 
HETATM    8 CL14   D T 302       6.289   1.609 -12.822  1.00 13.78    -0.082 Cl
HETATM    9  C4    D T 302       4.583   0.685  -9.301  1.00 12.53     0.028 A 
ENDBRANCH   1   2
BRANCH   1  10
HETATM   10  C8    D T 302       3.328   2.245  -6.923  1.00 14.58     0.111 A 
HETATM   11  C9    D T 302       3.513   1.366  -5.867  1.00 16.10     0.081 A 
HETATM   12  C10   D T 302       4.058   1.790  -4.674  1.00 12.30     0.025 A 
HETATM   13 CL16   D T 302       3.033  -0.300  -6.042  1.00 18.17    -0.080 Cl
HETATM   14  C11   D T 302       4.421   3.108  -4.537  1.00 13.57     0.059 A 
HETATM   15  C12   D T 302       4.248   4.009  -5.586  1.00 15.73     0.013 A 
HETATM   16 CL15   D T 302       5.089   3.604  -3.010  1.00 17.72    -0.082 Cl
HETATM   17  C13   D T 302       3.704   3.579  -6.793  1.00 14.41     0.026 A 
ENDBRANCH   1  10
TORSDOF 2
ENDMDL
MODEL 6
REMARK VINA RESULT:    -6.765      2.150      2.337
REMARK INTER + INTRA:          -8.090
REMARK INTER:                  -7.638
REMARK INTRA:                  -0.452
REMARK UNBOUND:                -0.534
REMARK  2 active torsions:
REMARK  status: ('A' for Active; 'I' for Inactive)
REMARK    1  A    between atoms: C5_4  and  O7_13 
REMARK    2  A    between atoms: C8_10  and  O7_13 
ROOT
HETATM    1  O7    D T 302       2.638   1.827  -7.631  1.00 10.35    -0.304 OA
ENDROOT
BRANCH   1   2
HETATM    2  C5    D T 302       3.125   2.329  -6.418  1.00 11.31     0.125 A 
HETATM    3  C6    D T 302       3.207   1.461  -5.347  1.00 12.21     0.154 A 
HETATM    4  C1    D T 302       3.709   1.914  -4.127  1.00 14.36     0.041 A 
HETATM    5  O17   D T 302       2.770   0.134  -5.520  1.00 12.31    -0.188 OA
HETATM    6  C2    D T 302       4.127   3.238  -4.005  1.00 10.74     0.060 A 
HETATM    7  C3    D T 302       4.037   4.107  -5.088  1.00 14.97     0.014 A 
HETATM    8 CL14   D T 302       4.742   3.811  -2.471  1.00 13.78    -0.082 Cl
HETATM    9  C4    D T 302       3.541   3.648  -6.304  1.00 12.53     0.028 A 
ENDBRANCH   1   2
BRANCH   1  10
HETATM   10  C8    D T 302       3.606   1.609  -8.622  1.00 14.58     0.111 A 
HETATM   11  C9    D T 302       3.646   2.532  -9.656  1.00 16.10     0.081 A 
HETATM   12  C10   D T 302       4.548   2.404 -10.691  1.00 12.30     0.025 A 
HETATM   13 CL16   D T 302       2.528   3.868  -9.657  1.00 18.17    -0.080 Cl
HETATM   14  C11   D T 302       5.417   1.340 -10.692  1.00 13.57     0.059 A 
HETATM   15  C12   D T 302       5.398   0.402  -9.662  1.00 15.73     0.013 A 
HETATM   16 CL15   D T 302       6.526   1.208 -12.025  1.00 17.72    -0.082 Cl
HETATM   17  C13   D T 302       4.492   0.535  -8.613  1.00 14.41     0.026 A 
ENDBRANCH   1  10
TORSDOF 2
ENDMDL
MODEL 7
REMARK VINA RESULT:    -6.743      2.919      4.027
REMARK INTER + INTRA:          -8.066
REMARK INTER:                  -7.917
REMARK INTRA:                  -0.149
REMARK UNBOUND:                -0.534
REMARK  2 active torsions:
REMARK  status: ('A' for Active; 'I' for Inactive)
REMARK    1  A    between atoms: C5_4  and  O7_13 
REMARK    2  A    between atoms: C8_10  and  O7_13 
ROOT
HETATM    1  O7    D T 302       5.360   2.684  -8.257  1.00 10.35    -0.304 OA
ENDROOT
BRANCH   1   2
HETATM    2  C5    D T 302       6.551   2.552  -7.532  1.00 11.31     0.125 A 
HETATM    3  C6    D T 302       6.643   1.514  -6.625  1.00 12.21     0.154 A 
HETATM    4  C1    D T 302       7.819   1.333  -5.898  1.00 14.36     0.041 A 
HETATM    5  O17   D T 302       5.531   0.667  -6.456  1.00 12.31    -0.188 OA
HETATM    6  C2    D T 302       8.891   2.200  -6.099  1.00 10.74     0.060 A 
HETATM    7  C3    D T 302       8.789   3.245  -7.012  1.00 14.97     0.014 A 
HETATM    8 CL14   D T 302      10.362   1.982  -5.176  1.00 13.78    -0.082 Cl
HETATM    9  C4    D T 302       7.615   3.418  -7.738  1.00 12.53     0.028 A 
ENDBRANCH   1   2
BRANCH   1  10
HETATM   10  C8    D T 302       5.467   2.435  -9.634  1.00 14.58     0.111 A 
HETATM   11  C9    D T 302       4.441   2.923 -10.428  1.00 16.10     0.081 A 
HETATM   12  C10   D T 302       4.437   2.721 -11.791  1.00 12.30     0.025 A 
HETATM   13 CL16   D T 302       3.125   3.794  -9.689  1.00 18.17    -0.080 Cl
HETATM   14  C11   D T 302       5.470   2.021 -12.365  1.00 13.57     0.059 A 
HETATM   15  C12   D T 302       6.514   1.524 -11.589  1.00 15.73     0.013 A 
HETATM   16 CL15   D T 302       5.416   1.774 -14.086  1.00 17.72    -0.082 Cl
HETATM   17  C13   D T 302       6.522   1.733 -10.212  1.00 14.41     0.026 A 
ENDBRANCH   1  10
TORSDOF 2
ENDMDL
MODEL 8
REMARK VINA RESULT:    -6.643      2.734      3.229
REMARK INTER + INTRA:          -7.954
REMARK INTER:                  -7.401
REMARK INTRA:                  -0.552
REMARK UNBOUND:                -0.534
REMARK  2 active torsions:
REMARK  status: ('A' for Active; 'I' for Inactive)
REMARK    1  A    between atoms: C5_4  and  O7_13 
REMARK    2  A    between atoms: C8_10  and  O7_13 
ROOT
HETATM    1  O7    D T 302       2.731   2.382  -7.146  1.00 10.35    -0.304 OA
ENDROOT
BRANCH   1   2
HETATM    2  C5    D T 302       3.344   2.861  -5.982  1.00 11.31     0.125 A 
HETATM    3  C6    D T 302       2.955   4.100  -5.510  1.00 12.21     0.154 A 
HETATM    4  C1    D T 302       3.524   4.605  -4.341  1.00 14.36     0.041 A 
HETATM    5  O17   D T 302       1.991   4.825  -6.237  1.00 12.31    -0.188 OA
HETATM    6  C2    D T 302       4.475   3.850  -3.659  1.00 10.74     0.060 A 
HETATM    7  C3    D T 302       4.865   2.604  -4.143  1.00 14.97     0.014 A 
HETATM    8 CL14   D T 302       5.201   4.488  -2.200  1.00 13.78    -0.082 Cl
HETATM    9  C4    D T 302       4.290   2.104  -5.307  1.00 12.53     0.028 A 
ENDBRANCH   1   2
BRANCH   1  10
HETATM   10  C8    D T 302       3.584   2.217  -8.248  1.00 14.58     0.111 A 
HETATM   11  C9    D T 302       3.753   0.919  -8.705  1.00 16.10     0.081 A 
HETATM   12  C10   D T 302       4.582   0.641  -9.771  1.00 12.30     0.025 A 
HETATM   13 CL16   D T 302       2.917  -0.387  -7.910  1.00 18.17    -0.080 Cl
HETATM   14  C11   D T 302       5.249   1.674 -10.384  1.00 13.57     0.059 A 
HETATM   15  C12   D T 302       5.092   2.986  -9.945  1.00 15.73     0.013 A 
HETATM   16 CL15   D T 302       6.298   1.277 -11.714  1.00 17.72    -0.082 Cl
HETATM   17  C13   D T 302       4.250   3.268  -8.872  1.00 14.41     0.026 A 
ENDBRANCH   1  10
TORSDOF 2
ENDMDL
MODEL 9
REMARK VINA RESULT:    -6.609      2.087      3.255
REMARK INTER + INTRA:          -7.916
REMARK INTER:                  -7.384
REMARK INTRA:                  -0.532
REMARK UNBOUND:                -0.534
REMARK  2 active torsions:
REMARK  status: ('A' for Active; 'I' for Inactive)
REMARK    1  A    between atoms: C5_4  and  O7_13 
REMARK    2  A    between atoms: C8_10  and  O7_13 
ROOT
HETATM    1  O7    D T 302       4.635   1.852  -7.242  1.00 10.35    -0.304 OA
ENDROOT
BRANCH   1   2
HETATM    2  C5    D T 302       3.645   2.382  -6.407  1.00 11.31     0.125 A 
HETATM    3  C6    D T 302       3.045   1.534  -5.496  1.00 12.21     0.154 A 
HETATM    4  C1    D T 302       2.071   2.026  -4.629  1.00 14.36     0.041 A 
HETATM    5  O17   D T 302       3.438   0.182  -5.476  1.00 12.31    -0.188 OA
HETATM    6  C2    D T 302       1.715   3.372  -4.689  1.00 10.74     0.060 A 
HETATM    7  C3    D T 302       2.320   4.220  -5.613  1.00 14.97     0.014 A 
HETATM    8 CL14   D T 302       0.481   3.988  -3.613  1.00 13.78    -0.082 Cl
HETATM    9  C4    D T 302       3.296   3.724  -6.471  1.00 12.53     0.028 A 
ENDBRANCH   1   2
BRANCH   1  10
HETATM   10  C8    D T 302       5.940   2.296  -6.982  1.00 14.58     0.111 A 
HETATM   11  C9    D T 302       6.598   2.919  -8.032  1.00 16.10     0.081 A 
HETATM   12  C10   D T 302       7.889   3.380  -7.890  1.00 12.30     0.025 A 
HETATM   13 CL16   D T 302       5.786   3.109  -9.561  1.00 18.17    -0.080 Cl
HETATM   14  C11   D T 302       8.529   3.213  -6.686  1.00 13.57     0.059 A 
HETATM   15  C12   D T 302       7.887   2.595  -5.616  1.00 15.73     0.013 A 
HETATM   16 CL15   D T 302      10.164   3.794  -6.557  1.00 17.72    -0.082 Cl
HETATM   17  C13   D T 302       6.580   2.135  -5.756  1.00 14.41     0.026 A 
ENDBRANCH   1  10
TORSDOF 2
ENDMDL
