MODEL 1
REMARK VINA RESULT:    -7.736      0.000      0.000
REMARK INTER + INTRA:          -9.050
REMARK INTER:                  -8.640
REMARK INTRA:                  -0.410
REMARK UNBOUND:                -0.410
REMARK  2 active torsions:
REMARK  status: ('A' for Active; 'I' for Inactive)
REMARK    1  A    between atoms: C5_4  and  O7_13 
REMARK    2  A    between atoms: C8_10  and  O7_13 
ROOT
HETATM    1  O7    D T 302       8.635  16.582  24.502  1.00 10.35    -0.304 OA
ENDROOT
BRANCH   1   2
HETATM    2  C5    D T 302       9.533  17.656  24.565  1.00 11.31     0.125 A 
HETATM    3  C6    D T 302      10.270  17.948  23.435  1.00 12.21     0.154 A 
HETATM    4  C1    D T 302      11.159  19.024  23.448  1.00 14.36     0.041 A 
HETATM    5  O17   D T 302      10.105  17.139  22.294  1.00 12.31    -0.188 OA
HETATM    6  C2    D T 302      11.287  19.794  24.602  1.00 10.74     0.060 A 
HETATM    7  C3    D T 302      10.544  19.490  25.738  1.00 14.97     0.014 A 
HETATM    8 CL14   D T 302      12.413  21.134  24.624  1.00 13.78    -0.082 Cl
HETATM    9  C4    D T 302       9.655  18.420  25.717  1.00 12.53     0.028 A 
ENDBRANCH   1   2
BRANCH   1  10
HETATM   10  C8    D T 302       8.977  15.469  25.283  1.00 14.58     0.111 A 
HETATM   11  C9    D T 302       7.934  14.840  25.945  1.00 16.10     0.081 A 
HETATM   12  C10   D T 302       8.160  13.745  26.752  1.00 12.30     0.025 A 
HETATM   13 CL16   D T 302       6.312  15.450  25.767  1.00 18.17    -0.080 Cl
HETATM   14  C11   D T 302       9.443  13.278  26.901  1.00 13.57     0.059 A 
HETATM   15  C12   D T 302      10.507  13.892  26.242  1.00 15.73     0.013 A 
HETATM   16 CL15   D T 302       9.686  11.907  27.943  1.00 17.72    -0.082 Cl
HETATM   17  C13   D T 302      10.278  14.993  25.421  1.00 14.41     0.026 A 
ENDBRANCH   1  10
TORSDOF 2
ENDMDL
MODEL 2
REMARK VINA RESULT:    -7.700     10.921     13.147
REMARK INTER + INTRA:          -9.010
REMARK INTER:                  -8.933
REMARK INTRA:                  -0.077
REMARK UNBOUND:                -0.410
REMARK  2 active torsions:
REMARK  status: ('A' for Active; 'I' for Inactive)
REMARK    1  A    between atoms: C5_4  and  O7_13 
REMARK    2  A    between atoms: C8_10  and  O7_13 
ROOT
HETATM    1  O7    D T 302      15.298  14.391  14.615  1.00 10.35    -0.304 OA
ENDROOT
BRANCH   1   2
HETATM    2  C5    D T 302      14.255  15.183  15.108  1.00 11.31     0.125 A 
HETATM    3  C6    D T 302      12.968  14.695  15.002  1.00 12.21     0.154 A 
HETATM    4  C1    D T 302      11.901  15.442  15.502  1.00 14.36     0.041 A 
HETATM    5  O17   D T 302      12.769  13.446  14.381  1.00 12.31    -0.188 OA
HETATM    6  C2    D T 302      12.149  16.673  16.107  1.00 10.74     0.060 A 
HETATM    7  C3    D T 302      13.449  17.161  16.205  1.00 14.97     0.014 A 
HETATM    8 CL14   D T 302      10.810  17.619  16.720  1.00 13.78    -0.082 Cl
HETATM    9  C4    D T 302      14.509  16.408  15.710  1.00 12.53     0.028 A 
ENDBRANCH   1   2
BRANCH   1  10
HETATM   10  C8    D T 302      16.397  15.097  14.103  1.00 14.58     0.111 A 
HETATM   11  C9    D T 302      16.223  15.687  12.861  1.00 16.10     0.081 A 
HETATM   12  C10   D T 302      17.243  16.392  12.258  1.00 12.30     0.025 A 
HETATM   13 CL16   D T 302      14.696  15.523  12.039  1.00 18.17    -0.080 Cl
HETATM   14  C11   D T 302      18.450  16.504  12.904  1.00 13.57     0.059 A 
HETATM   15  C12   D T 302      18.647  15.923  14.156  1.00 15.73     0.013 A 
HETATM   16 CL15   D T 302      19.715  17.386  12.100  1.00 17.72    -0.082 Cl
HETATM   17  C13   D T 302      17.614  15.218  14.768  1.00 14.41     0.026 A 
ENDBRANCH   1  10
TORSDOF 2
ENDMDL
MODEL 3
REMARK VINA RESULT:    -7.667     10.602     12.056
REMARK INTER + INTRA:          -8.973
REMARK INTER:                  -8.475
REMARK INTRA:                  -0.498
REMARK UNBOUND:                -0.410
REMARK  2 active torsions:
REMARK  status: ('A' for Active; 'I' for Inactive)
REMARK    1  A    between atoms: C5_4  and  O7_13 
REMARK    2  A    between atoms: C8_10  and  O7_13 
ROOT
HETATM    1  O7    D T 302      15.845  15.946  16.042  1.00 10.35    -0.304 OA
ENDROOT
BRANCH   1   2
HETATM    2  C5    D T 302      16.758  16.172  15.005  1.00 11.31     0.125 A 
HETATM    3  C6    D T 302      16.804  17.434  14.447  1.00 12.21     0.154 A 
HETATM    4  C1    D T 302      17.716  17.708  13.428  1.00 14.36     0.041 A 
HETATM    5  O17   D T 302      15.915  18.416  14.928  1.00 12.31    -0.188 OA
HETATM    6  C2    D T 302      18.574  16.703  12.986  1.00 10.74     0.060 A 
HETATM    7  C3    D T 302      18.519  15.431  13.550  1.00 14.97     0.014 A 
HETATM    8 CL14   D T 302      19.708  17.040  11.697  1.00 13.78    -0.082 Cl
HETATM    9  C4    D T 302      17.611  15.166  14.570  1.00 12.53     0.028 A 
ENDBRANCH   1   2
BRANCH   1  10
HETATM   10  C8    D T 302      16.409  15.537  17.259  1.00 14.58     0.111 A 
HETATM   11  C9    D T 302      15.926  14.351  17.791  1.00 16.10     0.081 A 
HETATM   12  C10   D T 302      16.399  13.864  18.991  1.00 12.30     0.025 A 
HETATM   13 CL16   D T 302      14.690  13.468  16.938  1.00 18.17    -0.080 Cl
HETATM   14  C11   D T 302      17.363  14.573  19.666  1.00 13.57     0.059 A 
HETATM   15  C12   D T 302      17.866  15.765  19.149  1.00 15.73     0.013 A 
HETATM   16 CL15   D T 302      17.918  13.933  21.184  1.00 17.72    -0.082 Cl
HETATM   17  C13   D T 302      17.394  16.254  17.933  1.00 14.41     0.026 A 
ENDBRANCH   1  10
TORSDOF 2
ENDMDL
MODEL 4
REMARK VINA RESULT:    -7.566     10.919     12.621
REMARK INTER + INTRA:          -8.860
REMARK INTER:                  -8.675
REMARK INTRA:                  -0.185
REMARK UNBOUND:                -0.410
REMARK  2 active torsions:
REMARK  status: ('A' for Active; 'I' for Inactive)
REMARK    1  A    between atoms: C5_4  and  O7_13 
REMARK    2  A    between atoms: C8_10  and  O7_13 
ROOT
HETATM    1  O7    D T 302      15.014  14.489  14.328  1.00 10.35    -0.304 OA
ENDROOT
BRANCH   1   2
HETATM    2  C5    D T 302      16.157  15.088  13.783  1.00 11.31     0.125 A 
HETATM    3  C6    D T 302      16.006  15.845  12.639  1.00 12.21     0.154 A 
HETATM    4  C1    D T 302      17.115  16.477  12.076  1.00 14.36     0.041 A 
HETATM    5  O17   D T 302      14.724  15.951  12.065  1.00 12.31    -0.188 OA
HETATM    6  C2    D T 302      18.363  16.341  12.680  1.00 10.74     0.060 A 
HETATM    7  C3    D T 302      18.508  15.572  13.831  1.00 14.97     0.014 A 
HETATM    8 CL14   D T 302      19.757  17.121  11.967  1.00 13.78    -0.082 Cl
HETATM    9  C4    D T 302      17.397  14.948  14.391  1.00 12.53     0.028 A 
ENDBRANCH   1   2
BRANCH   1  10
HETATM   10  C8    D T 302      14.263  15.304  15.189  1.00 14.58     0.111 A 
HETATM   11  C9    D T 302      12.902  15.373  14.935  1.00 16.10     0.081 A 
HETATM   12  C10   D T 302      12.072  16.156  15.709  1.00 12.30     0.025 A 
HETATM   13 CL16   D T 302      12.228  14.467  13.608  1.00 18.17    -0.080 Cl
HETATM   14  C11   D T 302      12.611  16.880  16.745  1.00 13.57     0.059 A 
HETATM   15  C12   D T 302      13.976  16.823  17.021  1.00 15.73     0.013 A 
HETATM   16 CL15   D T 302      11.532  17.869  17.684  1.00 17.72    -0.082 Cl
HETATM   17  C13   D T 302      14.813  16.026  16.244  1.00 14.41     0.026 A 
ENDBRANCH   1  10
TORSDOF 2
ENDMDL
MODEL 5
REMARK VINA RESULT:    -7.543     10.459     12.194
REMARK INTER + INTRA:          -8.834
REMARK INTER:                  -8.298
REMARK INTRA:                  -0.536
REMARK UNBOUND:                -0.410
REMARK  2 active torsions:
REMARK  status: ('A' for Active; 'I' for Inactive)
REMARK    1  A    between atoms: C5_4  and  O7_13 
REMARK    2  A    between atoms: C8_10  and  O7_13 
ROOT
HETATM    1  O7    D T 302      15.224  14.575  15.528  1.00 10.35    -0.304 OA
ENDROOT
BRANCH   1   2
HETATM    2  C5    D T 302      16.177  15.159  14.684  1.00 11.31     0.125 A 
HETATM    3  C6    D T 302      17.417  15.452  15.214  1.00 12.21     0.154 A 
HETATM    4  C1    D T 302      18.402  16.013  14.401  1.00 14.36     0.041 A 
HETATM    5  O17   D T 302      17.650  15.178  16.576  1.00 12.31    -0.188 OA
HETATM    6  C2    D T 302      18.123  16.266  13.060  1.00 10.74     0.060 A 
HETATM    7  C3    D T 302      16.868  15.973  12.533  1.00 14.97     0.014 A 
HETATM    8 CL14   D T 302      19.353  16.984  12.043  1.00 13.78    -0.082 Cl
HETATM    9  C4    D T 302      15.892  15.408  13.348  1.00 12.53     0.028 A 
ENDBRANCH   1   2
BRANCH   1  10
HETATM   10  C8    D T 302      14.157  15.409  15.894  1.00 14.58     0.111 A 
HETATM   11  C9    D T 302      12.894  15.000  15.492  1.00 16.10     0.081 A 
HETATM   12  C10   D T 302      11.776  15.753  15.785  1.00 12.30     0.025 A 
HETATM   13 CL16   D T 302      12.716  13.521  14.589  1.00 18.17    -0.080 Cl
HETATM   14  C11   D T 302      11.924  16.926  16.484  1.00 13.57     0.059 A 
HETATM   15  C12   D T 302      13.183  17.354  16.902  1.00 15.73     0.013 A 
HETATM   16 CL15   D T 302      10.491  17.853  16.816  1.00 17.72    -0.082 Cl
HETATM   17  C13   D T 302      14.312  16.591  16.613  1.00 14.41     0.026 A 
ENDBRANCH   1  10
TORSDOF 2
ENDMDL
MODEL 6
REMARK VINA RESULT:    -7.410     10.241     12.659
REMARK INTER + INTRA:          -8.686
REMARK INTER:                  -8.179
REMARK INTRA:                  -0.507
REMARK UNBOUND:                -0.410
REMARK  2 active torsions:
REMARK  status: ('A' for Active; 'I' for Inactive)
REMARK    1  A    between atoms: C5_4  and  O7_13 
REMARK    2  A    between atoms: C8_10  and  O7_13 
ROOT
HETATM    1  O7    D T 302      14.070  17.083  14.316  1.00 10.35    -0.304 OA
ENDROOT
BRANCH   1   2
HETATM    2  C5    D T 302      13.958  16.712  15.662  1.00 11.31     0.125 A 
HETATM    3  C6    D T 302      13.276  17.559  16.511  1.00 12.21     0.154 A 
HETATM    4  C1    D T 302      13.122  17.216  17.855  1.00 14.36     0.041 A 
HETATM    5  O17   D T 302      12.757  18.761  15.991  1.00 12.31    -0.188 OA
HETATM    6  C2    D T 302      13.655  16.016  18.322  1.00 10.74     0.060 A 
HETATM    7  C3    D T 302      14.346  15.169  17.460  1.00 14.97     0.014 A 
HETATM    8 CL14   D T 302      13.475  15.592  20.010  1.00 13.78    -0.082 Cl
HETATM    9  C4    D T 302      14.491  15.515  16.121  1.00 12.53     0.028 A 
ENDBRANCH   1   2
BRANCH   1  10
HETATM   10  C8    D T 302      15.380  17.139  13.817  1.00 14.58     0.111 A 
HETATM   11  C9    D T 302      15.702  16.212  12.837  1.00 16.10     0.081 A 
HETATM   12  C10   D T 302      16.967  16.167  12.288  1.00 12.30     0.025 A 
HETATM   13 CL16   D T 302      14.497  15.074  12.301  1.00 18.17    -0.080 Cl
HETATM   14  C11   D T 302      17.917  17.057  12.726  1.00 13.57     0.059 A 
HETATM   15  C12   D T 302      17.614  18.000  13.707  1.00 15.73     0.013 A 
HETATM   16 CL15   D T 302      19.503  16.954  12.020  1.00 17.72    -0.082 Cl
HETATM   17  C13   D T 302      16.336  18.050  14.256  1.00 14.41     0.026 A 
ENDBRANCH   1  10
TORSDOF 2
ENDMDL
MODEL 7
REMARK VINA RESULT:    -7.370     10.082     11.311
REMARK INTER + INTRA:          -8.641
REMARK INTER:                  -8.442
REMARK INTRA:                  -0.198
REMARK UNBOUND:                -0.410
REMARK  2 active torsions:
REMARK  status: ('A' for Active; 'I' for Inactive)
REMARK    1  A    between atoms: C5_4  and  O7_13 
REMARK    2  A    between atoms: C8_10  and  O7_13 
ROOT
HETATM    1  O7    D T 302      15.814  15.141  17.185  1.00 10.35    -0.304 OA
ENDROOT
BRANCH   1   2
HETATM    2  C5    D T 302      16.616  15.488  16.091  1.00 11.31     0.125 A 
HETATM    3  C6    D T 302      16.532  14.709  14.955  1.00 12.21     0.154 A 
HETATM    4  C1    D T 302      17.297  15.034  13.834  1.00 14.36     0.041 A 
HETATM    5  O17   D T 302      15.671  13.594  14.964  1.00 12.31    -0.188 OA
HETATM    6  C2    D T 302      18.135  16.147  13.875  1.00 10.74     0.060 A 
HETATM    7  C3    D T 302      18.218  16.925  15.026  1.00 14.97     0.014 A 
HETATM    8 CL14   D T 302      19.106  16.547  12.476  1.00 13.78    -0.082 Cl
HETATM    9  C4    D T 302      17.448  16.599  16.138  1.00 12.53     0.028 A 
ENDBRANCH   1   2
BRANCH   1  10
HETATM   10  C8    D T 302      16.507  14.676  18.313  1.00 14.58     0.111 A 
HETATM   11  C9    D T 302      15.824  14.732  19.518  1.00 16.10     0.081 A 
HETATM   12  C10   D T 302      16.416  14.316  20.692  1.00 12.30     0.025 A 
HETATM   13 CL16   D T 302      14.196  15.352  19.556  1.00 18.17    -0.080 Cl
HETATM   14  C11   D T 302      17.705  13.843  20.659  1.00 13.57     0.059 A 
HETATM   15  C12   D T 302      18.410  13.774  19.458  1.00 15.73     0.013 A 
HETATM   16 CL15   D T 302      18.420  13.346  22.164  1.00 17.72    -0.082 Cl
HETATM   17  C13   D T 302      17.809  14.187  18.271  1.00 14.41     0.026 A 
ENDBRANCH   1  10
TORSDOF 2
ENDMDL
MODEL 8
REMARK VINA RESULT:    -7.313     10.010     12.247
REMARK INTER + INTRA:          -8.577
REMARK INTER:                  -8.039
REMARK INTRA:                  -0.539
REMARK UNBOUND:                -0.410
REMARK  2 active torsions:
REMARK  status: ('A' for Active; 'I' for Inactive)
REMARK    1  A    between atoms: C5_4  and  O7_13 
REMARK    2  A    between atoms: C8_10  and  O7_13 
ROOT
HETATM    1  O7    D T 302      14.992  14.475  15.912  1.00 10.35    -0.304 OA
ENDROOT
BRANCH   1   2
HETATM    2  C5    D T 302      13.917  15.326  16.199  1.00 11.31     0.125 A 
HETATM    3  C6    D T 302      12.657  14.935  15.794  1.00 12.21     0.154 A 
HETATM    4  C1    D T 302      11.556  15.743  16.080  1.00 14.36     0.041 A 
HETATM    5  O17   D T 302      12.521  13.722  15.092  1.00 12.31    -0.188 OA
HETATM    6  C2    D T 302      11.743  16.935  16.777  1.00 10.74     0.060 A 
HETATM    7  C3    D T 302      13.017  17.326  17.177  1.00 14.97     0.014 A 
HETATM    8 CL14   D T 302      10.365  17.957  17.123  1.00 13.78    -0.082 Cl
HETATM    9  C4    D T 302      14.110  16.513  16.894  1.00 12.53     0.028 A 
ENDBRANCH   1   2
BRANCH   1  10
HETATM   10  C8    D T 302      15.927  14.979  14.996  1.00 14.58     0.111 A 
HETATM   11  C9    D T 302      17.177  15.296  15.507  1.00 16.10     0.081 A 
HETATM   12  C10   D T 302      18.167  15.813  14.698  1.00 12.30     0.025 A 
HETATM   13 CL16   D T 302      17.499  15.052  17.201  1.00 18.17    -0.080 Cl
HETATM   14  C11   D T 302      17.902  16.018  13.366  1.00 13.57     0.059 A 
HETATM   15  C12   D T 302      16.655  15.702  12.829  1.00 15.73     0.013 A 
HETATM   16 CL15   D T 302      19.172  16.688  12.386  1.00 17.72    -0.082 Cl
HETATM   17  C13   D T 302      15.657  15.173  13.644  1.00 14.41     0.026 A 
ENDBRANCH   1  10
TORSDOF 2
ENDMDL
MODEL 9
REMARK VINA RESULT:    -7.221     10.199     11.961
REMARK INTER + INTRA:          -8.474
REMARK INTER:                  -7.956
REMARK INTRA:                  -0.519
REMARK UNBOUND:                -0.410
REMARK  2 active torsions:
REMARK  status: ('A' for Active; 'I' for Inactive)
REMARK    1  A    between atoms: C5_4  and  O7_13 
REMARK    2  A    between atoms: C8_10  and  O7_13 
ROOT
HETATM    1  O7    D T 302      14.090  17.066  14.222  1.00 10.35    -0.304 OA
ENDROOT
BRANCH   1   2
HETATM    2  C5    D T 302      15.402  17.090  13.735  1.00 11.31     0.125 A 
HETATM    3  C6    D T 302      15.735  16.204  12.730  1.00 12.21     0.154 A 
HETATM    4  C1    D T 302      17.026  16.211  12.200  1.00 14.36     0.041 A 
HETATM    5  O17   D T 302      14.752  15.307  12.269  1.00 12.31    -0.188 OA
HETATM    6  C2    D T 302      17.963  17.118  12.689  1.00 10.74     0.060 A 
HETATM    7  C3    D T 302      17.622  18.005  13.707  1.00 14.97     0.014 A 
HETATM    8 CL14   D T 302      19.587  17.118  12.037  1.00 13.78    -0.082 Cl
HETATM    9  C4    D T 302      16.332  17.997  14.227  1.00 12.53     0.028 A 
ENDBRANCH   1   2
BRANCH   1  10
HETATM   10  C8    D T 302      13.951  16.628  15.548  1.00 14.58     0.111 A 
HETATM   11  C9    D T 302      13.266  17.476  16.405  1.00 16.10     0.081 A 
HETATM   12  C10   D T 302      13.085  17.152  17.733  1.00 12.30     0.025 A 
HETATM   13 CL16   D T 302      12.636  18.983  15.800  1.00 18.17    -0.080 Cl
HETATM   14  C11   D T 302      13.598  15.969  18.207  1.00 13.57     0.059 A 
HETATM   15  C12   D T 302      14.286  15.099  17.363  1.00 15.73     0.013 A 
HETATM   16 CL15   D T 302      13.363  15.608  19.892  1.00 17.72    -0.082 Cl
HETATM   17  C13   D T 302      14.462  15.423  16.020  1.00 14.41     0.026 A 
ENDBRANCH   1  10
TORSDOF 2
ENDMDL
