MODEL 1
REMARK VINA RESULT:    -7.551      0.000      0.000
REMARK INTER + INTRA:          -8.965
REMARK INTER:                  -8.434
REMARK INTRA:                  -0.531
REMARK UNBOUND:                -0.531
REMARK  2 active torsions:
REMARK  status: ('A' for Active; 'I' for Inactive)
REMARK    1  A    between atoms: C5_4  and  O7_13 
REMARK    2  A    between atoms: C8_10  and  O7_13 
ROOT
HETATM    1  O7    D T 302       7.026   1.054  -6.685  1.00 10.35    -0.304 OA
ENDROOT
BRANCH   1   2
HETATM    2  C5    D T 302       6.020   1.811  -6.072  1.00 11.31     0.125 A 
HETATM    3  C6    D T 302       4.905   1.145  -5.605  1.00 12.21     0.154 A 
HETATM    4  C1    D T 302       3.889   1.859  -4.968  1.00 14.36     0.041 A 
HETATM    5  O17   D T 302       4.825  -0.248  -5.793  1.00 12.31    -0.188 OA
HETATM    6  C2    D T 302       4.015   3.237  -4.807  1.00 10.74     0.060 A 
HETATM    7  C3    D T 302       5.141   3.902  -5.285  1.00 14.97     0.014 A 
HETATM    8 CL14   D T 302       2.735   4.135  -4.022  1.00 13.78    -0.082 Cl
HETATM    9  C4    D T 302       6.152   3.184  -5.915  1.00 12.53     0.028 A 
ENDBRANCH   1   2
BRANCH   1  10
HETATM   10  C8    D T 302       7.185   1.270  -8.062  1.00 14.58     0.111 A 
HETATM   11  C9    D T 302       8.338   1.934  -8.450  1.00 16.10     0.081 A 
HETATM   12  C10   D T 302       8.588   2.211  -9.777  1.00 12.30     0.025 A 
HETATM   13 CL16   D T 302       9.486   2.441  -7.242  1.00 18.17    -0.080 Cl
HETATM   14  C11   D T 302       7.672   1.824 -10.724  1.00 13.57     0.059 A 
HETATM   15  C12   D T 302       6.507   1.150 -10.358  1.00 15.73     0.013 A 
HETATM   16 CL15   D T 302       8.017   2.209 -12.385  1.00 17.72    -0.082 Cl
HETATM   17  C13   D T 302       6.259   0.863  -9.018  1.00 14.41     0.026 A 
ENDBRANCH   1  10
TORSDOF 2
ENDMDL
MODEL 2
REMARK VINA RESULT:    -7.494      1.521      5.996
REMARK INTER + INTRA:          -8.902
REMARK INTER:                  -8.366
REMARK INTRA:                  -0.536
REMARK UNBOUND:                -0.531
REMARK  2 active torsions:
REMARK  status: ('A' for Active; 'I' for Inactive)
REMARK    1  A    between atoms: C5_4  and  O7_13 
REMARK    2  A    between atoms: C8_10  and  O7_13 
ROOT
HETATM    1  O7    D T 302       6.693   0.900  -6.860  1.00 10.35    -0.304 OA
ENDROOT
BRANCH   1   2
HETATM    2  C5    D T 302       6.880   1.197  -8.215  1.00 11.31     0.125 A 
HETATM    3  C6    D T 302       8.101   1.713  -8.601  1.00 12.21     0.154 A 
HETATM    4  C1    D T 302       8.336   2.001  -9.946  1.00 14.36     0.041 A 
HETATM    5  O17   D T 302       9.079   1.938  -7.614  1.00 12.31    -0.188 OA
HETATM    6  C2    D T 302       7.336   1.761 -10.885  1.00 10.74     0.060 A 
HETATM    7  C3    D T 302       6.105   1.246 -10.487  1.00 14.97     0.014 A 
HETATM    8 CL14   D T 302       7.625   2.137 -12.569  1.00 13.78    -0.082 Cl
HETATM    9  C4    D T 302       5.879   0.955  -9.146  1.00 12.53     0.028 A 
ENDBRANCH   1   2
BRANCH   1  10
HETATM   10  C8    D T 302       5.823   1.759  -6.172  1.00 14.58     0.111 A 
HETATM   11  C9    D T 302       4.640   1.198  -5.716  1.00 16.10     0.081 A 
HETATM   12  C10   D T 302       3.706   1.954  -5.042  1.00 12.30     0.025 A 
HETATM   13 CL16   D T 302       4.318  -0.489  -6.014  1.00 18.17    -0.080 Cl
HETATM   14  C11   D T 302       3.957   3.287  -4.823  1.00 13.57     0.059 A 
HETATM   15  C12   D T 302       5.143   3.872  -5.268  1.00 15.73     0.013 A 
HETATM   16 CL15   D T 302       2.745   4.209  -3.984  1.00 17.72    -0.082 Cl
HETATM   17  C13   D T 302       6.089   3.106  -5.943  1.00 14.41     0.026 A 
ENDBRANCH   1  10
TORSDOF 2
ENDMDL
MODEL 3
REMARK VINA RESULT:    -7.320      1.576      2.089
REMARK INTER + INTRA:          -8.707
REMARK INTER:                  -8.536
REMARK INTRA:                  -0.172
REMARK UNBOUND:                -0.531
REMARK  2 active torsions:
REMARK  status: ('A' for Active; 'I' for Inactive)
REMARK    1  A    between atoms: C5_4  and  O7_13 
REMARK    2  A    between atoms: C8_10  and  O7_13 
ROOT
HETATM    1  O7    D T 302       5.780   0.516  -7.188  1.00 10.35    -0.304 OA
ENDROOT
BRANCH   1   2
HETATM    2  C5    D T 302       5.127   1.500  -6.437  1.00 11.31     0.125 A 
HETATM    3  C6    D T 302       4.127   1.097  -5.576  1.00 12.21     0.154 A 
HETATM    4  C1    D T 302       3.466   2.044  -4.792  1.00 14.36     0.041 A 
HETATM    5  O17   D T 302       3.797  -0.270  -5.518  1.00 12.31    -0.188 OA
HETATM    6  C2    D T 302       3.828   3.386  -4.885  1.00 10.74     0.060 A 
HETATM    7  C3    D T 302       4.835   3.785  -5.760  1.00 14.97     0.014 A 
HETATM    8 CL14   D T 302       2.990   4.576  -3.913  1.00 13.78    -0.082 Cl
HETATM    9  C4    D T 302       5.494   2.836  -6.534  1.00 12.53     0.028 A 
ENDBRANCH   1   2
BRANCH   1  10
HETATM   10  C8    D T 302       6.292   0.944  -8.422  1.00 14.58     0.111 A 
HETATM   11  C9    D T 302       5.402   0.963  -9.484  1.00 16.10     0.081 A 
HETATM   12  C10   D T 302       5.804   1.352 -10.744  1.00 12.30     0.025 A 
HETATM   13 CL16   D T 302       3.750   0.472  -9.229  1.00 18.17    -0.080 Cl
HETATM   14  C11   D T 302       7.111   1.723 -10.943  1.00 13.57     0.059 A 
HETATM   15  C12   D T 302       8.024   1.717  -9.889  1.00 15.73     0.013 A 
HETATM   16 CL15   D T 302       7.580   2.190 -12.552  1.00 17.72    -0.082 Cl
HETATM   17  C13   D T 302       7.616   1.331  -8.615  1.00 14.41     0.026 A 
ENDBRANCH   1  10
TORSDOF 2
ENDMDL
MODEL 4
REMARK VINA RESULT:    -7.146      1.975      2.322
REMARK INTER + INTRA:          -8.513
REMARK INTER:                  -7.997
REMARK INTRA:                  -0.516
REMARK UNBOUND:                -0.531
REMARK  2 active torsions:
REMARK  status: ('A' for Active; 'I' for Inactive)
REMARK    1  A    between atoms: C5_4  and  O7_13 
REMARK    2  A    between atoms: C8_10  and  O7_13 
ROOT
HETATM    1  O7    D T 302       6.807   3.504  -6.451  1.00 10.35    -0.304 OA
ENDROOT
BRANCH   1   2
HETATM    2  C5    D T 302       6.026   2.656  -5.658  1.00 11.31     0.125 A 
HETATM    3  C6    D T 302       4.928   3.197  -5.020  1.00 12.21     0.154 A 
HETATM    4  C1    D T 302       4.111   2.380  -4.237  1.00 14.36     0.041 A 
HETATM    5  O17   D T 302       4.668   4.572  -5.176  1.00 12.31    -0.188 OA
HETATM    6  C2    D T 302       4.410   1.025  -4.113  1.00 10.74     0.060 A 
HETATM    7  C3    D T 302       5.522   0.488  -4.756  1.00 14.97     0.014 A 
HETATM    8 CL14   D T 302       3.394   0.004  -3.120  1.00 13.78    -0.082 Cl
HETATM    9  C4    D T 302       6.330   1.306  -5.538  1.00 12.53     0.028 A 
ENDBRANCH   1   2
BRANCH   1  10
HETATM   10  C8    D T 302       6.860   3.172  -7.813  1.00 14.58     0.111 A 
HETATM   11  C9    D T 302       8.065   2.665  -8.275  1.00 16.10     0.081 A 
HETATM   12  C10   D T 302       8.231   2.320  -9.599  1.00 12.30     0.025 A 
HETATM   13 CL16   D T 302       9.397   2.474  -7.169  1.00 18.17    -0.080 Cl
HETATM   14  C11   D T 302       7.182   2.488 -10.470  1.00 13.57     0.059 A 
HETATM   15  C12   D T 302       5.960   2.991 -10.027  1.00 15.73     0.013 A 
HETATM   16 CL15   D T 302       7.441   2.057 -12.135  1.00 17.72    -0.082 Cl
HETATM   17  C13   D T 302       5.789   3.332  -8.688  1.00 14.41     0.026 A 
ENDBRANCH   1  10
TORSDOF 2
ENDMDL
MODEL 5
REMARK VINA RESULT:    -7.107      2.099      5.945
REMARK INTER + INTRA:          -8.469
REMARK INTER:                  -7.967
REMARK INTRA:                  -0.502
REMARK UNBOUND:                -0.531
REMARK  2 active torsions:
REMARK  status: ('A' for Active; 'I' for Inactive)
REMARK    1  A    between atoms: C5_4  and  O7_13 
REMARK    2  A    between atoms: C8_10  and  O7_13 
ROOT
HETATM    1  O7    D T 302       6.686   3.481  -6.558  1.00 10.35    -0.304 OA
ENDROOT
BRANCH   1   2
HETATM    2  C5    D T 302       6.846   3.140  -7.906  1.00 11.31     0.125 A 
HETATM    3  C6    D T 302       8.086   2.693  -8.315  1.00 12.21     0.154 A 
HETATM    4  C1    D T 302       8.283   2.321  -9.646  1.00 14.36     0.041 A 
HETATM    5  O17   D T 302       9.127   2.631  -7.368  1.00 12.31    -0.188 OA
HETATM    6  C2    D T 302       7.222   2.401 -10.545  1.00 10.74     0.060 A 
HETATM    7  C3    D T 302       5.976   2.858 -10.126  1.00 14.97     0.014 A 
HETATM    8 CL14   D T 302       7.472   1.950 -12.217  1.00 13.78    -0.082 Cl
HETATM    9  C4    D T 302       5.785   3.222  -8.797  1.00 12.53     0.028 A 
ENDBRANCH   1   2
BRANCH   1  10
HETATM   10  C8    D T 302       5.982   2.548  -5.782  1.00 14.58     0.111 A 
HETATM   11  C9    D T 302       4.801   2.991  -5.208  1.00 16.10     0.081 A 
HETATM   12  C10   D T 302       4.038   2.161  -4.415  1.00 12.30     0.025 A 
HETATM   13 CL16   D T 302       4.277   4.631  -5.480  1.00 18.17    -0.080 Cl
HETATM   14  C11   D T 302       4.464   0.875  -4.191  1.00 13.57     0.059 A 
HETATM   15  C12   D T 302       5.646   0.404  -4.762  1.00 15.73     0.013 A 
HETATM   16 CL15   D T 302       3.482  -0.133  -3.170  1.00 17.72    -0.082 Cl
HETATM   17  C13   D T 302       6.413   1.241  -5.570  1.00 14.41     0.026 A 
ENDBRANCH   1  10
TORSDOF 2
ENDMDL
MODEL 6
REMARK VINA RESULT:    -7.053      2.722      5.806
REMARK INTER + INTRA:          -8.409
REMARK INTER:                  -7.972
REMARK INTRA:                  -0.437
REMARK UNBOUND:                -0.531
REMARK  2 active torsions:
REMARK  status: ('A' for Active; 'I' for Inactive)
REMARK    1  A    between atoms: C5_4  and  O7_13 
REMARK    2  A    between atoms: C8_10  and  O7_13 
ROOT
HETATM    1  O7    D T 302       6.394   2.075  -7.426  1.00 10.35    -0.304 OA
ENDROOT
BRANCH   1   2
HETATM    2  C5    D T 302       6.681   2.042  -8.795  1.00 11.31     0.125 A 
HETATM    3  C6    D T 302       6.308   3.129  -9.560  1.00 12.21     0.154 A 
HETATM    4  C1    D T 302       6.596   3.146 -10.926  1.00 14.36     0.041 A 
HETATM    5  O17   D T 302       5.636   4.195  -8.933  1.00 12.31    -0.188 OA
HETATM    6  C2    D T 302       7.263   2.066 -11.500  1.00 10.74     0.060 A 
HETATM    7  C3    D T 302       7.632   0.971 -10.723  1.00 14.97     0.014 A 
HETATM    8 CL14   D T 302       7.610   2.080 -13.215  1.00 13.78    -0.082 Cl
HETATM    9  C4    D T 302       7.347   0.963  -9.362  1.00 12.53     0.028 A 
ENDBRANCH   1   2
BRANCH   1  10
HETATM   10  C8    D T 302       7.488   1.847  -6.577  1.00 14.58     0.111 A 
HETATM   11  C9    D T 302       7.344   0.826  -5.651  1.00 16.10     0.081 A 
HETATM   12  C10   D T 302       8.351   0.527  -4.759  1.00 12.30     0.025 A 
HETATM   13 CL16   D T 302       5.861  -0.086  -5.601  1.00 18.17    -0.080 Cl
HETATM   14  C11   D T 302       9.512   1.260  -4.792  1.00 13.57     0.059 A 
HETATM   15  C12   D T 302       9.682   2.288  -5.718  1.00 15.73     0.013 A 
HETATM   16 CL15   D T 302      10.750   0.861  -3.637  1.00 17.72    -0.082 Cl
HETATM   17  C13   D T 302       8.668   2.586  -6.624  1.00 14.41     0.026 A 
ENDBRANCH   1  10
TORSDOF 2
ENDMDL
MODEL 7
REMARK VINA RESULT:    -7.048      3.215      4.604
REMARK INTER + INTRA:          -8.403
REMARK INTER:                  -8.522
REMARK INTRA:                   0.119
REMARK UNBOUND:                -0.531
REMARK  2 active torsions:
REMARK  status: ('A' for Active; 'I' for Inactive)
REMARK    1  A    between atoms: C5_4  and  O7_13 
REMARK    2  A    between atoms: C8_10  and  O7_13 
ROOT
HETATM    1  O7    D T 302       7.650   1.508  -6.484  1.00 10.35    -0.304 OA
ENDROOT
BRANCH   1   2
HETATM    2  C5    D T 302       8.826   1.302  -5.754  1.00 11.31     0.125 A 
HETATM    3  C6    D T 302       8.812   1.607  -4.408  1.00 12.21     0.154 A 
HETATM    4  C1    D T 302       9.957   1.395  -3.638  1.00 14.36     0.041 A 
HETATM    5  O17   D T 302       7.632   2.134  -3.849  1.00 12.31    -0.188 OA
HETATM    6  C2    D T 302      11.100   0.872  -4.238  1.00 10.74     0.060 A 
HETATM    7  C3    D T 302      11.108   0.571  -5.597  1.00 14.97     0.014 A 
HETATM    8 CL14   D T 302      12.541   0.621  -3.276  1.00 13.78    -0.082 Cl
HETATM    9  C4    D T 302       9.962   0.780  -6.357  1.00 12.53     0.028 A 
ENDBRANCH   1   2
BRANCH   1  10
HETATM   10  C8    D T 302       7.821   1.639  -7.871  1.00 14.58     0.111 A 
HETATM   11  C9    D T 302       6.955   0.907  -8.668  1.00 16.10     0.081 A 
HETATM   12  C10   D T 302       7.044   0.951 -10.043  1.00 12.30     0.025 A 
HETATM   13 CL16   D T 302       5.743  -0.099  -7.922  1.00 18.17    -0.080 Cl
HETATM   14  C11   D T 302       8.011   1.732 -10.625  1.00 13.57     0.059 A 
HETATM   15  C12   D T 302       8.890   2.482  -9.844  1.00 15.73     0.013 A 
HETATM   16 CL15   D T 302       8.100   1.745 -12.362  1.00 17.72    -0.082 Cl
HETATM   17  C13   D T 302       8.795   2.444  -8.455  1.00 14.41     0.026 A 
ENDBRANCH   1  10
TORSDOF 2
ENDMDL
MODEL 8
REMARK VINA RESULT:    -7.020      2.288      6.134
REMARK INTER + INTRA:          -8.372
REMARK INTER:                  -7.882
REMARK INTRA:                  -0.490
REMARK UNBOUND:                -0.531
REMARK  2 active torsions:
REMARK  status: ('A' for Active; 'I' for Inactive)
REMARK    1  A    between atoms: C5_4  and  O7_13 
REMARK    2  A    between atoms: C8_10  and  O7_13 
ROOT
HETATM    1  O7    D T 302       4.203   1.919  -7.684  1.00 10.35    -0.304 OA
ENDROOT
BRANCH   1   2
HETATM    2  C5    D T 302       5.224   1.749  -8.626  1.00 11.31     0.125 A 
HETATM    3  C6    D T 302       5.405   2.743  -9.567  1.00 12.21     0.154 A 
HETATM    4  C1    D T 302       6.427   2.624 -10.511  1.00 14.36     0.041 A 
HETATM    5  O17   D T 302       4.542   3.855  -9.548  1.00 12.31    -0.188 OA
HETATM    6  C2    D T 302       7.255   1.504 -10.488  1.00 10.74     0.060 A 
HETATM    7  C3    D T 302       7.062   0.503  -9.539  1.00 14.97     0.014 A 
HETATM    8 CL14   D T 302       8.526   1.347 -11.681  1.00 13.78    -0.082 Cl
HETATM    9  C4    D T 302       6.046   0.631  -8.598  1.00 12.53     0.028 A 
ENDBRANCH   1   2
BRANCH   1  10
HETATM   10  C8    D T 302       4.628   2.283  -6.397  1.00 14.58     0.111 A 
HETATM   11  C9    D T 302       4.522   1.309  -5.416  1.00 16.10     0.081 A 
HETATM   12  C10   D T 302       4.896   1.565  -4.115  1.00 12.30     0.025 A 
HETATM   13 CL16   D T 302       3.889  -0.261  -5.829  1.00 18.17    -0.080 Cl
HETATM   14  C11   D T 302       5.379   2.809  -3.791  1.00 13.57     0.059 A 
HETATM   15  C12   D T 302       5.500   3.803  -4.762  1.00 15.73     0.013 A 
HETATM   16 CL15   D T 302       5.824   3.095  -2.134  1.00 17.72    -0.082 Cl
HETATM   17  C13   D T 302       5.129   3.543  -6.078  1.00 14.41     0.026 A 
ENDBRANCH   1  10
TORSDOF 2
ENDMDL
MODEL 9
REMARK VINA RESULT:    -6.901      2.325      3.331
REMARK INTER + INTRA:          -8.240
REMARK INTER:                  -7.722
REMARK INTRA:                  -0.517
REMARK UNBOUND:                -0.531
REMARK  2 active torsions:
REMARK  status: ('A' for Active; 'I' for Inactive)
REMARK    1  A    between atoms: C5_4  and  O7_13 
REMARK    2  A    between atoms: C8_10  and  O7_13 
ROOT
HETATM    1  O7    D T 302       5.491   0.914  -4.532  1.00 10.35    -0.304 OA
ENDROOT
BRANCH   1   2
HETATM    2  C5    D T 302       4.851   2.066  -4.060  1.00 11.31     0.125 A 
HETATM    3  C6    D T 302       5.533   2.862  -3.163  1.00 12.21     0.154 A 
HETATM    4  C1    D T 302       4.940   4.031  -2.685  1.00 14.36     0.041 A 
HETATM    5  O17   D T 302       6.818   2.462  -2.749  1.00 12.31    -0.188 OA
HETATM    6  C2    D T 302       3.666   4.384  -3.125  1.00 10.74     0.060 A 
HETATM    7  C3    D T 302       2.982   3.573  -4.026  1.00 14.97     0.014 A 
HETATM    8 CL14   D T 302       2.916   5.843  -2.515  1.00 13.78    -0.082 Cl
HETATM    9  C4    D T 302       3.581   2.412  -4.503  1.00 12.53     0.028 A 
ENDBRANCH   1   2
BRANCH   1  10
HETATM   10  C8    D T 302       5.962   0.986  -5.851  1.00 14.58     0.111 A 
HETATM   11  C9    D T 302       5.342   0.156  -6.772  1.00 16.10     0.081 A 
HETATM   12  C10   D T 302       5.737   0.136  -8.092  1.00 12.30     0.025 A 
HETATM   13 CL16   D T 302       4.052  -0.893  -6.251  1.00 18.17    -0.080 Cl
HETATM   14  C11   D T 302       6.765   0.953  -8.495  1.00 13.57     0.059 A 
HETATM   15  C12   D T 302       7.401   1.800  -7.588  1.00 15.73     0.013 A 
HETATM   16 CL15   D T 302       7.243   0.884 -10.165  1.00 17.72    -0.082 Cl
HETATM   17  C13   D T 302       6.997   1.826  -6.255  1.00 14.41     0.026 A 
ENDBRANCH   1  10
TORSDOF 2
ENDMDL
