MODEL 1
REMARK VINA RESULT:    -7.496      0.000      0.000
REMARK INTER + INTRA:          -8.864
REMARK INTER:                  -8.373
REMARK INTRA:                  -0.491
REMARK UNBOUND:                -0.491
REMARK  2 active torsions:
REMARK  status: ('A' for Active; 'I' for Inactive)
REMARK    1  A    between atoms: C5_4  and  O7_13 
REMARK    2  A    between atoms: C8_10  and  O7_13 
ROOT
HETATM    1  O7    D T 302       5.971   1.628  -7.848  1.00 10.35    -0.304 OA
ENDROOT
BRANCH   1   2
HETATM    2  C5    D T 302       6.333   1.498  -9.195  1.00 11.31     0.125 A 
HETATM    3  C6    D T 302       5.890   2.462 -10.078  1.00 12.21     0.154 A 
HETATM    4  C1    D T 302       6.248   2.383 -11.425  1.00 14.36     0.041 A 
HETATM    5  O17   D T 302       5.078   3.503  -9.589  1.00 12.31    -0.188 OA
HETATM    6  C2    D T 302       7.054   1.333 -11.861  1.00 10.74     0.060 A 
HETATM    7  C3    D T 302       7.492   0.363 -10.963  1.00 14.97     0.014 A 
HETATM    8 CL14   D T 302       7.491   1.224 -13.551  1.00 13.78    -0.082 Cl
HETATM    9  C4    D T 302       7.137   0.450  -9.622  1.00 12.53     0.028 A 
ENDBRANCH   1   2
BRANCH   1  10
HETATM   10  C8    D T 302       7.040   1.668  -6.941  1.00 14.58     0.111 A 
HETATM   11  C9    D T 302       7.049   0.689  -5.960  1.00 16.10     0.081 A 
HETATM   12  C10   D T 302       8.045   0.645  -5.007  1.00 12.30     0.025 A 
HETATM   13 CL16   D T 302       5.775  -0.498  -5.919  1.00 18.17    -0.080 Cl
HETATM   14  C11   D T 302       9.039   1.593  -5.036  1.00 13.57     0.059 A 
HETATM   15  C12   D T 302       9.053   2.584  -6.016  1.00 15.73     0.013 A 
HETATM   16 CL15   D T 302      10.266   1.512  -3.806  1.00 17.72    -0.082 Cl
HETATM   17  C13   D T 302       8.052   2.624  -6.982  1.00 14.41     0.026 A 
ENDBRANCH   1  10
TORSDOF 2
ENDMDL
MODEL 2
REMARK VINA RESULT:    -7.409      2.636      5.867
REMARK INTER + INTRA:          -8.767
REMARK INTER:                  -8.239
REMARK INTRA:                  -0.528
REMARK UNBOUND:                -0.491
REMARK  2 active torsions:
REMARK  status: ('A' for Active; 'I' for Inactive)
REMARK    1  A    between atoms: C5_4  and  O7_13 
REMARK    2  A    between atoms: C8_10  and  O7_13 
ROOT
HETATM    1  O7    D T 302       5.638   0.436  -7.567  1.00 10.35    -0.304 OA
ENDROOT
BRANCH   1   2
HETATM    2  C5    D T 302       5.447   1.554  -6.744  1.00 11.31     0.125 A 
HETATM    3  C6    D T 302       6.176   1.626  -5.574  1.00 12.21     0.154 A 
HETATM    4  C1    D T 302       6.034   2.734  -4.737  1.00 14.36     0.041 A 
HETATM    5  O17   D T 302       7.048   0.567  -5.256  1.00 12.31    -0.188 OA
HETATM    6  C2    D T 302       5.158   3.757  -5.096  1.00 10.74     0.060 A 
HETATM    7  C3    D T 302       4.423   3.673  -6.276  1.00 14.97     0.014 A 
HETATM    8 CL14   D T 302       4.967   5.139  -4.041  1.00 13.78    -0.082 Cl
HETATM    9  C4    D T 302       4.574   2.570  -7.108  1.00 12.53     0.028 A 
ENDBRANCH   1   2
BRANCH   1  10
HETATM   10  C8    D T 302       6.173   0.710  -8.834  1.00 14.58     0.111 A 
HETATM   11  C9    D T 302       5.316   0.545  -9.911  1.00 16.10     0.081 A 
HETATM   12  C10   D T 302       5.744   0.771 -11.202  1.00 12.30     0.025 A 
HETATM   13 CL16   D T 302       3.676   0.029  -9.632  1.00 18.17    -0.080 Cl
HETATM   14  C11   D T 302       7.042   1.163 -11.417  1.00 13.57     0.059 A 
HETATM   15  C12   D T 302       7.921   1.340 -10.350  1.00 15.73     0.013 A 
HETATM   16 CL15   D T 302       7.545   1.420 -13.062  1.00 17.72    -0.082 Cl
HETATM   17  C13   D T 302       7.488   1.119  -9.045  1.00 14.41     0.026 A 
ENDBRANCH   1  10
TORSDOF 2
ENDMDL
MODEL 3
REMARK VINA RESULT:    -7.226      2.847      3.294
REMARK INTER + INTRA:          -8.561
REMARK INTER:                  -8.350
REMARK INTRA:                  -0.211
REMARK UNBOUND:                -0.491
REMARK  2 active torsions:
REMARK  status: ('A' for Active; 'I' for Inactive)
REMARK    1  A    between atoms: C5_4  and  O7_13 
REMARK    2  A    between atoms: C8_10  and  O7_13 
ROOT
HETATM    1  O7    D T 302       5.844   0.243  -7.515  1.00 10.35    -0.304 OA
ENDROOT
BRANCH   1   2
HETATM    2  C5    D T 302       6.268   0.543  -8.816  1.00 11.31     0.125 A 
HETATM    3  C6    D T 302       5.338   0.465  -9.833  1.00 12.21     0.154 A 
HETATM    4  C1    D T 302       5.713   0.779 -11.140  1.00 14.36     0.041 A 
HETATM    5  O17   D T 302       4.026   0.062  -9.517  1.00 12.31    -0.188 OA
HETATM    6  C2    D T 302       7.023   1.172 -11.402  1.00 10.74     0.060 A 
HETATM    7  C3    D T 302       7.957   1.244 -10.371  1.00 14.97     0.014 A 
HETATM    8 CL14   D T 302       7.499   1.551 -13.042  1.00 13.78    -0.082 Cl
HETATM    9  C4    D T 302       7.575   0.936  -9.070  1.00 12.53     0.028 A 
ENDBRANCH   1   2
BRANCH   1  10
HETATM   10  C8    D T 302       5.215   1.294  -6.832  1.00 14.58     0.111 A 
HETATM   11  C9    D T 302       4.079   0.963  -6.110  1.00 16.10     0.081 A 
HETATM   12  C10   D T 302       3.373   1.922  -5.415  1.00 12.30     0.025 A 
HETATM   13 CL16   D T 302       3.523  -0.687  -6.091  1.00 18.17    -0.080 Cl
HETATM   14  C11   D T 302       3.808   3.225  -5.445  1.00 13.57     0.059 A 
HETATM   15  C12   D T 302       4.950   3.580  -6.161  1.00 15.73     0.013 A 
HETATM   16 CL15   D T 302       2.879   4.406  -4.569  1.00 17.72    -0.082 Cl
HETATM   17  C13   D T 302       5.667   2.611  -6.857  1.00 14.41     0.026 A 
ENDBRANCH   1  10
TORSDOF 2
ENDMDL
MODEL 4
REMARK VINA RESULT:    -7.141      3.105      6.143
REMARK INTER + INTRA:          -8.467
REMARK INTER:                  -8.123
REMARK INTRA:                  -0.343
REMARK UNBOUND:                -0.491
REMARK  2 active torsions:
REMARK  status: ('A' for Active; 'I' for Inactive)
REMARK    1  A    between atoms: C5_4  and  O7_13 
REMARK    2  A    between atoms: C8_10  and  O7_13 
ROOT
HETATM    1  O7    D T 302       5.506   0.323  -6.714  1.00 10.35    -0.304 OA
ENDROOT
BRANCH   1   2
HETATM    2  C5    D T 302       4.776   1.343  -6.090  1.00 11.31     0.125 A 
HETATM    3  C6    D T 302       3.891   0.986  -5.092  1.00 12.21     0.154 A 
HETATM    4  C1    D T 302       3.161   1.973  -4.429  1.00 14.36     0.041 A 
HETATM    5  O17   D T 302       3.747  -0.379  -4.775  1.00 12.31    -0.188 OA
HETATM    6  C2    D T 302       3.338   3.310  -4.780  1.00 10.74     0.060 A 
HETATM    7  C3    D T 302       4.229   3.660  -5.791  1.00 14.97     0.014 A 
HETATM    8 CL14   D T 302       2.412   4.547  -3.960  1.00 13.78    -0.082 Cl
HETATM    9  C4    D T 302       4.958   2.672  -6.444  1.00 12.53     0.028 A 
ENDBRANCH   1   2
BRANCH   1  10
HETATM   10  C8    D T 302       5.717   0.493  -8.090  1.00 14.58     0.111 A 
HETATM   11  C9    D T 302       6.997   0.861  -8.473  1.00 16.10     0.081 A 
HETATM   12  C10   D T 302       7.310   1.070  -9.800  1.00 12.30     0.025 A 
HETATM   13 CL16   D T 302       8.228   1.079  -7.260  1.00 18.17    -0.080 Cl
HETATM   14  C11   D T 302       6.332   0.911 -10.751  1.00 13.57     0.059 A 
HETATM   15  C12   D T 302       5.039   0.536 -10.389  1.00 15.73     0.013 A 
HETATM   16 CL15   D T 302       6.765   1.202 -12.410  1.00 17.72    -0.082 Cl
HETATM   17  C13   D T 302       4.724   0.318  -9.051  1.00 14.41     0.026 A 
ENDBRANCH   1  10
TORSDOF 2
ENDMDL
MODEL 5
REMARK VINA RESULT:    -6.967      2.800      3.812
REMARK INTER + INTRA:          -8.272
REMARK INTER:                  -7.781
REMARK INTRA:                  -0.491
REMARK UNBOUND:                -0.491
REMARK  2 active torsions:
REMARK  status: ('A' for Active; 'I' for Inactive)
REMARK    1  A    between atoms: C5_4  and  O7_13 
REMARK    2  A    between atoms: C8_10  and  O7_13 
ROOT
HETATM    1  O7    D T 302       5.829   3.201  -6.681  1.00 10.35    -0.304 OA
ENDROOT
BRANCH   1   2
HETATM    2  C5    D T 302       6.050   2.715  -7.977  1.00 11.31     0.125 A 
HETATM    3  C6    D T 302       7.344   2.394  -8.333  1.00 12.21     0.154 A 
HETATM    4  C1    D T 302       7.605   1.885  -9.606  1.00 14.36     0.041 A 
HETATM    5  O17   D T 302       8.373   2.596  -7.393  1.00 12.31    -0.188 OA
HETATM    6  C2    D T 302       6.553   1.703 -10.501  1.00 10.74     0.060 A 
HETATM    7  C3    D T 302       5.251   2.035 -10.135  1.00 14.97     0.014 A 
HETATM    8 CL14   D T 302       6.880   1.080 -12.103  1.00 13.78    -0.082 Cl
HETATM    9  C4    D T 302       4.997   2.536  -8.863  1.00 12.53     0.028 A 
ENDBRANCH   1   2
BRANCH   1  10
HETATM   10  C8    D T 302       5.220   2.297  -5.798  1.00 14.58     0.111 A 
HETATM   11  C9    D T 302       4.068   2.738  -5.167  1.00 16.10     0.081 A 
HETATM   12  C10   D T 302       3.398   1.936  -4.267  1.00 12.30     0.025 A 
HETATM   13 CL16   D T 302       3.463   4.337  -5.501  1.00 18.17    -0.080 Cl
HETATM   14  C11   D T 302       3.887   0.682  -3.996  1.00 13.57     0.059 A 
HETATM   15  C12   D T 302       5.041   0.215  -4.623  1.00 15.73     0.013 A 
HETATM   16 CL15   D T 302       3.022  -0.290  -2.842  1.00 17.72    -0.082 Cl
HETATM   17  C13   D T 302       5.714   1.021  -5.537  1.00 14.41     0.026 A 
ENDBRANCH   1  10
TORSDOF 2
ENDMDL
MODEL 6
REMARK VINA RESULT:    -6.961      1.963      2.985
REMARK INTER + INTRA:          -8.265
REMARK INTER:                  -7.891
REMARK INTRA:                  -0.375
REMARK UNBOUND:                -0.491
REMARK  2 active torsions:
REMARK  status: ('A' for Active; 'I' for Inactive)
REMARK    1  A    between atoms: C5_4  and  O7_13 
REMARK    2  A    between atoms: C8_10  and  O7_13 
ROOT
HETATM    1  O7    D T 302       6.385   3.129  -7.290  1.00 10.35    -0.304 OA
ENDROOT
BRANCH   1   2
HETATM    2  C5    D T 302       6.606   2.611  -8.573  1.00 11.31     0.125 A 
HETATM    3  C6    D T 302       5.786   3.046  -9.595  1.00 12.21     0.154 A 
HETATM    4  C1    D T 302       5.987   2.573 -10.892  1.00 14.36     0.041 A 
HETATM    5  O17   D T 302       4.757   3.958  -9.292  1.00 12.31    -0.188 OA
HETATM    6  C2    D T 302       7.019   1.670 -11.141  1.00 10.74     0.060 A 
HETATM    7  C3    D T 302       7.839   1.234 -10.104  1.00 14.97     0.014 A 
HETATM    8 CL14   D T 302       7.263   1.065 -12.764  1.00 13.78    -0.082 Cl
HETATM    9  C4    D T 302       7.637   1.713  -8.814  1.00 12.53     0.028 A 
ENDBRANCH   1   2
BRANCH   1  10
HETATM   10  C8    D T 302       5.642   2.306  -6.432  1.00 14.58     0.111 A 
HETATM   11  C9    D T 302       6.322   1.781  -5.345  1.00 16.10     0.081 A 
HETATM   12  C10   D T 302       5.692   0.945  -4.446  1.00 12.30     0.025 A 
HETATM   13 CL16   D T 302       8.005   2.168  -5.115  1.00 18.17    -0.080 Cl
HETATM   14  C11   D T 302       4.370   0.632  -4.640  1.00 13.57     0.059 A 
HETATM   15  C12   D T 302       3.663   1.152  -5.723  1.00 15.73     0.013 A 
HETATM   16 CL15   D T 302       3.618  -0.438  -3.493  1.00 17.72    -0.082 Cl
HETATM   17  C13   D T 302       4.297   2.001  -6.627  1.00 14.41     0.026 A 
ENDBRANCH   1  10
TORSDOF 2
ENDMDL
MODEL 7
REMARK VINA RESULT:    -6.911      2.641      6.101
REMARK INTER + INTRA:          -8.210
REMARK INTER:                  -7.742
REMARK INTRA:                  -0.468
REMARK UNBOUND:                -0.491
REMARK  2 active torsions:
REMARK  status: ('A' for Active; 'I' for Inactive)
REMARK    1  A    between atoms: C5_4  and  O7_13 
REMARK    2  A    between atoms: C8_10  and  O7_13 
ROOT
HETATM    1  O7    D T 302       6.145   3.248  -6.974  1.00 10.35    -0.304 OA
ENDROOT
BRANCH   1   2
HETATM    2  C5    D T 302       5.475   2.392  -6.090  1.00 11.31     0.125 A 
HETATM    3  C6    D T 302       6.167   1.932  -4.988  1.00 12.21     0.154 A 
HETATM    4  C1    D T 302       5.529   1.096  -4.070  1.00 14.36     0.041 A 
HETATM    5  O17   D T 302       7.511   2.320  -4.825  1.00 12.31    -0.188 OA
HETATM    6  C2    D T 302       4.198   0.740  -4.276  1.00 10.74     0.060 A 
HETATM    7  C3    D T 302       3.509   1.206  -5.393  1.00 14.97     0.014 A 
HETATM    8 CL14   D T 302       3.401  -0.319  -3.134  1.00 13.78    -0.082 Cl
HETATM    9  C4    D T 302       4.148   2.043  -6.300  1.00 12.53     0.028 A 
ENDBRANCH   1   2
BRANCH   1  10
HETATM   10  C8    D T 302       6.421   2.707  -8.238  1.00 14.58     0.111 A 
HETATM   11  C9    D T 302       5.626   3.152  -9.282  1.00 16.10     0.081 A 
HETATM   12  C10   D T 302       5.801   2.674 -10.564  1.00 12.30     0.025 A 
HETATM   13 CL16   D T 302       4.375   4.324  -8.971  1.00 18.17    -0.080 Cl
HETATM   14  C11   D T 302       6.779   1.740 -10.801  1.00 13.57     0.059 A 
HETATM   15  C12   D T 302       7.594   1.281  -9.767  1.00 15.73     0.013 A 
HETATM   16 CL15   D T 302       6.954   1.150 -12.428  1.00 17.72    -0.082 Cl
HETATM   17  C13   D T 302       7.423   1.769  -8.474  1.00 14.41     0.026 A 
ENDBRANCH   1  10
TORSDOF 2
ENDMDL
MODEL 8
REMARK VINA RESULT:    -6.907      2.750      5.993
REMARK INTER + INTRA:          -8.205
REMARK INTER:                  -7.788
REMARK INTRA:                  -0.418
REMARK UNBOUND:                -0.491
REMARK  2 active torsions:
REMARK  status: ('A' for Active; 'I' for Inactive)
REMARK    1  A    between atoms: C5_4  and  O7_13 
REMARK    2  A    between atoms: C8_10  and  O7_13 
ROOT
HETATM    1  O7    D T 302       5.738   3.304  -6.690  1.00 10.35    -0.304 OA
ENDROOT
BRANCH   1   2
HETATM    2  C5    D T 302       5.134   2.429  -5.778  1.00 11.31     0.125 A 
HETATM    3  C6    D T 302       3.976   2.847  -5.153  1.00 12.21     0.154 A 
HETATM    4  C1    D T 302       3.330   1.996  -4.255  1.00 14.36     0.041 A 
HETATM    5  O17   D T 302       3.481   4.134  -5.439  1.00 12.31    -0.188 OA
HETATM    6  C2    D T 302       3.859   0.732  -4.004  1.00 10.74     0.060 A 
HETATM    7  C3    D T 302       5.030   0.321  -4.636  1.00 14.97     0.014 A 
HETATM    8 CL14   D T 302       3.059  -0.329  -2.867  1.00 13.78    -0.082 Cl
HETATM    9  C4    D T 302       5.666   1.171  -5.534  1.00 12.53     0.028 A 
ENDBRANCH   1   2
BRANCH   1  10
HETATM   10  C8    D T 302       5.963   2.775  -7.970  1.00 14.58     0.111 A 
HETATM   11  C9    D T 302       7.271   2.431  -8.270  1.00 16.10     0.081 A 
HETATM   12  C10   D T 302       7.607   1.917  -9.505  1.00 12.30     0.025 A 
HETATM   13 CL16   D T 302       8.517   2.664  -7.075  1.00 18.17    -0.080 Cl
HETATM   14  C11   D T 302       6.623   1.749 -10.448  1.00 13.57     0.059 A 
HETATM   15  C12   D T 302       5.299   2.083 -10.168  1.00 15.73     0.013 A 
HETATM   16 CL15   D T 302       7.092   1.114 -11.998  1.00 17.72    -0.082 Cl
HETATM   17  C13   D T 302       4.959   2.596  -8.918  1.00 14.41     0.026 A 
ENDBRANCH   1  10
TORSDOF 2
ENDMDL
MODEL 9
REMARK VINA RESULT:    -6.729      2.153      2.837
REMARK INTER + INTRA:          -8.006
REMARK INTER:                  -7.825
REMARK INTRA:                  -0.182
REMARK UNBOUND:                -0.491
REMARK  2 active torsions:
REMARK  status: ('A' for Active; 'I' for Inactive)
REMARK    1  A    between atoms: C5_4  and  O7_13 
REMARK    2  A    between atoms: C8_10  and  O7_13 
ROOT
HETATM    1  O7    D T 302       7.164   1.048  -5.849  1.00 10.35    -0.304 OA
ENDROOT
BRANCH   1   2
HETATM    2  C5    D T 302       7.100   1.072  -7.248  1.00 11.31     0.125 A 
HETATM    3  C6    D T 302       6.321   0.120  -7.875  1.00 12.21     0.154 A 
HETATM    4  C1    D T 302       6.210   0.122  -9.266  1.00 14.36     0.041 A 
HETATM    5  O17   D T 302       5.658  -0.838  -7.082  1.00 12.31    -0.188 OA
HETATM    6  C2    D T 302       6.885   1.090 -10.006  1.00 10.74     0.060 A 
HETATM    7  C3    D T 302       7.673   2.044  -9.366  1.00 14.97     0.014 A 
HETATM    8 CL14   D T 302       6.760   1.086 -11.751  1.00 13.78    -0.082 Cl
HETATM    9  C4    D T 302       7.774   2.040  -7.980  1.00 12.53     0.028 A 
ENDBRANCH   1   2
BRANCH   1  10
HETATM   10  C8    D T 302       8.458   1.080  -5.308  1.00 14.58     0.111 A 
HETATM   11  C9    D T 302       8.612   1.789  -4.127  1.00 16.10     0.081 A 
HETATM   12  C10   D T 302       9.844   1.898  -3.518  1.00 12.30     0.025 A 
HETATM   13 CL16   D T 302       7.231   2.568  -3.407  1.00 18.17    -0.080 Cl
HETATM   14  C11   D T 302      10.932   1.294  -4.098  1.00 13.57     0.059 A 
HETATM   15  C12   D T 302      10.801   0.572  -5.283  1.00 15.73     0.013 A 
HETATM   16 CL15   D T 302      12.471   1.471  -3.306  1.00 17.72    -0.082 Cl
HETATM   17  C13   D T 302       9.556   0.455  -5.895  1.00 14.41     0.026 A 
ENDBRANCH   1  10
TORSDOF 2
ENDMDL
