MODEL 1
REMARK VINA RESULT:    -8.436      0.000      0.000
REMARK INTER + INTRA:         -14.385
REMARK INTER:                 -12.874
REMARK INTRA:                  -1.511
REMARK UNBOUND:                -1.511
REMARK  9 active torsions:
REMARK  status: ('A' for Active; 'I' for Inactive)
REMARK    1  A    between atoms: O02_2  and  CAX_24 
REMARK    2  A    between atoms: CAC_3  and  CAM_13 
REMARK    3  A    between atoms: CAC_3  and  NBH_34 
REMARK    4  A    between atoms: CAM_13  and  CAN_14 
REMARK    5  A    between atoms: CAN_14  and  OAW_23 
REMARK    6  A    between atoms: NAU_21  and  CBB_28 
REMARK    7  A    between atoms: NAU_21  and  CBE_31 
REMARK    8  A    between atoms: OAV_22  and  CBC_29 
REMARK    9  A    between atoms: OAW_23  and  CBD_30 
ROOT
HETATM    1  NAD   D T 401      -0.855  13.266  -0.780  1.00 19.83    -0.191 NA
HETATM    2  CAG   D T 401       0.137  13.076  -0.234  1.00 22.89     0.104 C 
HETATM    3  CAH   D T 401       1.116  12.589   1.775  1.00 14.94     0.111 A 
HETATM    4  CAK   D T 401       4.539  12.107   2.894  1.00 20.70     0.045 A 
HETATM    5  CAL   D T 401       5.045  12.658   0.194  1.00 20.29     0.029 A 
HETATM    6  NAT   D T 401       2.201  12.345   2.533  1.00 16.88    -0.243 NA
HETATM    7  CBA   D T 401       1.261  12.868   0.402  1.00 16.47     0.105 A 
HETATM    8  CBC   D T 401       6.130  12.394   1.060  1.00 25.88     0.116 A 
HETATM    9  CBD   D T 401       5.862  12.117   2.419  1.00 27.06     0.118 A 
HETATM   10  CBE   D T 401       2.576  12.909  -0.184  1.00 22.24     0.094 A 
HETATM   11  CBF   D T 401       3.463  12.367   2.030  1.00 20.86     0.085 A 
HETATM   12  CBG   D T 401       3.698  12.649   0.656  1.00 20.86     0.038 A 
ENDROOT
BRANCH  10  13
HETATM   13  NAU   D T 401       2.790  13.191  -1.526  1.00 16.88    -0.244 NA
BRANCH  13  14
HETATM   14  CBB   D T 401       3.190  14.395  -2.036  1.00 19.80     0.094 A 
HETATM   15  CAJ   D T 401       2.464  15.577  -1.756  1.00 18.64     0.045 A 
HETATM   16  CAX   D T 401       2.885  16.802  -2.309  1.00 17.07     0.106 A 
HETATM   17  CAY   D T 401       4.017  16.851  -3.145  1.00 24.79     0.081 A 
HETATM   18 CL1    D T 401       4.482  18.343  -3.809  1.00 27.04    -0.080 Cl
HETATM   19  CAI   D T 401       4.744  15.685  -3.436  1.00 19.15     0.026 A 
HETATM   20  CAZ   D T 401       4.329  14.460  -2.883  1.00 21.66     0.076 A 
HETATM   21 CL2    D T 401       5.237  13.077  -3.261  1.00 21.61    -0.081 Cl
BRANCH  16  22
HETATM   22  O02   D T 401       2.216  17.975  -2.093  1.00 20.01    -0.327 OA
HETATM   23  C01   D T 401       2.601  18.727  -0.930  1.00 19.16     0.181 C 
ENDBRANCH  16  22
ENDBRANCH  13  14
ENDBRANCH  10  13
BRANCH   8  24
HETATM   24  OAV   D T 401       7.438  12.400   0.628  1.00 29.42    -0.326 OA
HETATM   25  CAA   D T 401       8.096  13.679   0.644  1.00 25.21     0.181 C 
ENDBRANCH   8  24
BRANCH   9  26
HETATM   26  OAW   D T 401       6.884  11.865   3.286  1.00 24.87    -0.329 OA
BRANCH  26  27
HETATM   27  CAN   D T 401       6.889  10.589   3.966  1.00 25.33     0.151 C 
BRANCH  27  28
HETATM   28  CAM   D T 401       7.855   9.679   3.156  1.00 30.63     0.068 C 
BRANCH  28  29
HETATM   29  CAC   D T 401       9.180  10.350   2.720  1.00 41.99     0.253 C 
BRANCH  29  30
HETATM   30  NBH   D T 401      10.258  10.344   3.778  1.00 46.77     0.141 N 
HETATM   31  CAP   D T 401      10.477  11.658   4.465  1.00 49.95     0.285 C 
HETATM   32  CAR   D T 401      11.718  11.591   5.387  1.00 58.84     0.285 C 
HETATM   33  NBI   D T 401      11.598  10.472   6.372  1.00 60.13     0.143 N 
HETATM   34  CAO   D T 401      12.720  10.466   7.350  1.00 54.26     0.285 C 
HETATM   35  CAS   D T 401      11.386   9.151   5.707  1.00 43.59     0.285 C 
HETATM   36  CAQ   D T 401      10.162   9.213   4.759  1.00 43.83     0.285 C 
ENDBRANCH  29  30
ENDBRANCH  28  29
ENDBRANCH  27  28
ENDBRANCH  26  27
ENDBRANCH   9  26
TORSDOF 9
ENDMDL
MODEL 2
REMARK VINA RESULT:    -7.880      1.850      2.793
REMARK INTER + INTRA:         -13.537
REMARK INTER:                 -12.850
REMARK INTRA:                  -0.687
REMARK UNBOUND:                -1.511
REMARK  9 active torsions:
REMARK  status: ('A' for Active; 'I' for Inactive)
REMARK    1  A    between atoms: O02_2  and  CAX_24 
REMARK    2  A    between atoms: CAC_3  and  CAM_13 
REMARK    3  A    between atoms: CAC_3  and  NBH_34 
REMARK    4  A    between atoms: CAM_13  and  CAN_14 
REMARK    5  A    between atoms: CAN_14  and  OAW_23 
REMARK    6  A    between atoms: NAU_21  and  CBB_28 
REMARK    7  A    between atoms: NAU_21  and  CBE_31 
REMARK    8  A    between atoms: OAV_22  and  CBC_29 
REMARK    9  A    between atoms: OAW_23  and  CBD_30 
ROOT
HETATM    1  NAD   D T 401      -1.089  13.336  -1.050  1.00 19.83    -0.191 NA
HETATM    2  CAG   D T 401      -0.115  13.140  -0.473  1.00 22.89     0.104 C 
HETATM    3  CAH   D T 401       0.807  12.750   1.584  1.00 14.94     0.111 A 
HETATM    4  CAK   D T 401       4.185  12.196   2.801  1.00 20.70     0.045 A 
HETATM    5  CAL   D T 401       4.761  12.538   0.080  1.00 20.29     0.029 A 
HETATM    6  NAT   D T 401       1.866  12.511   2.378  1.00 16.88    -0.243 NA
HETATM    7  CBA   D T 401       0.987  12.927   0.198  1.00 16.47     0.105 A 
HETATM    8  CBC   D T 401       5.818  12.287   0.983  1.00 25.88     0.116 A 
HETATM    9  CBD   D T 401       5.515  12.115   2.353  1.00 27.06     0.118 A 
HETATM   10  CBE   D T 401       2.312  12.871  -0.363  1.00 22.24     0.094 A 
HETATM   11  CBF   D T 401       3.137  12.443   1.900  1.00 20.86     0.085 A 
HETATM   12  CBG   D T 401       3.407  12.620   0.515  1.00 20.86     0.038 A 
ENDROOT
BRANCH  10  13
HETATM   13  NAU   D T 401       2.562  13.051  -1.717  1.00 16.88    -0.244 NA
BRANCH  13  14
HETATM   14  CBB   D T 401       3.373  14.008  -2.260  1.00 19.80     0.094 A 
HETATM   15  CAJ   D T 401       4.478  13.647  -3.067  1.00 18.64     0.045 A 
HETATM   16  CAX   D T 401       5.311  14.650  -3.599  1.00 17.07     0.106 A 
HETATM   17  CAY   D T 401       5.052  16.006  -3.322  1.00 24.79     0.081 A 
HETATM   18 CL1    D T 401       6.091  17.187  -3.965  1.00 27.04    -0.080 Cl
HETATM   19  CAI   D T 401       3.963  16.379  -2.519  1.00 19.15     0.026 A 
HETATM   20  CAZ   D T 401       3.126  15.380  -1.988  1.00 21.66     0.076 A 
HETATM   21 CL2    D T 401       1.822  15.875  -1.022  1.00 21.61    -0.081 Cl
BRANCH  16  22
HETATM   22  O02   D T 401       6.405  14.367  -4.370  1.00 20.01    -0.327 OA
HETATM   23  C01   D T 401       7.638  14.132  -3.671  1.00 19.16     0.181 C 
ENDBRANCH  16  22
ENDBRANCH  13  14
ENDBRANCH  10  13
BRANCH   8  24
HETATM   24  OAV   D T 401       7.132  12.206   0.579  1.00 29.42    -0.326 OA
HETATM   25  CAA   D T 401       7.776  13.459   0.289  1.00 25.21     0.181 C 
ENDBRANCH   8  24
BRANCH   9  26
HETATM   26  OAW   D T 401       6.509  11.879   3.254  1.00 24.87    -0.329 OA
BRANCH  26  27
HETATM   27  CAN   D T 401       6.712  10.515   3.689  1.00 25.33     0.151 C 
BRANCH  27  28
HETATM   28  CAM   D T 401       8.037  10.520   4.503  1.00 30.63     0.068 C 
BRANCH  28  29
HETATM   29  CAC   D T 401       9.206   9.734   3.860  1.00 41.99     0.253 C 
BRANCH  29  30
HETATM   30  NBH   D T 401      10.256  10.603   3.208  1.00 46.77     0.141 N 
HETATM   31  CAP   D T 401      10.087  10.797   1.731  1.00 49.95     0.285 C 
HETATM   32  CAR   D T 401      11.309  11.539   1.136  1.00 58.84     0.285 C 
HETATM   33  NBI   D T 401      11.542  12.840   1.836  1.00 60.13     0.143 N 
HETATM   34  CAO   D T 401      12.633  13.628   1.199  1.00 54.26     0.285 C 
HETATM   35  CAS   D T 401      11.720  12.668   3.309  1.00 43.59     0.285 C 
HETATM   36  CAQ   D T 401      10.516  11.901   3.913  1.00 43.83     0.285 C 
ENDBRANCH  29  30
ENDBRANCH  28  29
ENDBRANCH  27  28
ENDBRANCH  26  27
ENDBRANCH   9  26
TORSDOF 9
ENDMDL
MODEL 3
REMARK VINA RESULT:    -7.868      3.469      8.917
REMARK INTER + INTRA:         -13.518
REMARK INTER:                 -12.057
REMARK INTRA:                  -1.461
REMARK UNBOUND:                -1.511
REMARK  9 active torsions:
REMARK  status: ('A' for Active; 'I' for Inactive)
REMARK    1  A    between atoms: O02_2  and  CAX_24 
REMARK    2  A    between atoms: CAC_3  and  CAM_13 
REMARK    3  A    between atoms: CAC_3  and  NBH_34 
REMARK    4  A    between atoms: CAM_13  and  CAN_14 
REMARK    5  A    between atoms: CAN_14  and  OAW_23 
REMARK    6  A    between atoms: NAU_21  and  CBB_28 
REMARK    7  A    between atoms: NAU_21  and  CBE_31 
REMARK    8  A    between atoms: OAV_22  and  CBC_29 
REMARK    9  A    between atoms: OAW_23  and  CBD_30 
ROOT
HETATM    1  NAD   D T 401       1.941  10.658   1.329  1.00 19.83    -0.191 NA
HETATM    2  CAG   D T 401       2.091  11.660   0.787  1.00 22.89     0.104 C 
HETATM    3  CAH   D T 401       1.128  13.658   0.226  1.00 14.94     0.111 A 
HETATM    4  CAK   D T 401       2.219  16.578  -1.640  1.00 20.70     0.045 A 
HETATM    5  CAL   D T 401       4.534  15.020  -1.894  1.00 20.29     0.029 A 
HETATM    6  NAT   D T 401       1.172  14.865  -0.366  1.00 16.88    -0.243 NA
HETATM    7  CBA   D T 401       2.244  12.801   0.166  1.00 16.47     0.105 A 
HETATM    8  CBC   D T 401       4.495  16.301  -2.489  1.00 25.88     0.116 A 
HETATM    9  CBD   D T 401       3.322  17.078  -2.354  1.00 27.06     0.118 A 
HETATM   10  CBE   D T 401       3.425  13.213  -0.548  1.00 22.24     0.094 A 
HETATM   11  CBF   D T 401       2.262  15.306  -1.048  1.00 20.86     0.085 A 
HETATM   12  CBG   D T 401       3.427  14.499  -1.164  1.00 20.86     0.038 A 
ENDROOT
BRANCH  10  13
HETATM   13  NAU   D T 401       4.554  12.412  -0.658  1.00 16.88    -0.244 NA
BRANCH  13  14
HETATM   14  CBB   D T 401       5.597  12.376   0.225  1.00 19.80     0.094 A 
HETATM   15  CAJ   D T 401       5.397  11.970   1.566  1.00 18.64     0.045 A 
HETATM   16  CAX   D T 401       6.483  11.960   2.462  1.00 17.07     0.106 A 
HETATM   17  CAY   D T 401       7.762  12.361   2.030  1.00 24.79     0.081 A 
HETATM   18 CL1    D T 401       9.044  12.354   3.144  1.00 27.04    -0.080 Cl
HETATM   19  CAI   D T 401       7.975  12.771   0.703  1.00 19.15     0.026 A 
HETATM   20  CAZ   D T 401       6.893  12.780  -0.196  1.00 21.66     0.076 A 
HETATM   21 CL2    D T 401       7.195  13.283  -1.788  1.00 21.61    -0.081 Cl
BRANCH  16  22
HETATM   22  O02   D T 401       6.352  11.597   3.774  1.00 20.01    -0.327 OA
HETATM   23  C01   D T 401       5.409  10.550   4.058  1.00 19.16     0.181 C 
ENDBRANCH  16  22
ENDBRANCH  13  14
ENDBRANCH  10  13
BRANCH   8  24
HETATM   24  OAV   D T 401       5.556  16.818  -3.198  1.00 29.42    -0.326 OA
HETATM   25  CAA   D T 401       6.793  16.939  -2.475  1.00 25.21     0.181 C 
ENDBRANCH   8  24
BRANCH   9  26
HETATM   26  OAW   D T 401       3.246  18.314  -2.921  1.00 24.87    -0.329 OA
BRANCH  26  27
HETATM   27  CAN   D T 401       2.361  18.481  -4.052  1.00 25.33     0.151 C 
BRANCH  27  28
HETATM   28  CAM   D T 401       3.174  19.272  -5.116  1.00 30.63     0.068 C 
BRANCH  28  29
HETATM   29  CAC   D T 401       3.642  18.442  -6.336  1.00 41.99     0.253 C 
BRANCH  29  30
HETATM   30  NBH   D T 401       4.970  17.748  -6.144  1.00 46.77     0.141 N 
HETATM   31  CAP   D T 401       5.079  16.402  -6.795  1.00 49.95     0.285 C 
HETATM   32  CAR   D T 401       6.396  15.702  -6.381  1.00 58.84     0.285 C 
HETATM   33  NBI   D T 401       7.582  16.558  -6.692  1.00 60.13     0.143 N 
HETATM   34  CAO   D T 401       8.865  15.855  -6.419  1.00 54.26     0.285 C 
HETATM   35  CAS   D T 401       7.496  17.903  -6.045  1.00 43.59     0.285 C 
HETATM   36  CAQ   D T 401       6.168  18.603  -6.429  1.00 43.83     0.285 C 
ENDBRANCH  29  30
ENDBRANCH  28  29
ENDBRANCH  27  28
ENDBRANCH  26  27
ENDBRANCH   9  26
TORSDOF 9
ENDMDL
MODEL 4
REMARK VINA RESULT:    -7.867      3.774      9.196
REMARK INTER + INTRA:         -13.517
REMARK INTER:                 -12.222
REMARK INTRA:                  -1.295
REMARK UNBOUND:                -1.511
REMARK  9 active torsions:
REMARK  status: ('A' for Active; 'I' for Inactive)
REMARK    1  A    between atoms: O02_2  and  CAX_24 
REMARK    2  A    between atoms: CAC_3  and  CAM_13 
REMARK    3  A    between atoms: CAC_3  and  NBH_34 
REMARK    4  A    between atoms: CAM_13  and  CAN_14 
REMARK    5  A    between atoms: CAN_14  and  OAW_23 
REMARK    6  A    between atoms: NAU_21  and  CBB_28 
REMARK    7  A    between atoms: NAU_21  and  CBE_31 
REMARK    8  A    between atoms: OAV_22  and  CBC_29 
REMARK    9  A    between atoms: OAW_23  and  CBD_30 
ROOT
HETATM    1  NAD   D T 401       7.394  11.757   0.076  1.00 19.83    -0.191 NA
HETATM    2  CAG   D T 401       6.973  12.591  -0.592  1.00 22.89     0.104 C 
HETATM    3  CAH   D T 401       7.093  13.602  -2.641  1.00 14.94     0.111 A 
HETATM    4  CAK   D T 401       5.373  16.389  -4.214  1.00 20.70     0.045 A 
HETATM    5  CAL   D T 401       4.102  16.456  -1.718  1.00 20.29     0.029 A 
HETATM    6  NAT   D T 401       6.689  14.532  -3.525  1.00 16.88    -0.243 NA
HETATM    7  CBA   D T 401       6.509  13.543  -1.360  1.00 16.47     0.105 A 
HETATM    8  CBC   D T 401       3.738  17.401  -2.704  1.00 25.88     0.116 A 
HETATM    9  CBD   D T 401       4.386  17.357  -3.959  1.00 27.06     0.118 A 
HETATM   10  CBE   D T 401       5.493  14.495  -0.994  1.00 22.24     0.094 A 
HETATM   11  CBF   D T 401       5.730  15.450  -3.233  1.00 20.86     0.085 A 
HETATM   12  CBG   D T 401       5.097  15.466  -1.960  1.00 20.86     0.038 A 
ENDROOT
BRANCH  10  13
HETATM   13  NAU   D T 401       4.887  14.502   0.256  1.00 16.88    -0.244 NA
BRANCH  13  14
HETATM   14  CBB   D T 401       4.236  13.448   0.834  1.00 19.80     0.094 A 
HETATM   15  CAJ   D T 401       4.738  12.847   2.013  1.00 18.64     0.045 A 
HETATM   16  CAX   D T 401       4.061  11.749   2.579  1.00 17.07     0.106 A 
HETATM   17  CAY   D T 401       2.895  11.246   1.971  1.00 24.79     0.081 A 
HETATM   18 CL1    D T 401       2.116   9.909   2.673  1.00 27.04    -0.080 Cl
HETATM   19  CAI   D T 401       2.388  11.830   0.799  1.00 19.15     0.026 A 
HETATM   20  CAZ   D T 401       3.060  12.928   0.231  1.00 21.66     0.076 A 
HETATM   21 CL2    D T 401       2.412  13.601  -1.185  1.00 21.61    -0.081 Cl
BRANCH  16  22
HETATM   22  O02   D T 401       4.505  11.112   3.705  1.00 20.01    -0.327 OA
HETATM   23  C01   D T 401       5.907  10.798   3.754  1.00 19.16     0.181 C 
ENDBRANCH  16  22
ENDBRANCH  13  14
ENDBRANCH  10  13
BRANCH   8  24
HETATM   24  OAV   D T 401       2.779  18.365  -2.484  1.00 29.42    -0.326 OA
HETATM   25  CAA   D T 401       2.856  19.049  -1.221  1.00 25.21     0.181 C 
ENDBRANCH   8  24
BRANCH   9  26
HETATM   26  OAW   D T 401       4.067  18.257  -4.931  1.00 24.87    -0.329 OA
BRANCH  26  27
HETATM   27  CAN   D T 401       4.692  18.099  -6.225  1.00 25.33     0.151 C 
BRANCH  27  28
HETATM   28  CAM   D T 401       5.508  19.400  -6.466  1.00 30.63     0.068 C 
BRANCH  28  29
HETATM   29  CAC   D T 401       6.976  19.183  -6.907  1.00 41.99     0.253 C 
BRANCH  29  30
HETATM   30  NBH   D T 401       7.646  17.988  -6.271  1.00 46.77     0.141 N 
HETATM   31  CAP   D T 401       8.231  17.003  -7.238  1.00 49.95     0.285 C 
HETATM   32  CAR   D T 401       8.720  15.735  -6.495  1.00 58.84     0.285 C 
HETATM   33  NBI   D T 401       9.694  16.086  -5.415  1.00 60.13     0.143 N 
HETATM   34  CAO   D T 401      10.273  14.876  -4.771  1.00 54.26     0.285 C 
HETATM   35  CAS   D T 401       9.128  17.063  -4.436  1.00 43.59     0.285 C 
HETATM   36  CAQ   D T 401       8.608  18.325  -5.170  1.00 43.83     0.285 C 
ENDBRANCH  29  30
ENDBRANCH  28  29
ENDBRANCH  27  28
ENDBRANCH  26  27
ENDBRANCH   9  26
TORSDOF 9
ENDMDL
MODEL 5
REMARK VINA RESULT:    -7.831      5.757      9.870
REMARK INTER + INTRA:         -13.462
REMARK INTER:                 -11.164
REMARK INTRA:                  -2.299
REMARK UNBOUND:                -1.511
REMARK  9 active torsions:
REMARK  status: ('A' for Active; 'I' for Inactive)
REMARK    1  A    between atoms: O02_2  and  CAX_24 
REMARK    2  A    between atoms: CAC_3  and  CAM_13 
REMARK    3  A    between atoms: CAC_3  and  NBH_34 
REMARK    4  A    between atoms: CAM_13  and  CAN_14 
REMARK    5  A    between atoms: CAN_14  and  OAW_23 
REMARK    6  A    between atoms: NAU_21  and  CBB_28 
REMARK    7  A    between atoms: NAU_21  and  CBE_31 
REMARK    8  A    between atoms: OAV_22  and  CBC_29 
REMARK    9  A    between atoms: OAW_23  and  CBD_30 
ROOT
HETATM    1  NAD   D T 401       1.882  19.246  -3.053  1.00 19.83    -0.191 NA
HETATM    2  CAG   D T 401       2.746  18.777  -3.647  1.00 22.89     0.104 C 
HETATM    3  CAH   D T 401       3.647  18.465  -5.727  1.00 14.94     0.111 A 
HETATM    4  CAK   D T 401       6.589  16.755  -7.001  1.00 20.70     0.045 A 
HETATM    5  CAL   D T 401       6.904  16.177  -4.277  1.00 20.29     0.029 A 
HETATM    6  NAT   D T 401       4.598  17.972  -6.540  1.00 16.88    -0.243 NA
HETATM    7  CBA   D T 401       3.718  18.239  -4.338  1.00 16.47     0.105 A 
HETATM    8  CBC   D T 401       7.858  15.693  -5.200  1.00 25.88     0.116 A 
HETATM    9  CBD   D T 401       7.689  15.992  -6.571  1.00 27.06     0.118 A 
HETATM   10  CBE   D T 401       4.801  17.462  -3.795  1.00 22.24     0.094 A 
HETATM   11  CBF   D T 401       5.645  17.236  -6.080  1.00 20.86     0.085 A 
HETATM   12  CBG   D T 401       5.786  16.955  -4.693  1.00 20.86     0.038 A 
ENDROOT
BRANCH  10  13
HETATM   13  NAU   D T 401       4.923  17.191  -2.438  1.00 16.88    -0.244 NA
BRANCH  13  14
HETATM   14  CBB   D T 401       4.627  16.002  -1.832  1.00 19.80     0.094 A 
HETATM   15  CAJ   D T 401       3.405  15.338  -2.096  1.00 18.64     0.045 A 
HETATM   16  CAX   D T 401       3.114  14.125  -1.443  1.00 17.07     0.106 A 
HETATM   17  CAY   D T 401       4.030  13.578  -0.525  1.00 24.79     0.081 A 
HETATM   18 CL1    D T 401       3.636  12.122   0.258  1.00 27.04    -0.080 Cl
HETATM   19  CAI   D T 401       5.245  14.227  -0.249  1.00 19.15     0.026 A 
HETATM   20  CAZ   D T 401       5.541  15.438  -0.901  1.00 21.66     0.076 A 
HETATM   21 CL2    D T 401       7.018  16.188  -0.537  1.00 21.61    -0.081 Cl
BRANCH  16  22
HETATM   22  O02   D T 401       1.944  13.446  -1.640  1.00 20.01    -0.327 OA
HETATM   23  C01   D T 401       0.766  14.010  -1.041  1.00 19.16     0.181 C 
ENDBRANCH  16  22
ENDBRANCH  13  14
ENDBRANCH  10  13
BRANCH   8  24
HETATM   24  OAV   D T 401       8.944  14.939  -4.813  1.00 29.42    -0.326 OA
HETATM   25  CAA   D T 401       9.838  15.564  -3.877  1.00 25.21     0.181 C 
ENDBRANCH   8  24
BRANCH   9  26
HETATM   26  OAW   D T 401       8.584  15.536  -7.491  1.00 24.87    -0.329 OA
BRANCH  26  27
HETATM   27  CAN   D T 401       9.421  16.510  -8.155  1.00 25.33     0.151 C 
BRANCH  27  28
HETATM   28  CAM   D T 401      10.814  16.411  -7.472  1.00 30.63     0.068 C 
BRANCH  28  29
HETATM   29  CAC   D T 401      11.236  17.656  -6.655  1.00 41.99     0.253 C 
BRANCH  29  30
HETATM   30  NBH   D T 401      10.229  18.782  -6.674  1.00 46.77     0.141 N 
HETATM   31  CAP   D T 401       9.488  18.988  -5.387  1.00 49.95     0.285 C 
HETATM   32  CAR   D T 401       8.358  20.031  -5.570  1.00 58.84     0.285 C 
HETATM   33  NBI   D T 401       8.896  21.320  -6.105  1.00 60.13     0.143 N 
HETATM   34  CAO   D T 401       7.850  22.377  -6.171  1.00 54.26     0.285 C 
HETATM   35  CAS   D T 401       9.633  21.137  -7.392  1.00 43.59     0.285 C 
HETATM   36  CAQ   D T 401      10.750  20.075  -7.229  1.00 43.83     0.285 C 
ENDBRANCH  29  30
ENDBRANCH  28  29
ENDBRANCH  27  28
ENDBRANCH  26  27
ENDBRANCH   9  26
TORSDOF 9
ENDMDL
MODEL 6
REMARK VINA RESULT:    -7.699      4.271      8.922
REMARK INTER + INTRA:         -13.261
REMARK INTER:                 -12.082
REMARK INTRA:                  -1.179
REMARK UNBOUND:                -1.511
REMARK  9 active torsions:
REMARK  status: ('A' for Active; 'I' for Inactive)
REMARK    1  A    between atoms: O02_2  and  CAX_24 
REMARK    2  A    between atoms: CAC_3  and  CAM_13 
REMARK    3  A    between atoms: CAC_3  and  NBH_34 
REMARK    4  A    between atoms: CAM_13  and  CAN_14 
REMARK    5  A    between atoms: CAN_14  and  OAW_23 
REMARK    6  A    between atoms: NAU_21  and  CBB_28 
REMARK    7  A    between atoms: NAU_21  and  CBE_31 
REMARK    8  A    between atoms: OAV_22  and  CBC_29 
REMARK    9  A    between atoms: OAW_23  and  CBD_30 
ROOT
HETATM    1  NAD   D T 401       0.924  12.740   0.694  1.00 19.83    -0.191 NA
HETATM    2  CAG   D T 401       1.541  13.429   0.013  1.00 22.89     0.104 C 
HETATM    3  CAH   D T 401       1.609  15.455  -1.047  1.00 14.94     0.111 A 
HETATM    4  CAK   D T 401       4.009  17.126  -3.204  1.00 20.70     0.045 A 
HETATM    5  CAL   D T 401       5.400  14.728  -2.793  1.00 20.29     0.029 A 
HETATM    6  NAT   D T 401       2.225  16.359  -1.831  1.00 16.88    -0.243 NA
HETATM    7  CBA   D T 401       2.228  14.221  -0.770  1.00 16.47     0.105 A 
HETATM    8  CBC   D T 401       5.975  15.729  -3.606  1.00 25.88     0.116 A 
HETATM    9  CBD   D T 401       5.265  16.934  -3.806  1.00 27.06     0.118 A 
HETATM   10  CBE   D T 401       3.514  13.922  -1.344  1.00 22.24     0.094 A 
HETATM   11  CBF   D T 401       3.441  16.129  -2.394  1.00 20.86     0.085 A 
HETATM   12  CBG   D T 401       4.130  14.905  -2.171  1.00 20.86     0.038 A 
ENDROOT
BRANCH  10  13
HETATM   13  NAU   D T 401       4.173  12.719  -1.122  1.00 16.88    -0.244 NA
BRANCH  13  14
HETATM   14  CBB   D T 401       4.990  12.439  -0.062  1.00 19.80     0.094 A 
HETATM   15  CAJ   D T 401       4.461  12.307   1.244  1.00 18.64     0.045 A 
HETATM   16  CAX   D T 401       5.325  12.038   2.323  1.00 17.07     0.106 A 
HETATM   17  CAY   D T 401       6.710  11.909   2.106  1.00 24.79     0.081 A 
HETATM   18 CL1    D T 401       7.724  11.603   3.435  1.00 27.04    -0.080 Cl
HETATM   19  CAI   D T 401       7.250  12.043   0.816  1.00 19.15     0.026 A 
HETATM   20  CAZ   D T 401       6.390  12.309  -0.265  1.00 21.66     0.076 A 
HETATM   21 CL2    D T 401       7.085  12.463  -1.805  1.00 21.61    -0.081 Cl
BRANCH  16  22
HETATM   22  O02   D T 401       4.880  11.918   3.610  1.00 20.01    -0.327 OA
HETATM   23  C01   D T 401       4.471  10.604   4.027  1.00 19.16     0.181 C 
ENDBRANCH  16  22
ENDBRANCH  13  14
ENDBRANCH  10  13
BRANCH   8  24
HETATM   24  OAV   D T 401       7.201  15.573  -4.214  1.00 29.42    -0.326 OA
HETATM   25  CAA   D T 401       7.347  14.401  -5.036  1.00 25.21     0.181 C 
ENDBRANCH   8  24
BRANCH   9  26
HETATM   26  OAW   D T 401       5.785  17.920  -4.591  1.00 24.87    -0.329 OA
BRANCH  26  27
HETATM   27  CAN   D T 401       5.097  18.231  -5.823  1.00 25.33     0.151 C 
BRANCH  27  28
HETATM   28  CAM   D T 401       5.781  17.371  -6.922  1.00 30.63     0.068 C 
BRANCH  28  29
HETATM   29  CAC   D T 401       7.058  17.989  -7.542  1.00 41.99     0.253 C 
BRANCH  29  30
HETATM   30  NBH   D T 401       8.295  17.135  -7.399  1.00 46.77     0.141 N 
HETATM   31  CAP   D T 401       9.004  16.830  -8.684  1.00 49.95     0.285 C 
HETATM   32  CAR   D T 401      10.138  15.802  -8.450  1.00 58.84     0.285 C 
HETATM   33  NBI   D T 401      11.090  16.279  -7.400  1.00 60.13     0.143 N 
HETATM   34  CAO   D T 401      12.256  15.366  -7.247  1.00 54.26     0.285 C 
HETATM   35  CAS   D T 401      10.404  16.582  -6.107  1.00 43.59     0.285 C 
HETATM   36  CAQ   D T 401       9.247  17.589  -6.332  1.00 43.83     0.285 C 
ENDBRANCH  29  30
ENDBRANCH  28  29
ENDBRANCH  27  28
ENDBRANCH  26  27
ENDBRANCH   9  26
TORSDOF 9
ENDMDL
MODEL 7
REMARK VINA RESULT:    -7.684      4.508      8.050
REMARK INTER + INTRA:         -13.238
REMARK INTER:                 -11.716
REMARK INTRA:                  -1.522
REMARK UNBOUND:                -1.511
REMARK  9 active torsions:
REMARK  status: ('A' for Active; 'I' for Inactive)
REMARK    1  A    between atoms: O02_2  and  CAX_24 
REMARK    2  A    between atoms: CAC_3  and  CAM_13 
REMARK    3  A    between atoms: CAC_3  and  NBH_34 
REMARK    4  A    between atoms: CAM_13  and  CAN_14 
REMARK    5  A    between atoms: CAN_14  and  OAW_23 
REMARK    6  A    between atoms: NAU_21  and  CBB_28 
REMARK    7  A    between atoms: NAU_21  and  CBE_31 
REMARK    8  A    between atoms: OAV_22  and  CBC_29 
REMARK    9  A    between atoms: OAW_23  and  CBD_30 
ROOT
HETATM    1  NAD   D T 401       7.651  18.577  -8.204  1.00 19.83    -0.191 NA
HETATM    2  CAG   D T 401       7.094  18.123  -7.309  1.00 22.89     0.104 C 
HETATM    3  CAH   D T 401       5.480  18.470  -5.725  1.00 14.94     0.111 A 
HETATM    4  CAK   D T 401       4.123  16.496  -2.992  1.00 20.70     0.045 A 
HETATM    5  CAL   D T 401       6.027  14.669  -3.935  1.00 20.29     0.029 A 
HETATM    6  NAT   D T 401       4.751  18.059  -4.671  1.00 16.88    -0.243 NA
HETATM    7  CBA   D T 401       6.457  17.622  -6.281  1.00 16.47     0.105 A 
HETATM    8  CBC   D T 401       5.222  14.318  -2.829  1.00 25.88     0.116 A 
HETATM    9  CBD   D T 401       4.265  15.247  -2.363  1.00 27.06     0.118 A 
HETATM   10  CBE   D T 401       6.688  16.322  -5.706  1.00 22.24     0.094 A 
HETATM   11  CBF   D T 401       4.924  16.841  -4.093  1.00 20.86     0.085 A 
HETATM   12  CBG   D T 401       5.896  15.929  -4.588  1.00 20.86     0.038 A 
ENDROOT
BRANCH  10  13
HETATM   13  NAU   D T 401       7.644  15.443  -6.197  1.00 16.88    -0.244 NA
BRANCH  13  14
HETATM   14  CBB   D T 401       8.984  15.488  -5.927  1.00 19.80     0.094 A 
HETATM   15  CAJ   D T 401       9.457  15.433  -4.595  1.00 18.64     0.045 A 
HETATM   16  CAX   D T 401      10.840  15.501  -4.341  1.00 17.07     0.106 A 
HETATM   17  CAY   D T 401      11.750  15.634  -5.407  1.00 24.79     0.081 A 
HETATM   18 CL1    D T 401      13.410  15.732  -5.061  1.00 27.04    -0.080 Cl
HETATM   19  CAI   D T 401      11.295  15.695  -6.735  1.00 19.15     0.026 A 
HETATM   20  CAZ   D T 401       9.914  15.624  -6.993  1.00 21.66     0.076 A 
HETATM   21 CL2    D T 401       9.409  15.703  -8.611  1.00 21.61    -0.081 Cl
BRANCH  16  22
HETATM   22  O02   D T 401      11.359  15.472  -3.076  1.00 20.01    -0.327 OA
HETATM   23  C01   D T 401      11.216  16.671  -2.297  1.00 19.16     0.181 C 
ENDBRANCH  16  22
ENDBRANCH  13  14
ENDBRANCH  10  13
BRANCH   8  24
HETATM   24  OAV   D T 401       5.337  13.105  -2.187  1.00 29.42    -0.326 OA
HETATM   25  CAA   D T 401       6.459  12.973  -1.296  1.00 25.21     0.181 C 
ENDBRANCH   8  24
BRANCH   9  26
HETATM   26  OAW   D T 401       3.475  14.946  -1.294  1.00 24.87    -0.329 OA
BRANCH  26  27
HETATM   27  CAN   D T 401       2.073  14.697  -1.542  1.00 25.33     0.151 C 
BRANCH  27  28
HETATM   28  CAM   D T 401       1.845  13.192  -1.227  1.00 30.63     0.068 C 
BRANCH  28  29
HETATM   29  CAC   D T 401       1.402  12.884   0.224  1.00 41.99     0.253 C 
BRANCH  29  30
HETATM   30  NBH   D T 401       2.431  12.144   1.045  1.00 46.77     0.141 N 
HETATM   31  CAP   D T 401       3.662  12.934   1.376  1.00 49.95     0.285 C 
HETATM   32  CAR   D T 401       4.723  12.031   2.051  1.00 58.84     0.285 C 
HETATM   33  NBI   D T 401       4.164  11.354   3.262  1.00 60.13     0.143 N 
HETATM   34  CAO   D T 401       5.201  10.580   3.997  1.00 54.26     0.285 C 
HETATM   35  CAS   D T 401       2.940  10.555   2.951  1.00 43.59     0.285 C 
HETATM   36  CAQ   D T 401       1.880  11.441   2.250  1.00 43.83     0.285 C 
ENDBRANCH  29  30
ENDBRANCH  28  29
ENDBRANCH  27  28
ENDBRANCH  26  27
ENDBRANCH   9  26
TORSDOF 9
ENDMDL
MODEL 8
REMARK VINA RESULT:    -7.661      4.648      9.263
REMARK INTER + INTRA:         -13.202
REMARK INTER:                 -11.932
REMARK INTRA:                  -1.269
REMARK UNBOUND:                -1.511
REMARK  9 active torsions:
REMARK  status: ('A' for Active; 'I' for Inactive)
REMARK    1  A    between atoms: O02_2  and  CAX_24 
REMARK    2  A    between atoms: CAC_3  and  CAM_13 
REMARK    3  A    between atoms: CAC_3  and  NBH_34 
REMARK    4  A    between atoms: CAM_13  and  CAN_14 
REMARK    5  A    between atoms: CAN_14  and  OAW_23 
REMARK    6  A    between atoms: NAU_21  and  CBB_28 
REMARK    7  A    between atoms: NAU_21  and  CBE_31 
REMARK    8  A    between atoms: OAV_22  and  CBC_29 
REMARK    9  A    between atoms: OAW_23  and  CBD_30 
ROOT
HETATM    1  NAD   D T 401       2.261  11.139   1.300  1.00 19.83    -0.191 NA
HETATM    2  CAG   D T 401       2.806  11.896   0.631  1.00 22.89     0.104 C 
HETATM    3  CAH   D T 401       2.910  12.831  -1.455  1.00 14.94     0.111 A 
HETATM    4  CAK   D T 401       5.026  15.333  -3.025  1.00 20.70     0.045 A 
HETATM    5  CAL   D T 401       6.209  15.306  -0.484  1.00 20.29     0.029 A 
HETATM    6  NAT   D T 401       3.456  13.683  -2.342  1.00 16.88    -0.243 NA
HETATM    7  CBA   D T 401       3.424  12.748  -0.146  1.00 16.47     0.105 A 
HETATM    8  CBC   D T 401       6.724  16.170  -1.477  1.00 25.88     0.116 A 
HETATM    9  CBD   D T 401       6.119  16.175  -2.754  1.00 27.06     0.118 A 
HETATM   10  CBE   D T 401       4.549  13.563   0.233  1.00 22.24     0.094 A 
HETATM   11  CBF   D T 401       4.515  14.478  -2.035  1.00 20.86     0.085 A 
HETATM   12  CBG   D T 401       5.100  14.449  -0.739  1.00 20.86     0.038 A 
ENDROOT
BRANCH  10  13
HETATM   13  NAU   D T 401       5.113  13.521   1.501  1.00 16.88    -0.244 NA
BRANCH  13  14
HETATM   14  CBB   D T 401       6.028  12.603   1.938  1.00 19.80     0.094 A 
HETATM   15  CAJ   D T 401       7.290  12.482   1.309  1.00 18.64     0.045 A 
HETATM   16  CAX   D T 401       8.207  11.516   1.765  1.00 17.07     0.106 A 
HETATM   17  CAY   D T 401       7.868  10.667   2.836  1.00 24.79     0.081 A 
HETATM   18 CL1    D T 401       8.994   9.501   3.346  1.00 27.04    -0.080 Cl
HETATM   19  CAI   D T 401       6.618  10.772   3.467  1.00 19.15     0.026 A 
HETATM   20  CAZ   D T 401       5.700  11.738   3.017  1.00 21.66     0.076 A 
HETATM   21 CL2    D T 401       4.201  11.830   3.807  1.00 21.61    -0.081 Cl
BRANCH  16  22
HETATM   22  O02   D T 401       9.434  11.336   1.188  1.00 20.01    -0.327 OA
HETATM   23  C01   D T 401      10.398  12.383   1.391  1.00 19.16     0.181 C 
ENDBRANCH  16  22
ENDBRANCH  13  14
ENDBRANCH  10  13
BRANCH   8  24
HETATM   24  OAV   D T 401       7.796  17.004  -1.246  1.00 29.42    -0.326 OA
HETATM   25  CAA   D T 401       9.088  16.373  -1.231  1.00 25.21     0.181 C 
ENDBRANCH   8  24
BRANCH   9  26
HETATM   26  OAW   D T 401       6.594  16.989  -3.738  1.00 24.87    -0.329 OA
BRANCH  26  27
HETATM   27  CAN   D T 401       7.076  16.367  -4.951  1.00 25.33     0.151 C 
BRANCH  27  28
HETATM   28  CAM   D T 401       6.179  16.916  -6.096  1.00 30.63     0.068 C 
BRANCH  28  29
HETATM   29  CAC   D T 401       6.942  17.398  -7.354  1.00 41.99     0.253 C 
BRANCH  29  30
HETATM   30  NBH   D T 401       8.439  17.211  -7.283  1.00 46.77     0.141 N 
HETATM   31  CAP   D T 401       9.001  16.229  -8.267  1.00 49.95     0.285 C 
HETATM   32  CAR   D T 401      10.501  15.974  -7.985  1.00 58.84     0.285 C 
HETATM   33  NBI   D T 401      11.275  17.254  -7.987  1.00 60.13     0.143 N 
HETATM   34  CAO   D T 401      12.738  17.022  -7.843  1.00 54.26     0.285 C 
HETATM   35  CAS   D T 401      10.735  18.245  -7.007  1.00 43.59     0.285 C 
HETATM   36  CAQ   D T 401       9.226  18.488  -7.260  1.00 43.83     0.285 C 
ENDBRANCH  29  30
ENDBRANCH  28  29
ENDBRANCH  27  28
ENDBRANCH  26  27
ENDBRANCH   9  26
TORSDOF 9
ENDMDL
MODEL 9
REMARK VINA RESULT:    -7.520      3.979      9.405
REMARK INTER + INTRA:         -12.987
REMARK INTER:                 -11.770
REMARK INTRA:                  -1.217
REMARK UNBOUND:                -1.511
REMARK  9 active torsions:
REMARK  status: ('A' for Active; 'I' for Inactive)
REMARK    1  A    between atoms: O02_2  and  CAX_24 
REMARK    2  A    between atoms: CAC_3  and  CAM_13 
REMARK    3  A    between atoms: CAC_3  and  NBH_34 
REMARK    4  A    between atoms: CAM_13  and  CAN_14 
REMARK    5  A    between atoms: CAN_14  and  OAW_23 
REMARK    6  A    between atoms: NAU_21  and  CBB_28 
REMARK    7  A    between atoms: NAU_21  and  CBE_31 
REMARK    8  A    between atoms: OAV_22  and  CBC_29 
REMARK    9  A    between atoms: OAW_23  and  CBD_30 
ROOT
HETATM    1  NAD   D T 401       2.678  11.757   0.324  1.00 19.83    -0.191 NA
HETATM    2  CAG   D T 401       3.527  12.337  -0.187  1.00 22.89     0.104 C 
HETATM    3  CAH   D T 401       4.450  12.947  -2.190  1.00 14.94     0.111 A 
HETATM    4  CAK   D T 401       7.343  14.914  -3.172  1.00 20.70     0.045 A 
HETATM    5  CAL   D T 401       7.624  15.098  -0.390  1.00 20.29     0.029 A 
HETATM    6  NAT   D T 401       5.385  13.588  -2.914  1.00 16.88    -0.243 NA
HETATM    7  CBA   D T 401       4.495  12.986  -0.783  1.00 16.47     0.105 A 
HETATM    8  CBC   D T 401       8.567  15.741  -1.223  1.00 25.88     0.116 A 
HETATM    9  CBD   D T 401       8.414  15.641  -2.624  1.00 27.06     0.118 A 
HETATM   10  CBE   D T 401       5.557  13.698  -0.121  1.00 22.24     0.094 A 
HETATM   11  CBF   D T 401       6.406  14.279  -2.340  1.00 20.86     0.085 A 
HETATM   12  CBG   D T 401       6.530  14.360  -0.926  1.00 20.86     0.038 A 
ENDROOT
BRANCH  10  13
HETATM   13  NAU   D T 401       5.669  13.765   1.261  1.00 16.88    -0.244 NA
BRANCH  13  14
HETATM   14  CBB   D T 401       6.394  12.912   2.047  1.00 19.80     0.094 A 
HETATM   15  CAJ   D T 401       7.804  12.850   1.937  1.00 18.64     0.045 A 
HETATM   16  CAX   D T 401       8.527  11.949   2.742  1.00 17.07     0.106 A 
HETATM   17  CAY   D T 401       7.852  11.108   3.647  1.00 24.79     0.081 A 
HETATM   18 CL1    D T 401       8.757  10.022   4.589  1.00 27.04    -0.080 Cl
HETATM   19  CAI   D T 401       6.453  11.156   3.764  1.00 19.15     0.026 A 
HETATM   20  CAZ   D T 401       5.727  12.056   2.963  1.00 21.66     0.076 A 
HETATM   21 CL2    D T 401       4.039  12.079   3.136  1.00 21.61    -0.081 Cl
BRANCH  16  22
HETATM   22  O02   D T 401       9.887  11.827   2.670  1.00 20.01    -0.327 OA
HETATM   23  C01   D T 401      10.419  11.286   1.449  1.00 19.16     0.181 C 
ENDBRANCH  16  22
ENDBRANCH  13  14
ENDBRANCH  10  13
BRANCH   8  24
HETATM   24  OAV   D T 401       9.630  16.457  -0.720  1.00 29.42    -0.326 OA
HETATM   25  CAA   D T 401      10.678  15.680  -0.116  1.00 25.21     0.181 C 
ENDBRANCH   8  24
BRANCH   9  26
HETATM   26  OAW   D T 401       9.308  16.241  -3.460  1.00 24.87    -0.329 OA
BRANCH  26  27
HETATM   27  CAN   D T 401       9.842  15.455  -4.549  1.00 25.33     0.151 C 
BRANCH  27  28
HETATM   28  CAM   D T 401       9.704  16.340  -5.820  1.00 30.63     0.068 C 
BRANCH  28  29
HETATM   29  CAC   D T 401       8.630  15.874  -6.833  1.00 41.99     0.253 C 
BRANCH  29  30
HETATM   30  NBH   D T 401       7.381  16.724  -6.851  1.00 46.77     0.141 N 
HETATM   31  CAP   D T 401       6.116  15.996  -6.510  1.00 49.95     0.285 C 
HETATM   32  CAR   D T 401       4.885  16.906  -6.741  1.00 58.84     0.285 C 
HETATM   33  NBI   D T 401       5.007  18.183  -5.971  1.00 60.13     0.143 N 
HETATM   34  CAO   D T 401       3.779  19.018  -6.078  1.00 54.26     0.285 C 
HETATM   35  CAS   D T 401       6.259  18.928  -6.302  1.00 43.59     0.285 C 
HETATM   36  CAQ   D T 401       7.498  18.019  -6.102  1.00 43.83     0.285 C 
ENDBRANCH  29  30
ENDBRANCH  28  29
ENDBRANCH  27  28
ENDBRANCH  26  27
ENDBRANCH   9  26
TORSDOF 9
ENDMDL
