MODEL 1
REMARK VINA RESULT:    -8.405      0.000      0.000
REMARK INTER + INTRA:         -13.835
REMARK INTER:                 -12.827
REMARK INTRA:                  -1.008
REMARK UNBOUND:                -1.008
REMARK  9 active torsions:
REMARK  status: ('A' for Active; 'I' for Inactive)
REMARK    1  A    between atoms: O02_2  and  CAX_24 
REMARK    2  A    between atoms: CAC_3  and  CAM_13 
REMARK    3  A    between atoms: CAC_3  and  NBH_34 
REMARK    4  A    between atoms: CAM_13  and  CAN_14 
REMARK    5  A    between atoms: CAN_14  and  OAW_23 
REMARK    6  A    between atoms: NAU_21  and  CBB_28 
REMARK    7  A    between atoms: NAU_21  and  CBE_31 
REMARK    8  A    between atoms: OAV_22  and  CBC_29 
REMARK    9  A    between atoms: OAW_23  and  CBD_30 
ROOT
HETATM    1  NAD   D T 401      -9.993   0.610  -8.710  1.00 19.83    -0.191 NA
HETATM    2  CAG   D T 401     -10.314   1.373  -7.915  1.00 22.89     0.104 C 
HETATM    3  CAH   D T 401      -9.595   2.819  -6.293  1.00 14.94     0.111 A 
HETATM    4  CAK   D T 401     -11.246   5.076  -3.973  1.00 20.70     0.045 A 
HETATM    5  CAL   D T 401     -13.516   4.026  -5.237  1.00 20.29     0.029 A 
HETATM    6  NAT   D T 401      -9.832   3.732  -5.334  1.00 16.88    -0.243 NA
HETATM    7  CBA   D T 401     -10.667   2.237  -6.997  1.00 16.47     0.105 A 
HETATM    8  CBC   D T 401     -13.677   4.989  -4.215  1.00 25.88     0.116 A 
HETATM    9  CBD   D T 401     -12.525   5.509  -3.586  1.00 27.06     0.118 A 
HETATM   10  CBE   D T 401     -12.020   2.608  -6.672  1.00 22.24     0.094 A 
HETATM   11  CBF   D T 401     -11.089   4.121  -4.990  1.00 20.86     0.085 A 
HETATM   12  CBG   D T 401     -12.227   3.576  -5.645  1.00 20.86     0.038 A 
ENDROOT
BRANCH  10  13
HETATM   13  NAU   D T 401     -13.123   2.062  -7.317  1.00 16.88    -0.244 NA
BRANCH  13  14
HETATM   14  CBB   D T 401     -13.446   0.735  -7.365  1.00 19.80     0.094 A 
HETATM   15  CAJ   D T 401     -13.440   0.033  -8.593  1.00 18.64     0.045 A 
HETATM   16  CAX   D T 401     -13.796  -1.329  -8.622  1.00 17.07     0.106 A 
HETATM   17  CAY   D T 401     -14.165  -1.988  -7.432  1.00 24.79     0.081 A 
HETATM   18 CL1    D T 401     -14.606  -3.628  -7.509  1.00 27.04    -0.080 Cl
HETATM   19  CAI   D T 401     -14.180  -1.303  -6.207  1.00 19.15     0.026 A 
HETATM   20  CAZ   D T 401     -13.823   0.057  -6.174  1.00 21.66     0.076 A 
HETATM   21 CL2    D T 401     -13.856   0.845  -4.673  1.00 21.61    -0.081 Cl
BRANCH  16  22
HETATM   22  O02   D T 401     -13.829  -2.058  -9.778  1.00 20.01    -0.327 OA
HETATM   23  C01   D T 401     -12.558  -2.430 -10.337  1.00 19.16     0.181 C 
ENDBRANCH  16  22
ENDBRANCH  13  14
ENDBRANCH  10  13
BRANCH   8  24
HETATM   24  OAV   D T 401     -14.915   5.432  -3.808  1.00 29.42    -0.326 OA
HETATM   25  CAA   D T 401     -15.976   4.461  -3.857  1.00 25.21     0.181 C 
ENDBRANCH   8  24
BRANCH   9  26
HETATM   26  OAW   D T 401     -12.643   6.434  -2.591  1.00 24.87    -0.329 OA
BRANCH  26  27
HETATM   27  CAN   D T 401     -12.353   6.007  -1.240  1.00 25.33     0.151 C 
BRANCH  27  28
HETATM   28  CAM   D T 401     -13.731   5.891  -0.526  1.00 30.63     0.068 C 
BRANCH  28  29
HETATM   29  CAC   D T 401     -14.273   4.449  -0.373  1.00 41.99     0.253 C 
BRANCH  29  30
HETATM   30  NBH   D T 401     -15.725   4.372   0.033  1.00 46.77     0.141 N 
HETATM   31  CAP   D T 401     -16.444   3.140  -0.428  1.00 49.95     0.285 C 
HETATM   32  CAR   D T 401     -17.960   3.248  -0.125  1.00 58.84     0.285 C 
HETATM   33  NBI   D T 401     -18.201   3.513   1.328  1.00 60.13     0.143 N 
HETATM   34  CAO   D T 401     -19.651   3.497   1.665  1.00 54.26     0.285 C 
HETATM   35  CAS   D T 401     -17.497   4.742   1.806  1.00 43.59     0.285 C 
HETATM   36  CAQ   D T 401     -15.984   4.659   1.482  1.00 43.83     0.285 C 
ENDBRANCH  29  30
ENDBRANCH  28  29
ENDBRANCH  27  28
ENDBRANCH  26  27
ENDBRANCH   9  26
TORSDOF 9
ENDMDL
MODEL 2
REMARK VINA RESULT:    -8.025      2.787      4.457
REMARK INTER + INTRA:         -13.256
REMARK INTER:                 -12.291
REMARK INTRA:                  -0.965
REMARK UNBOUND:                -1.008
REMARK  9 active torsions:
REMARK  status: ('A' for Active; 'I' for Inactive)
REMARK    1  A    between atoms: O02_2  and  CAX_24 
REMARK    2  A    between atoms: CAC_3  and  CAM_13 
REMARK    3  A    between atoms: CAC_3  and  NBH_34 
REMARK    4  A    between atoms: CAM_13  and  CAN_14 
REMARK    5  A    between atoms: CAN_14  and  OAW_23 
REMARK    6  A    between atoms: NAU_21  and  CBB_28 
REMARK    7  A    between atoms: NAU_21  and  CBE_31 
REMARK    8  A    between atoms: OAV_22  and  CBC_29 
REMARK    9  A    between atoms: OAW_23  and  CBD_30 
ROOT
HETATM    1  NAD   D T 401     -13.852   0.547  -5.406  1.00 19.83    -0.191 NA
HETATM    2  CAG   D T 401     -13.868   1.383  -4.619  1.00 22.89     0.104 C 
HETATM    3  CAH   D T 401     -14.533   1.973  -2.510  1.00 14.94     0.111 A 
HETATM    4  CAK   D T 401     -14.266   4.988  -0.500  1.00 20.70     0.045 A 
HETATM    5  CAL   D T 401     -12.993   5.907  -2.820  1.00 20.29     0.029 A 
HETATM    6  NAT   D T 401     -14.619   2.860  -1.503  1.00 16.88    -0.243 NA
HETATM    7  CBA   D T 401     -13.902   2.332  -3.717  1.00 16.47     0.105 A 
HETATM    8  CBC   D T 401     -13.127   6.777  -1.716  1.00 25.88     0.116 A 
HETATM    9  CBD   D T 401     -13.771   6.302  -0.552  1.00 27.06     0.118 A 
HETATM   10  CBE   D T 401     -13.368   3.659  -3.877  1.00 22.24     0.094 A 
HETATM   11  CBF   D T 401     -14.128   4.124  -1.598  1.00 20.86     0.085 A 
HETATM   12  CBG   D T 401     -13.484   4.570  -2.786  1.00 20.86     0.038 A 
ENDROOT
BRANCH  10  13
HETATM   13  NAU   D T 401     -12.747   4.083  -5.045  1.00 16.88    -0.244 NA
BRANCH  13  14
HETATM   14  CBB   D T 401     -11.631   3.527  -5.604  1.00 19.80     0.094 A 
HETATM   15  CAJ   D T 401     -11.739   2.602  -6.670  1.00 18.64     0.045 A 
HETATM   16  CAX   D T 401     -10.576   2.027  -7.217  1.00 17.07     0.106 A 
HETATM   17  CAY   D T 401      -9.310   2.363  -6.699  1.00 24.79     0.081 A 
HETATM   18 CL1    D T 401      -7.930   1.634  -7.373  1.00 27.04    -0.080 Cl
HETATM   19  CAI   D T 401      -9.187   3.274  -5.638  1.00 19.15     0.026 A 
HETATM   20  CAZ   D T 401     -10.346   3.854  -5.091  1.00 21.66     0.076 A 
HETATM   21 CL2    D T 401     -10.151   4.949  -3.811  1.00 21.61    -0.081 Cl
BRANCH  16  22
HETATM   22  O02   D T 401     -10.615   1.114  -8.234  1.00 20.01    -0.327 OA
HETATM   23  C01   D T 401     -11.809   0.321  -8.338  1.00 19.16     0.181 C 
ENDBRANCH  16  22
ENDBRANCH  13  14
ENDBRANCH  10  13
BRANCH   8  24
HETATM   24  OAV   D T 401     -12.659   8.072  -1.735  1.00 29.42    -0.326 OA
HETATM   25  CAA   D T 401     -11.976   8.473  -2.935  1.00 25.21     0.181 C 
ENDBRANCH   8  24
BRANCH   9  26
HETATM   26  OAW   D T 401     -13.927   7.116   0.530  1.00 24.87    -0.329 OA
BRANCH  26  27
HETATM   27  CAN   D T 401     -14.607   6.574   1.686  1.00 25.33     0.151 C 
BRANCH  27  28
HETATM   28  CAM   D T 401     -16.030   7.203   1.674  1.00 30.63     0.068 C 
BRANCH  28  29
HETATM   29  CAC   D T 401     -17.160   6.280   2.192  1.00 41.99     0.253 C 
BRANCH  29  30
HETATM   30  NBH   D T 401     -17.764   5.385   1.135  1.00 46.77     0.141 N 
HETATM   31  CAP   D T 401     -17.750   5.950  -0.253  1.00 49.95     0.285 C 
HETATM   32  CAR   D T 401     -18.555   5.045  -1.218  1.00 58.84     0.285 C 
HETATM   33  NBI   D T 401     -18.041   3.640  -1.192  1.00 60.13     0.143 N 
HETATM   34  CAO   D T 401     -18.717   2.780  -2.203  1.00 54.26     0.285 C 
HETATM   35  CAS   D T 401     -18.053   3.055   0.183  1.00 43.59     0.285 C 
HETATM   36  CAQ   D T 401     -17.275   3.968   1.166  1.00 43.83     0.285 C 
ENDBRANCH  29  30
ENDBRANCH  28  29
ENDBRANCH  27  28
ENDBRANCH  26  27
ENDBRANCH   9  26
TORSDOF 9
ENDMDL
MODEL 3
REMARK VINA RESULT:    -7.828      3.471      8.638
REMARK INTER + INTRA:         -12.955
REMARK INTER:                 -11.265
REMARK INTRA:                  -1.690
REMARK UNBOUND:                -1.008
REMARK  9 active torsions:
REMARK  status: ('A' for Active; 'I' for Inactive)
REMARK    1  A    between atoms: O02_2  and  CAX_24 
REMARK    2  A    between atoms: CAC_3  and  CAM_13 
REMARK    3  A    between atoms: CAC_3  and  NBH_34 
REMARK    4  A    between atoms: CAM_13  and  CAN_14 
REMARK    5  A    between atoms: CAN_14  and  OAW_23 
REMARK    6  A    between atoms: NAU_21  and  CBB_28 
REMARK    7  A    between atoms: NAU_21  and  CBE_31 
REMARK    8  A    between atoms: OAV_22  and  CBC_29 
REMARK    9  A    between atoms: OAW_23  and  CBD_30 
ROOT
HETATM    1  NAD   D T 401     -16.698   4.783  -1.567  1.00 19.83    -0.191 NA
HETATM    2  CAG   D T 401     -16.053   4.409  -2.440  1.00 22.89     0.104 C 
HETATM    3  CAH   D T 401     -16.062   3.357  -4.473  1.00 14.94     0.111 A 
HETATM    4  CAK   D T 401     -13.497   2.406  -6.864  1.00 20.70     0.045 A 
HETATM    5  CAL   D T 401     -11.854   3.563  -4.911  1.00 20.29     0.029 A 
HETATM    6  NAT   D T 401     -15.428   2.877  -5.557  1.00 16.88    -0.243 NA
HETATM    7  CBA   D T 401     -15.328   3.968  -3.437  1.00 16.47     0.105 A 
HETATM    8  CBC   D T 401     -11.267   3.031  -6.081  1.00 25.88     0.116 A 
HETATM    9  CBD   D T 401     -12.106   2.450  -7.057  1.00 27.06     0.118 A 
HETATM   10  CBE   D T 401     -13.895   4.058  -3.534  1.00 22.24     0.094 A 
HETATM   11  CBF   D T 401     -14.078   2.939  -5.702  1.00 20.86     0.085 A 
HETATM   12  CBG   D T 401     -13.262   3.531  -4.698  1.00 20.86     0.038 A 
ENDROOT
BRANCH  10  13
HETATM   13  NAU   D T 401     -13.110   4.634  -2.543  1.00 16.88    -0.244 NA
BRANCH  13  14
HETATM   14  CBB   D T 401     -12.955   5.974  -2.323  1.00 19.80     0.094 A 
HETATM   15  CAJ   D T 401     -12.439   6.818  -3.335  1.00 18.64     0.045 A 
HETATM   16  CAX   D T 401     -12.269   8.192  -3.080  1.00 17.07     0.106 A 
HETATM   17  CAY   D T 401     -12.603   8.723  -1.818  1.00 24.79     0.081 A 
HETATM   18 CL1    D T 401     -12.366  10.383  -1.541  1.00 27.04    -0.080 Cl
HETATM   19  CAI   D T 401     -13.111   7.897  -0.803  1.00 19.15     0.026 A 
HETATM   20  CAZ   D T 401     -13.285   6.524  -1.056  1.00 21.66     0.076 A 
HETATM   21 CL2    D T 401     -13.902   5.564   0.199  1.00 21.61    -0.081 Cl
BRANCH  16  22
HETATM   22  O02   D T 401     -11.757   9.056  -4.008  1.00 20.01    -0.327 OA
HETATM   23  C01   D T 401     -12.699   9.656  -4.913  1.00 19.16     0.181 C 
ENDBRANCH  16  22
ENDBRANCH  13  14
ENDBRANCH  10  13
BRANCH   8  24
HETATM   24  OAV   D T 401      -9.908   3.053  -6.300  1.00 29.42    -0.326 OA
HETATM   25  CAA   D T 401      -9.103   3.510  -5.200  1.00 25.21     0.181 C 
ENDBRANCH   8  24
BRANCH   9  26
HETATM   26  OAW   D T 401     -11.574   1.919  -8.195  1.00 24.87    -0.329 OA
BRANCH  26  27
HETATM   27  CAN   D T 401     -11.119   0.548  -8.147  1.00 25.33     0.151 C 
BRANCH  27  28
HETATM   28  CAM   D T 401     -12.165  -0.276  -8.952  1.00 30.63     0.068 C 
BRANCH  28  29
HETATM   29  CAC   D T 401     -12.777  -1.480  -8.195  1.00 41.99     0.253 C 
BRANCH  29  30
HETATM   30  NBH   D T 401     -14.201  -1.267  -7.737  1.00 46.77     0.141 N 
HETATM   31  CAP   D T 401     -15.197  -2.230  -8.308  1.00 49.95     0.285 C 
HETATM   32  CAR   D T 401     -16.639  -1.811  -7.929  1.00 58.84     0.285 C 
HETATM   33  NBI   D T 401     -16.790  -1.682  -6.446  1.00 60.13     0.143 N 
HETATM   34  CAO   D T 401     -18.197  -1.402  -6.050  1.00 54.26     0.285 C 
HETATM   35  CAS   D T 401     -15.808  -0.721  -5.856  1.00 43.59     0.285 C 
HETATM   36  CAQ   D T 401     -14.362  -1.112  -6.254  1.00 43.83     0.285 C 
ENDBRANCH  29  30
ENDBRANCH  28  29
ENDBRANCH  27  28
ENDBRANCH  26  27
ENDBRANCH   9  26
TORSDOF 9
ENDMDL
MODEL 4
REMARK VINA RESULT:    -7.777      3.117      5.116
REMARK INTER + INTRA:         -12.878
REMARK INTER:                 -11.853
REMARK INTRA:                  -1.025
REMARK UNBOUND:                -1.008
REMARK  9 active torsions:
REMARK  status: ('A' for Active; 'I' for Inactive)
REMARK    1  A    between atoms: O02_2  and  CAX_24 
REMARK    2  A    between atoms: CAC_3  and  CAM_13 
REMARK    3  A    between atoms: CAC_3  and  NBH_34 
REMARK    4  A    between atoms: CAM_13  and  CAN_14 
REMARK    5  A    between atoms: CAN_14  and  OAW_23 
REMARK    6  A    between atoms: NAU_21  and  CBB_28 
REMARK    7  A    between atoms: NAU_21  and  CBE_31 
REMARK    8  A    between atoms: OAV_22  and  CBC_29 
REMARK    9  A    between atoms: OAW_23  and  CBD_30 
ROOT
HETATM    1  NAD   D T 401      -9.975   6.038  -3.209  1.00 19.83    -0.191 NA
HETATM    2  CAG   D T 401     -11.010   5.604  -2.967  1.00 22.89     0.104 C 
HETATM    3  CAH   D T 401     -12.477   5.050  -1.300  1.00 14.94     0.111 A 
HETATM    4  CAK   D T 401     -15.806   3.599  -1.210  1.00 20.70     0.045 A 
HETATM    5  CAL   D T 401     -15.412   3.593  -3.984  1.00 20.29     0.029 A 
HETATM    6  NAT   D T 401     -13.657   4.564  -0.878  1.00 16.88    -0.243 NA
HETATM    7  CBA   D T 401     -12.183   5.101  -2.676  1.00 16.47     0.105 A 
HETATM    8  CBC   D T 401     -16.626   3.097  -3.458  1.00 25.88     0.116 A 
HETATM    9  CBD   D T 401     -16.812   3.105  -2.058  1.00 27.06     0.118 A 
HETATM   10  CBE   D T 401     -13.143   4.612  -3.631  1.00 22.24     0.094 A 
HETATM   11  CBF   D T 401     -14.602   4.094  -1.736  1.00 20.86     0.085 A 
HETATM   12  CBG   D T 401     -14.381   4.101  -3.141  1.00 20.86     0.038 A 
ENDROOT
BRANCH  10  13
HETATM   13  NAU   D T 401     -12.912   4.619  -5.000  1.00 16.88    -0.244 NA
BRANCH  13  14
HETATM   14  CBB   D T 401     -12.134   3.728  -5.684  1.00 19.80     0.094 A 
HETATM   15  CAJ   D T 401     -10.725   3.853  -5.691  1.00 18.64     0.045 A 
HETATM   16  CAX   D T 401      -9.945   2.934  -6.420  1.00 17.07     0.106 A 
HETATM   17  CAY   D T 401     -10.566   1.900  -7.148  1.00 24.79     0.081 A 
HETATM   18 CL1    D T 401      -9.593   0.822  -8.030  1.00 27.04    -0.080 Cl
HETATM   19  CAI   D T 401     -11.964   1.767  -7.155  1.00 19.15     0.026 A 
HETATM   20  CAZ   D T 401     -12.746   2.681  -6.426  1.00 21.66     0.076 A 
HETATM   21 CL2    D T 401     -14.430   2.483  -6.463  1.00 21.61    -0.081 Cl
BRANCH  16  22
HETATM   22  O02   D T 401      -8.581   3.012  -6.481  1.00 20.01    -0.327 OA
HETATM   23  C01   D T 401      -7.851   2.228  -5.523  1.00 19.16     0.181 C 
ENDBRANCH  16  22
ENDBRANCH  13  14
ENDBRANCH  10  13
BRANCH   8  24
HETATM   24  OAV   D T 401     -17.629   2.601  -4.259  1.00 29.42    -0.326 OA
HETATM   25  CAA   D T 401     -18.405   3.581  -4.971  1.00 25.21     0.181 C 
ENDBRANCH   8  24
BRANCH   9  26
HETATM   26  OAW   D T 401     -17.967   2.627  -1.514  1.00 24.87    -0.329 OA
BRANCH  26  27
HETATM   27  CAN   D T 401     -17.972   2.334  -0.098  1.00 25.33     0.151 C 
BRANCH  27  28
HETATM   28  CAM   D T 401     -19.317   2.895   0.447  1.00 30.63     0.068 C 
BRANCH  28  29
HETATM   29  CAC   D T 401     -19.199   4.202   1.269  1.00 41.99     0.253 C 
BRANCH  29  30
HETATM   30  NBH   D T 401     -17.942   4.994   1.000  1.00 46.77     0.141 N 
HETATM   31  CAP   D T 401     -18.154   6.286   0.272  1.00 49.95     0.285 C 
HETATM   32  CAR   D T 401     -16.796   6.922  -0.117  1.00 58.84     0.285 C 
HETATM   33  NBI   D T 401     -15.924   7.106   1.084  1.00 60.13     0.143 N 
HETATM   34  CAO   D T 401     -14.665   7.829   0.754  1.00 54.26     0.285 C 
HETATM   35  CAS   D T 401     -15.694   5.826   1.821  1.00 43.59     0.285 C 
HETATM   36  CAQ   D T 401     -17.046   5.165   2.191  1.00 43.83     0.285 C 
ENDBRANCH  29  30
ENDBRANCH  28  29
ENDBRANCH  27  28
ENDBRANCH  26  27
ENDBRANCH   9  26
TORSDOF 9
ENDMDL
MODEL 5
REMARK VINA RESULT:    -7.758      3.530      8.359
REMARK INTER + INTRA:         -12.849
REMARK INTER:                 -11.717
REMARK INTRA:                  -1.132
REMARK UNBOUND:                -1.008
REMARK  9 active torsions:
REMARK  status: ('A' for Active; 'I' for Inactive)
REMARK    1  A    between atoms: O02_2  and  CAX_24 
REMARK    2  A    between atoms: CAC_3  and  CAM_13 
REMARK    3  A    between atoms: CAC_3  and  NBH_34 
REMARK    4  A    between atoms: CAM_13  and  CAN_14 
REMARK    5  A    between atoms: CAN_14  and  OAW_23 
REMARK    6  A    between atoms: NAU_21  and  CBB_28 
REMARK    7  A    between atoms: NAU_21  and  CBE_31 
REMARK    8  A    between atoms: OAV_22  and  CBC_29 
REMARK    9  A    between atoms: OAW_23  and  CBD_30 
ROOT
HETATM    1  NAD   D T 401      -9.936   7.073  -2.310  1.00 19.83    -0.191 NA
HETATM    2  CAG   D T 401     -10.346   6.245  -2.992  1.00 22.89     0.104 C 
HETATM    3  CAH   D T 401      -9.805   4.555  -4.438  1.00 14.94     0.111 A 
HETATM    4  CAK   D T 401     -11.716   2.170  -6.402  1.00 20.70     0.045 A 
HETATM    5  CAL   D T 401     -13.846   3.549  -5.215  1.00 20.29     0.029 A 
HETATM    6  NAT   D T 401     -10.150   3.553  -5.266  1.00 16.88    -0.243 NA
HETATM    7  CBA   D T 401     -10.801   5.305  -3.782  1.00 16.47     0.105 A 
HETATM    8  CBC   D T 401     -14.122   2.483  -6.100  1.00 25.88     0.116 A 
HETATM    9  CBD   D T 401     -13.039   1.796  -6.692  1.00 27.06     0.118 A 
HETATM   10  CBE   D T 401     -12.190   5.008  -4.016  1.00 22.24     0.094 A 
HETATM   11  CBF   D T 401     -11.445   3.227  -5.520  1.00 20.86     0.085 A 
HETATM   12  CBG   D T 401     -12.511   3.940  -4.905  1.00 20.86     0.038 A 
ENDROOT
BRANCH  10  13
HETATM   13  NAU   D T 401     -13.221   5.717  -3.414  1.00 16.88    -0.244 NA
BRANCH  13  14
HETATM   14  CBB   D T 401     -13.787   5.432  -2.203  1.00 19.80     0.094 A 
HETATM   15  CAJ   D T 401     -14.456   4.203  -1.989  1.00 18.64     0.045 A 
HETATM   16  CAX   D T 401     -15.050   3.939  -0.739  1.00 17.07     0.106 A 
HETATM   17  CAY   D T 401     -14.986   4.898   0.291  1.00 24.79     0.081 A 
HETATM   18 CL1    D T 401     -15.729   4.551   1.779  1.00 27.04    -0.080 Cl
HETATM   19  CAI   D T 401     -14.330   6.123   0.091  1.00 19.15     0.026 A 
HETATM   20  CAZ   D T 401     -13.733   6.390  -1.155  1.00 21.66     0.076 A 
HETATM   21 CL2    D T 401     -12.953   7.882  -1.352  1.00 21.61    -0.081 Cl
BRANCH  16  22
HETATM   22  O02   D T 401     -15.726   2.781  -0.475  1.00 20.01    -0.327 OA
HETATM   23  C01   D T 401     -17.045   2.667  -1.034  1.00 19.16     0.181 C 
ENDBRANCH  16  22
ENDBRANCH  13  14
ENDBRANCH  10  13
BRANCH   8  24
HETATM   24  OAV   D T 401     -15.405   2.095  -6.411  1.00 29.42    -0.326 OA
HETATM   25  CAA   D T 401     -16.352   2.136  -5.328  1.00 25.21     0.181 C 
ENDBRANCH   8  24
BRANCH   9  26
HETATM   26  OAW   D T 401     -13.267   0.768  -7.558  1.00 24.87    -0.329 OA
BRANCH  26  27
HETATM   27  CAN   D T 401     -12.135   0.243  -8.290  1.00 25.33     0.151 C 
BRANCH  27  28
HETATM   28  CAM   D T 401     -12.726  -0.756  -9.326  1.00 30.63     0.068 C 
BRANCH  28  29
HETATM   29  CAC   D T 401     -12.674  -2.246  -8.906  1.00 41.99     0.253 C 
BRANCH  29  30
HETATM   30  NBH   D T 401     -13.990  -2.798  -8.412  1.00 46.77     0.141 N 
HETATM   31  CAP   D T 401     -14.239  -4.235  -8.754  1.00 49.95     0.285 C 
HETATM   32  CAR   D T 401     -15.683  -4.645  -8.370  1.00 58.84     0.285 C 
HETATM   33  NBI   D T 401     -15.954  -4.370  -6.924  1.00 60.13     0.143 N 
HETATM   34  CAO   D T 401     -17.291  -4.870  -6.503  1.00 54.26     0.285 C 
HETATM   35  CAS   D T 401     -15.717  -2.940  -6.563  1.00 43.59     0.285 C 
HETATM   36  CAQ   D T 401     -14.285  -2.509  -6.970  1.00 43.83     0.285 C 
ENDBRANCH  29  30
ENDBRANCH  28  29
ENDBRANCH  27  28
ENDBRANCH  26  27
ENDBRANCH   9  26
TORSDOF 9
ENDMDL
MODEL 6
REMARK VINA RESULT:    -7.718      3.616      9.763
REMARK INTER + INTRA:         -12.788
REMARK INTER:                 -11.503
REMARK INTRA:                  -1.284
REMARK UNBOUND:                -1.008
REMARK  9 active torsions:
REMARK  status: ('A' for Active; 'I' for Inactive)
REMARK    1  A    between atoms: O02_2  and  CAX_24 
REMARK    2  A    between atoms: CAC_3  and  CAM_13 
REMARK    3  A    between atoms: CAC_3  and  NBH_34 
REMARK    4  A    between atoms: CAM_13  and  CAN_14 
REMARK    5  A    between atoms: CAN_14  and  OAW_23 
REMARK    6  A    between atoms: NAU_21  and  CBB_28 
REMARK    7  A    between atoms: NAU_21  and  CBE_31 
REMARK    8  A    between atoms: OAV_22  and  CBC_29 
REMARK    9  A    between atoms: OAW_23  and  CBD_30 
ROOT
HETATM    1  NAD   D T 401     -14.687   7.577   2.032  1.00 19.83    -0.191 NA
HETATM    2  CAG   D T 401     -14.783   6.891   1.116  1.00 22.89     0.104 C 
HETATM    3  CAH   D T 401     -13.647   5.759  -0.517  1.00 14.94     0.111 A 
HETATM    4  CAK   D T 401     -14.622   3.645  -3.306  1.00 20.70     0.045 A 
HETATM    5  CAL   D T 401     -17.173   4.252  -2.317  1.00 20.29     0.029 A 
HETATM    6  NAT   D T 401     -13.616   4.957  -1.596  1.00 16.88    -0.243 NA
HETATM    7  CBA   D T 401     -14.879   6.117   0.064  1.00 16.47     0.105 A 
HETATM    8  CBC   D T 401     -17.052   3.417  -3.450  1.00 25.88     0.116 A 
HETATM    9  CBD   D T 401     -15.761   3.119  -3.939  1.00 27.06     0.118 A 
HETATM   10  CBE   D T 401     -16.107   5.637  -0.512  1.00 22.24     0.094 A 
HETATM   11  CBF   D T 401     -14.745   4.472  -2.178  1.00 20.86     0.085 A 
HETATM   12  CBG   D T 401     -16.030   4.792  -1.659  1.00 20.86     0.038 A 
ENDROOT
BRANCH  10  13
HETATM   13  NAU   D T 401     -17.356   5.963   0.002  1.00 16.88    -0.244 NA
BRANCH  13  14
HETATM   14  CBB   D T 401     -18.099   5.189   0.848  1.00 19.80     0.094 A 
HETATM   15  CAJ   D T 401     -17.561   4.736   2.076  1.00 18.64     0.045 A 
HETATM   16  CAX   D T 401     -18.338   3.923   2.922  1.00 17.07     0.106 A 
HETATM   17  CAY   D T 401     -19.643   3.553   2.544  1.00 24.79     0.081 A 
HETATM   18 CL1    D T 401     -20.544   2.554   3.584  1.00 27.04    -0.080 Cl
HETATM   19  CAI   D T 401     -20.189   3.989   1.327  1.00 19.15     0.026 A 
HETATM   20  CAZ   D T 401     -19.417   4.805   0.480  1.00 21.66     0.076 A 
HETATM   21 CL2    D T 401     -20.116   5.309  -0.981  1.00 21.61    -0.081 Cl
BRANCH  16  22
HETATM   22  O02   D T 401     -17.869   3.438   4.112  1.00 20.01    -0.327 OA
HETATM   23  C01   D T 401     -18.291   4.131   5.298  1.00 19.16     0.181 C 
ENDBRANCH  16  22
ENDBRANCH  13  14
ENDBRANCH  10  13
BRANCH   8  24
HETATM   24  OAV   D T 401     -18.146   2.889  -4.098  1.00 29.42    -0.326 OA
HETATM   25  CAA   D T 401     -19.298   3.747  -4.183  1.00 25.21     0.181 C 
ENDBRANCH   8  24
BRANCH   9  26
HETATM   26  OAW   D T 401     -15.606   2.324  -5.036  1.00 24.87    -0.329 OA
BRANCH  26  27
HETATM   27  CAN   D T 401     -14.385   1.557  -5.142  1.00 25.33     0.151 C 
BRANCH  27  28
HETATM   28  CAM   D T 401     -13.882   1.761  -6.600  1.00 30.63     0.068 C 
BRANCH  28  29
HETATM   29  CAC   D T 401     -13.215   3.130  -6.879  1.00 41.99     0.253 C 
BRANCH  29  30
HETATM   30  NBH   D T 401     -11.710   3.125  -6.751  1.00 46.77     0.141 N 
HETATM   31  CAP   D T 401     -11.192   3.443  -5.381  1.00 49.95     0.285 C 
HETATM   32  CAR   D T 401      -9.651   3.598  -5.403  1.00 58.84     0.285 C 
HETATM   33  NBI   D T 401      -8.995   2.377  -5.967  1.00 60.13     0.143 N 
HETATM   34  CAO   D T 401      -7.511   2.451  -5.882  1.00 54.26     0.285 C 
HETATM   35  CAS   D T 401      -9.493   2.045  -7.336  1.00 43.59     0.285 C 
HETATM   36  CAQ   D T 401     -11.038   1.917  -7.334  1.00 43.83     0.285 C 
ENDBRANCH  29  30
ENDBRANCH  28  29
ENDBRANCH  27  28
ENDBRANCH  26  27
ENDBRANCH   9  26
TORSDOF 9
ENDMDL
MODEL 7
REMARK VINA RESULT:    -7.315      2.165      3.551
REMARK INTER + INTRA:         -12.172
REMARK INTER:                 -10.961
REMARK INTRA:                  -1.211
REMARK UNBOUND:                -1.008
REMARK  9 active torsions:
REMARK  status: ('A' for Active; 'I' for Inactive)
REMARK    1  A    between atoms: O02_2  and  CAX_24 
REMARK    2  A    between atoms: CAC_3  and  CAM_13 
REMARK    3  A    between atoms: CAC_3  and  NBH_34 
REMARK    4  A    between atoms: CAM_13  and  CAN_14 
REMARK    5  A    between atoms: CAN_14  and  OAW_23 
REMARK    6  A    between atoms: NAU_21  and  CBB_28 
REMARK    7  A    between atoms: NAU_21  and  CBE_31 
REMARK    8  A    between atoms: OAV_22  and  CBC_29 
REMARK    9  A    between atoms: OAW_23  and  CBD_30 
ROOT
HETATM    1  NAD   D T 401     -16.850  -1.493  -6.636  1.00 19.83    -0.191 NA
HETATM    2  CAG   D T 401     -16.395  -0.502  -6.275  1.00 22.89     0.104 C 
HETATM    3  CAH   D T 401     -16.837   1.648  -5.627  1.00 14.94     0.111 A 
HETATM    4  CAK   D T 401     -14.800   4.460  -4.556  1.00 20.70     0.045 A 
HETATM    5  CAL   D T 401     -12.755   2.598  -5.009  1.00 20.29     0.029 A 
HETATM    6  NAT   D T 401     -16.438   2.858  -5.198  1.00 16.88    -0.243 NA
HETATM    7  CBA   D T 401     -15.888   0.636  -5.875  1.00 16.47     0.105 A 
HETATM    8  CBC   D T 401     -12.421   3.895  -4.560  1.00 25.88     0.116 A 
HETATM    9  CBD   D T 401     -13.461   4.824  -4.336  1.00 27.06     0.118 A 
HETATM   10  CBE   D T 401     -14.487   0.910  -5.687  1.00 22.24     0.094 A 
HETATM   11  CBF   D T 401     -15.129   3.169  -5.000  1.00 20.86     0.085 A 
HETATM   12  CBG   D T 401     -14.107   2.208  -5.236  1.00 20.86     0.038 A 
ENDROOT
BRANCH  10  13
HETATM   13  NAU   D T 401     -13.499  -0.037  -5.927  1.00 16.88    -0.244 NA
BRANCH  13  14
HETATM   14  CBB   D T 401     -13.236  -0.631  -7.129  1.00 19.80     0.094 A 
HETATM   15  CAJ   D T 401     -13.642  -1.963  -7.381  1.00 18.64     0.045 A 
HETATM   16  CAX   D T 401     -13.342  -2.562  -8.620  1.00 17.07     0.106 A 
HETATM   17  CAY   D T 401     -12.633  -1.842  -9.601  1.00 24.79     0.081 A 
HETATM   18 CL1    D T 401     -12.273  -2.604 -11.076  1.00 27.04    -0.080 Cl
HETATM   19  CAI   D T 401     -12.219  -0.521  -9.362  1.00 19.15     0.026 A 
HETATM   20  CAZ   D T 401     -12.520   0.082  -8.127  1.00 21.66     0.076 A 
HETATM   21 CL2    D T 401     -12.001   1.678  -7.882  1.00 21.61    -0.081 Cl
BRANCH  16  22
HETATM   22  O02   D T 401     -13.689  -3.851  -8.918  1.00 20.01    -0.327 OA
HETATM   23  C01   D T 401     -15.086  -4.102  -9.145  1.00 19.16     0.181 C 
ENDBRANCH  16  22
ENDBRANCH  13  14
ENDBRANCH  10  13
BRANCH   8  24
HETATM   24  OAV   D T 401     -11.120   4.287  -4.339  1.00 29.42    -0.326 OA
HETATM   25  CAA   D T 401     -10.163   3.868  -5.327  1.00 25.21     0.181 C 
ENDBRANCH   8  24
BRANCH   9  26
HETATM   26  OAW   D T 401     -13.176   6.087  -3.910  1.00 24.87    -0.329 OA
BRANCH  26  27
HETATM   27  CAN   D T 401     -13.688   6.493  -2.620  1.00 25.33     0.151 C 
BRANCH  27  28
HETATM   28  CAM   D T 401     -12.653   5.987  -1.574  1.00 30.63     0.068 C 
BRANCH  28  29
HETATM   29  CAC   D T 401     -13.041   4.677  -0.847  1.00 41.99     0.253 C 
BRANCH  29  30
HETATM   30  NBH   D T 401     -14.529   4.438  -0.749  1.00 46.77     0.141 N 
HETATM   31  CAP   D T 401     -14.983   3.088  -1.214  1.00 49.95     0.285 C 
HETATM   32  CAR   D T 401     -16.530   3.016  -1.250  1.00 58.84     0.285 C 
HETATM   33  NBI   D T 401     -17.117   3.362   0.082  1.00 60.13     0.143 N 
HETATM   34  CAO   D T 401     -18.594   3.178   0.106  1.00 54.26     0.285 C 
HETATM   35  CAS   D T 401     -16.681   4.709   0.562  1.00 43.59     0.285 C 
HETATM   36  CAQ   D T 401     -15.134   4.804   0.574  1.00 43.83     0.285 C 
ENDBRANCH  29  30
ENDBRANCH  28  29
ENDBRANCH  27  28
ENDBRANCH  26  27
ENDBRANCH   9  26
TORSDOF 9
ENDMDL
MODEL 8
REMARK VINA RESULT:    -7.310      3.311      9.615
REMARK INTER + INTRA:         -12.165
REMARK INTER:                 -11.021
REMARK INTRA:                  -1.144
REMARK UNBOUND:                -1.008
REMARK  9 active torsions:
REMARK  status: ('A' for Active; 'I' for Inactive)
REMARK    1  A    between atoms: O02_2  and  CAX_24 
REMARK    2  A    between atoms: CAC_3  and  CAM_13 
REMARK    3  A    between atoms: CAC_3  and  NBH_34 
REMARK    4  A    between atoms: CAM_13  and  CAN_14 
REMARK    5  A    between atoms: CAN_14  and  OAW_23 
REMARK    6  A    between atoms: NAU_21  and  CBB_28 
REMARK    7  A    between atoms: NAU_21  and  CBE_31 
REMARK    8  A    between atoms: OAV_22  and  CBC_29 
REMARK    9  A    between atoms: OAW_23  and  CBD_30 
ROOT
HETATM    1  NAD   D T 401     -14.713   7.729   2.357  1.00 19.83    -0.191 NA
HETATM    2  CAG   D T 401     -14.632   7.106   1.396  1.00 22.89     0.104 C 
HETATM    3  CAH   D T 401     -13.202   6.158  -0.119  1.00 14.94     0.111 A 
HETATM    4  CAK   D T 401     -13.629   4.200  -3.150  1.00 20.70     0.045 A 
HETATM    5  CAL   D T 401     -16.329   4.596  -2.513  1.00 20.29     0.029 A 
HETATM    6  NAT   D T 401     -12.966   5.438  -1.229  1.00 16.88    -0.243 NA
HETATM    7  CBA   D T 401     -14.526   6.406   0.295  1.00 16.47     0.105 A 
HETATM    8  CBC   D T 401     -15.993   3.852  -3.667  1.00 25.88     0.116 A 
HETATM    9  CBD   D T 401     -14.629   3.660  -3.976  1.00 27.06     0.118 A 
HETATM   10  CBE   D T 401     -15.625   5.903  -0.487  1.00 22.24     0.094 A 
HETATM   11  CBF   D T 401     -13.965   4.936  -2.002  1.00 20.86     0.085 A 
HETATM   12  CBG   D T 401     -15.329   5.149  -1.660  1.00 20.86     0.038 A 
ENDROOT
BRANCH  10  13
HETATM   13  NAU   D T 401     -16.953   6.123  -0.144  1.00 16.88    -0.244 NA
BRANCH  13  14
HETATM   14  CBB   D T 401     -17.736   5.287   0.601  1.00 19.80     0.094 A 
HETATM   15  CAJ   D T 401     -17.318   4.855   1.882  1.00 18.64     0.045 A 
HETATM   16  CAX   D T 401     -18.132   3.976   2.623  1.00 17.07     0.106 A 
HETATM   17  CAY   D T 401     -19.353   3.522   2.088  1.00 24.79     0.081 A 
HETATM   18 CL1    D T 401     -20.300   2.448   3.004  1.00 27.04    -0.080 Cl
HETATM   19  CAI   D T 401     -19.778   3.939   0.816  1.00 19.15     0.026 A 
HETATM   20  CAZ   D T 401     -18.970   4.818   0.074  1.00 21.66     0.076 A 
HETATM   21 CL2    D T 401     -19.522   5.295  -1.457  1.00 21.61    -0.081 Cl
BRANCH  16  22
HETATM   22  O02   D T 401     -17.776   3.507   3.857  1.00 20.01    -0.327 OA
HETATM   23  C01   D T 401     -18.320   4.206   4.990  1.00 19.16     0.181 C 
ENDBRANCH  16  22
ENDBRANCH  13  14
ENDBRANCH  10  13
BRANCH   8  24
HETATM   24  OAV   D T 401     -16.947   3.315  -4.501  1.00 29.42    -0.326 OA
HETATM   25  CAA   D T 401     -18.134   2.819  -3.858  1.00 25.21     0.181 C 
ENDBRANCH   8  24
BRANCH   9  26
HETATM   26  OAW   D T 401     -14.267   2.955  -5.086  1.00 24.87    -0.329 OA
BRANCH  26  27
HETATM   27  CAN   D T 401     -13.102   3.403  -5.816  1.00 25.33     0.151 C 
BRANCH  27  28
HETATM   28  CAM   D T 401     -13.219   2.768  -7.232  1.00 30.63     0.068 C 
BRANCH  28  29
HETATM   29  CAC   D T 401     -12.154   1.693  -7.560  1.00 41.99     0.253 C 
BRANCH  29  30
HETATM   30  NBH   D T 401     -12.677   0.276  -7.544  1.00 46.77     0.141 N 
HETATM   31  CAP   D T 401     -14.082   0.128  -7.046  1.00 49.95     0.285 C 
HETATM   32  CAR   D T 401     -14.452  -1.368  -6.892  1.00 58.84     0.285 C 
HETATM   33  NBI   D T 401     -14.243  -2.109  -8.175  1.00 60.13     0.143 N 
HETATM   34  CAO   D T 401     -14.709  -3.520  -8.087  1.00 54.26     0.285 C 
HETATM   35  CAS   D T 401     -12.845  -1.979  -8.686  1.00 43.59     0.285 C 
HETATM   36  CAQ   D T 401     -12.452  -0.485  -8.816  1.00 43.83     0.285 C 
ENDBRANCH  29  30
ENDBRANCH  28  29
ENDBRANCH  27  28
ENDBRANCH  26  27
ENDBRANCH   9  26
TORSDOF 9
ENDMDL
MODEL 9
REMARK VINA RESULT:    -7.305      2.410      2.954
REMARK INTER + INTRA:         -12.157
REMARK INTER:                 -11.369
REMARK INTRA:                  -0.788
REMARK UNBOUND:                -1.008
REMARK  9 active torsions:
REMARK  status: ('A' for Active; 'I' for Inactive)
REMARK    1  A    between atoms: O02_2  and  CAX_24 
REMARK    2  A    between atoms: CAC_3  and  CAM_13 
REMARK    3  A    between atoms: CAC_3  and  NBH_34 
REMARK    4  A    between atoms: CAM_13  and  CAN_14 
REMARK    5  A    between atoms: CAN_14  and  OAW_23 
REMARK    6  A    between atoms: NAU_21  and  CBB_28 
REMARK    7  A    between atoms: NAU_21  and  CBE_31 
REMARK    8  A    between atoms: OAV_22  and  CBC_29 
REMARK    9  A    between atoms: OAW_23  and  CBD_30 
ROOT
HETATM    1  NAD   D T 401      -8.927   1.813  -7.605  1.00 19.83    -0.191 NA
HETATM    2  CAG   D T 401      -9.708   2.335  -6.945  1.00 22.89     0.104 C 
HETATM    3  CAH   D T 401     -10.037   3.668  -5.113  1.00 14.94     0.111 A 
HETATM    4  CAK   D T 401     -12.961   5.027  -3.439  1.00 20.70     0.045 A 
HETATM    5  CAL   D T 401     -14.257   3.597  -5.470  1.00 20.29     0.029 A 
HETATM    6  NAT   D T 401     -10.841   4.331  -4.264  1.00 16.88    -0.243 NA
HETATM    7  CBA   D T 401     -10.588   2.927  -6.177  1.00 16.47     0.105 A 
HETATM    8  CBC   D T 401     -15.029   4.319  -4.534  1.00 25.88     0.116 A 
HETATM    9  CBD   D T 401     -14.364   5.035  -3.514  1.00 27.06     0.118 A 
HETATM   10  CBE   D T 401     -12.017   2.864  -6.339  1.00 22.24     0.094 A 
HETATM   11  CBF   D T 401     -12.196   4.310  -4.373  1.00 20.86     0.085 A 
HETATM   12  CBG   D T 401     -12.833   3.578  -5.413  1.00 20.86     0.038 A 
ENDROOT
BRANCH  10  13
HETATM   13  NAU   D T 401     -12.626   2.140  -7.356  1.00 16.88    -0.244 NA
BRANCH  13  14
HETATM   14  CBB   D T 401     -13.065   0.849  -7.266  1.00 19.80     0.094 A 
HETATM   15  CAJ   D T 401     -14.114   0.502  -6.382  1.00 18.64     0.045 A 
HETATM   16  CAX   D T 401     -14.536  -0.839  -6.291  1.00 17.07     0.106 A 
HETATM   17  CAY   D T 401     -13.910  -1.832  -7.070  1.00 24.79     0.081 A 
HETATM   18 CL1    D T 401     -14.435  -3.441  -6.919  1.00 27.04    -0.080 Cl
HETATM   19  CAI   D T 401     -12.865  -1.503  -7.947  1.00 19.15     0.026 A 
HETATM   20  CAZ   D T 401     -12.442  -0.164  -8.043  1.00 21.66     0.076 A 
HETATM   21 CL2    D T 401     -11.176   0.188  -9.115  1.00 21.61    -0.081 Cl
BRANCH  16  22
HETATM   22  O02   D T 401     -15.530  -1.242  -5.443  1.00 20.01    -0.327 OA
HETATM   23  C01   D T 401     -16.879  -1.061  -5.904  1.00 19.16     0.181 C 
ENDBRANCH  16  22
ENDBRANCH  13  14
ENDBRANCH  10  13
BRANCH   8  24
HETATM   24  OAV   D T 401     -16.405   4.345  -4.575  1.00 29.42    -0.326 OA
HETATM   25  CAA   D T 401     -17.048   3.083  -4.825  1.00 25.21     0.181 C 
ENDBRANCH   8  24
BRANCH   9  26
HETATM   26  OAW   D T 401     -15.077   5.737  -2.588  1.00 24.87    -0.329 OA
BRANCH  26  27
HETATM   27  CAN   D T 401     -14.602   5.720  -1.222  1.00 25.33     0.151 C 
BRANCH  27  28
HETATM   28  CAM   D T 401     -15.670   6.490  -0.392  1.00 30.63     0.068 C 
BRANCH  28  29
HETATM   29  CAC   D T 401     -16.771   5.607   0.244  1.00 41.99     0.253 C 
BRANCH  29  30
HETATM   30  NBH   D T 401     -18.146   6.233   0.244  1.00 46.77     0.141 N 
HETATM   31  CAP   D T 401     -18.209   7.616  -0.327  1.00 49.95     0.285 C 
HETATM   32  CAR   D T 401     -19.613   8.233  -0.107  1.00 58.84     0.285 C 
HETATM   33  NBI   D T 401     -20.682   7.355  -0.677  1.00 60.13     0.143 N 
HETATM   34  CAO   D T 401     -22.028   7.986  -0.589  1.00 54.26     0.285 C 
HETATM   35  CAS   D T 401     -20.640   5.971  -0.116  1.00 43.59     0.285 C 
HETATM   36  CAQ   D T 401     -19.231   5.353  -0.303  1.00 43.83     0.285 C 
ENDBRANCH  29  30
ENDBRANCH  28  29
ENDBRANCH  27  28
ENDBRANCH  26  27
ENDBRANCH   9  26
TORSDOF 9
ENDMDL
