MODEL 1
REMARK VINA RESULT:    -7.749      0.000      0.000
REMARK INTER + INTRA:         -13.216
REMARK INTER:                 -11.826
REMARK INTRA:                  -1.390
REMARK UNBOUND:                -1.390
REMARK  9 active torsions:
REMARK  status: ('A' for Active; 'I' for Inactive)
REMARK    1  A    between atoms: O02_2  and  CAX_24 
REMARK    2  A    between atoms: CAC_3  and  CAM_13 
REMARK    3  A    between atoms: CAC_3  and  NBH_34 
REMARK    4  A    between atoms: CAM_13  and  CAN_14 
REMARK    5  A    between atoms: CAN_14  and  OAW_23 
REMARK    6  A    between atoms: NAU_21  and  CBB_28 
REMARK    7  A    between atoms: NAU_21  and  CBE_31 
REMARK    8  A    between atoms: OAV_22  and  CBC_29 
REMARK    9  A    between atoms: OAW_23  and  CBD_30 
ROOT
HETATM    1  NAD   D T 401      -3.244  -2.098  -8.115  1.00 19.83    -0.191 NA
HETATM    2  CAG   D T 401      -4.284  -1.726  -7.799  1.00 22.89     0.104 C 
HETATM    3  CAH   D T 401      -5.992  -0.280  -8.276  1.00 14.94     0.111 A 
HETATM    4  CAK   D T 401      -9.213   0.452  -6.761  1.00 20.70     0.045 A 
HETATM    5  CAL   D T 401      -8.337  -1.519  -4.972  1.00 20.29     0.029 A 
HETATM    6  NAT   D T 401      -7.204   0.242  -8.019  1.00 16.88    -0.243 NA
HETATM    7  CBA   D T 401      -5.464  -1.285  -7.443  1.00 16.47     0.105 A 
HETATM    8  CBC   D T 401      -9.598  -0.917  -4.772  1.00 25.88     0.116 A 
HETATM    9  CBD   D T 401     -10.029   0.075  -5.680  1.00 27.06     0.118 A 
HETATM   10  CBE   D T 401      -6.217  -1.738  -6.302  1.00 22.24     0.094 A 
HETATM   11  CBF   D T 401      -7.960  -0.152  -6.959  1.00 20.86     0.085 A 
HETATM   12  CBG   D T 401      -7.496  -1.155  -6.063  1.00 20.86     0.038 A 
ENDROOT
BRANCH  10  13
HETATM   13  NAU   D T 401      -5.750  -2.714  -5.434  1.00 16.88    -0.244 NA
BRANCH  13  14
HETATM   14  CBB   D T 401      -5.551  -4.031  -5.743  1.00 19.80     0.094 A 
HETATM   15  CAJ   D T 401      -6.612  -4.829  -6.231  1.00 18.64     0.045 A 
HETATM   16  CAX   D T 401      -6.389  -6.188  -6.522  1.00 17.07     0.106 A 
HETATM   17  CAY   D T 401      -5.115  -6.755  -6.321  1.00 24.79     0.081 A 
HETATM   18 CL1    D T 401      -4.887  -8.403  -6.666  1.00 27.04    -0.080 Cl
HETATM   19  CAI   D T 401      -4.053  -5.977  -5.833  1.00 19.15     0.026 A 
HETATM   20  CAZ   D T 401      -4.271  -4.617  -5.543  1.00 21.66     0.076 A 
HETATM   21 CL2    D T 401      -2.960  -3.716  -4.955  1.00 21.61    -0.081 Cl
BRANCH  16  22
HETATM   22  O02   D T 401      -7.377  -7.017  -6.978  1.00 20.01    -0.327 OA
HETATM   23  C01   D T 401      -8.148  -6.539  -8.092  1.00 19.16     0.181 C 
ENDBRANCH  16  22
ENDBRANCH  13  14
ENDBRANCH  10  13
BRANCH   8  24
HETATM   24  OAV   D T 401     -10.421  -1.258  -3.721  1.00 29.42    -0.326 OA
HETATM   25  CAA   D T 401     -10.814  -2.640  -3.657  1.00 25.21     0.181 C 
ENDBRANCH   8  24
BRANCH   9  26
HETATM   26  OAW   D T 401     -11.236   0.685  -5.514  1.00 24.87    -0.329 OA
BRANCH  26  27
HETATM   27  CAN   D T 401     -11.327   1.737  -4.527  1.00 25.33     0.151 C 
BRANCH  27  28
HETATM   28  CAM   D T 401     -11.122   3.069  -5.304  1.00 30.63     0.068 C 
BRANCH  28  29
HETATM   29  CAC   D T 401     -10.293   4.144  -4.558  1.00 41.99     0.253 C 
BRANCH  29  30
HETATM   30  NBH   D T 401      -9.406   4.977  -5.453  1.00 46.77     0.141 N 
HETATM   31  CAP   D T 401      -9.055   6.328  -4.912  1.00 49.95     0.285 C 
HETATM   32  CAR   D T 401      -8.306   7.166  -5.979  1.00 58.84     0.285 C 
HETATM   33  NBI   D T 401      -7.094   6.443  -6.477  1.00 60.13     0.143 N 
HETATM   34  CAO   D T 401      -6.291   7.278  -7.411  1.00 54.26     0.285 C 
HETATM   35  CAS   D T 401      -7.425   5.093  -7.028  1.00 43.59     0.285 C 
HETATM   36  CAQ   D T 401      -8.199   4.256  -5.979  1.00 43.83     0.285 C 
ENDBRANCH  29  30
ENDBRANCH  28  29
ENDBRANCH  27  28
ENDBRANCH  26  27
ENDBRANCH   9  26
TORSDOF 9
ENDMDL
MODEL 2
REMARK VINA RESULT:    -7.239      4.596     11.285
REMARK INTER + INTRA:         -12.438
REMARK INTER:                 -10.919
REMARK INTRA:                  -1.519
REMARK UNBOUND:                -1.390
REMARK  9 active torsions:
REMARK  status: ('A' for Active; 'I' for Inactive)
REMARK    1  A    between atoms: O02_2  and  CAX_24 
REMARK    2  A    between atoms: CAC_3  and  CAM_13 
REMARK    3  A    between atoms: CAC_3  and  NBH_34 
REMARK    4  A    between atoms: CAM_13  and  CAN_14 
REMARK    5  A    between atoms: CAN_14  and  OAW_23 
REMARK    6  A    between atoms: NAU_21  and  CBB_28 
REMARK    7  A    between atoms: NAU_21  and  CBE_31 
REMARK    8  A    between atoms: OAV_22  and  CBC_29 
REMARK    9  A    between atoms: OAW_23  and  CBD_30 
ROOT
HETATM    1  NAD   D T 401      -4.214  -0.279  -5.508  1.00 19.83    -0.191 NA
HETATM    2  CAG   D T 401      -4.326  -1.414  -5.641  1.00 22.89     0.104 C 
HETATM    3  CAH   D T 401      -3.353  -3.457  -5.293  1.00 14.94     0.111 A 
HETATM    4  CAK   D T 401      -4.300  -6.889  -6.015  1.00 20.70     0.045 A 
HETATM    5  CAL   D T 401      -6.539  -5.593  -7.092  1.00 20.29     0.029 A 
HETATM    6  NAT   D T 401      -3.360  -4.798  -5.381  1.00 16.88    -0.243 NA
HETATM    7  CBA   D T 401      -4.437  -2.710  -5.794  1.00 16.47     0.105 A 
HETATM    8  CBC   D T 401      -6.464  -7.002  -7.148  1.00 25.88     0.116 A 
HETATM    9  CBD   D T 401      -5.331  -7.644  -6.601  1.00 27.06     0.118 A 
HETATM   10  CBE   D T 401      -5.543  -3.386  -6.422  1.00 22.24     0.094 A 
HETATM   11  CBF   D T 401      -4.379  -5.488  -5.959  1.00 20.86     0.085 A 
HETATM   12  CBG   D T 401      -5.507  -4.809  -6.499  1.00 20.86     0.038 A 
ENDROOT
BRANCH  10  13
HETATM   13  NAU   D T 401      -6.634  -2.711  -6.949  1.00 16.88    -0.244 NA
BRANCH  13  14
HETATM   14  CBB   D T 401      -7.635  -2.121  -6.228  1.00 19.80     0.094 A 
HETATM   15  CAJ   D T 401      -8.409  -2.874  -5.313  1.00 18.64     0.045 A 
HETATM   16  CAX   D T 401      -9.448  -2.251  -4.597  1.00 17.07     0.106 A 
HETATM   17  CAY   D T 401      -9.723  -0.883  -4.796  1.00 24.79     0.081 A 
HETATM   18 CL1    D T 401     -10.996  -0.168  -3.927  1.00 27.04    -0.080 Cl
HETATM   19  CAI   D T 401      -8.967  -0.124  -5.704  1.00 19.15     0.026 A 
HETATM   20  CAZ   D T 401      -7.925  -0.743  -6.419  1.00 21.66     0.076 A 
HETATM   21 CL2    D T 401      -7.039   0.211  -7.506  1.00 21.61    -0.081 Cl
BRANCH  16  22
HETATM   22  O02   D T 401     -10.243  -2.926  -3.713  1.00 20.01    -0.327 OA
HETATM   23  C01   D T 401     -10.533  -4.296  -4.032  1.00 19.16     0.181 C 
ENDBRANCH  16  22
ENDBRANCH  13  14
ENDBRANCH  10  13
BRANCH   8  24
HETATM   24  OAV   D T 401      -7.453  -7.772  -7.718  1.00 29.42    -0.326 OA
HETATM   25  CAA   D T 401      -8.718  -7.117  -7.922  1.00 25.21     0.181 C 
ENDBRANCH   8  24
BRANCH   9  26
HETATM   26  OAW   D T 401      -5.220  -9.002  -6.644  1.00 24.87    -0.329 OA
BRANCH  26  27
HETATM   27  CAN   D T 401      -4.125  -9.562  -7.403  1.00 25.33     0.151 C 
BRANCH  27  28
HETATM   28  CAM   D T 401      -4.761 -10.621  -8.349  1.00 30.63     0.068 C 
BRANCH  28  29
HETATM   29  CAC   D T 401      -6.178 -11.096  -7.946  1.00 41.99     0.253 C 
BRANCH  29  30
HETATM   30  NBH   D T 401      -6.223 -12.483  -7.350  1.00 46.77     0.141 N 
HETATM   31  CAP   D T 401      -4.903 -13.011  -6.881  1.00 49.95     0.285 C 
HETATM   32  CAR   D T 401      -5.027 -14.499  -6.466  1.00 58.84     0.285 C 
HETATM   33  NBI   D T 401      -6.090 -14.682  -5.430  1.00 60.13     0.143 N 
HETATM   34  CAO   D T 401      -6.144 -16.082  -4.926  1.00 54.26     0.285 C 
HETATM   35  CAS   D T 401      -7.419 -14.167  -5.883  1.00 43.59     0.285 C 
HETATM   36  CAQ   D T 401      -7.302 -12.687  -6.327  1.00 43.83     0.285 C 
ENDBRANCH  29  30
ENDBRANCH  28  29
ENDBRANCH  27  28
ENDBRANCH  26  27
ENDBRANCH   9  26
TORSDOF 9
ENDMDL
MODEL 3
REMARK VINA RESULT:    -7.206      3.956      8.900
REMARK INTER + INTRA:         -12.387
REMARK INTER:                 -10.278
REMARK INTRA:                  -2.109
REMARK UNBOUND:                -1.390
REMARK  9 active torsions:
REMARK  status: ('A' for Active; 'I' for Inactive)
REMARK    1  A    between atoms: O02_2  and  CAX_24 
REMARK    2  A    between atoms: CAC_3  and  CAM_13 
REMARK    3  A    between atoms: CAC_3  and  NBH_34 
REMARK    4  A    between atoms: CAM_13  and  CAN_14 
REMARK    5  A    between atoms: CAN_14  and  OAW_23 
REMARK    6  A    between atoms: NAU_21  and  CBB_28 
REMARK    7  A    between atoms: NAU_21  and  CBE_31 
REMARK    8  A    between atoms: OAV_22  and  CBC_29 
REMARK    9  A    between atoms: OAW_23  and  CBD_30 
ROOT
HETATM    1  NAD   D T 401     -11.576   4.154  -6.581  1.00 19.83    -0.191 NA
HETATM    2  CAG   D T 401     -10.915   3.232  -6.758  1.00 22.89     0.104 C 
HETATM    3  CAH   D T 401     -10.790   1.163  -7.729  1.00 14.94     0.111 A 
HETATM    4  CAK   D T 401      -8.243  -1.422  -7.906  1.00 20.70     0.045 A 
HETATM    5  CAL   D T 401      -6.852   0.442  -6.342  1.00 20.29     0.029 A 
HETATM    6  NAT   D T 401     -10.125   0.030  -8.012  1.00 16.88    -0.243 NA
HETATM    7  CBA   D T 401     -10.177   2.169  -6.957  1.00 16.47     0.105 A 
HETATM    8  CBC   D T 401      -6.226  -0.777  -6.683  1.00 25.88     0.116 A 
HETATM    9  CBD   D T 401      -6.937  -1.709  -7.472  1.00 27.06     0.118 A 
HETATM   10  CBE   D T 401      -8.842   1.972  -6.456  1.00 22.24     0.094 A 
HETATM   11  CBF   D T 401      -8.861  -0.207  -7.568  1.00 20.86     0.085 A 
HETATM   12  CBG   D T 401      -8.174   0.754  -6.776  1.00 20.86     0.038 A 
ENDROOT
BRANCH  10  13
HETATM   13  NAU   D T 401      -8.184   2.916  -5.680  1.00 16.88    -0.244 NA
BRANCH  13  14
HETATM   14  CBB   D T 401      -8.086   4.251  -5.957  1.00 19.80     0.094 A 
HETATM   15  CAJ   D T 401      -7.443   4.702  -7.134  1.00 18.64     0.045 A 
HETATM   16  CAX   D T 401      -7.335   6.083  -7.388  1.00 17.07     0.106 A 
HETATM   17  CAY   D T 401      -7.857   7.014  -6.469  1.00 24.79     0.081 A 
HETATM   18 CL1    D T 401      -7.693   8.672  -6.799  1.00 27.04    -0.080 Cl
HETATM   19  CAI   D T 401      -8.495   6.582  -5.294  1.00 19.15     0.026 A 
HETATM   20  CAZ   D T 401      -8.607   5.203  -5.038  1.00 21.66     0.076 A 
HETATM   21 CL2    D T 401      -9.383   4.727  -3.607  1.00 21.61    -0.081 Cl
BRANCH  16  22
HETATM   22  O02   D T 401      -6.709   6.582  -8.496  1.00 20.01    -0.327 OA
HETATM   23  C01   D T 401      -5.435   6.005  -8.826  1.00 19.16     0.181 C 
ENDBRANCH  16  22
ENDBRANCH  13  14
ENDBRANCH  10  13
BRANCH   8  24
HETATM   24  OAV   D T 401      -4.951  -1.093  -6.270  1.00 29.42    -0.326 OA
HETATM   25  CAA   D T 401      -4.838  -1.632  -4.941  1.00 25.21     0.181 C 
ENDBRANCH   8  24
BRANCH   9  26
HETATM   26  OAW   D T 401      -6.369  -2.899  -7.812  1.00 24.87    -0.329 OA
BRANCH  26  27
HETATM   27  CAN   D T 401      -7.180  -4.090  -7.690  1.00 25.33     0.151 C 
BRANCH  27  28
HETATM   28  CAM   D T 401      -6.691  -4.807  -6.399  1.00 30.63     0.068 C 
BRANCH  28  29
HETATM   29  CAC   D T 401      -7.713  -4.837  -5.237  1.00 41.99     0.253 C 
BRANCH  29  30
HETATM   30  NBH   D T 401      -8.604  -3.620  -5.162  1.00 46.77     0.141 N 
HETATM   31  CAP   D T 401     -10.069  -3.900  -5.301  1.00 49.95     0.285 C 
HETATM   32  CAR   D T 401     -10.871  -2.578  -5.399  1.00 58.84     0.285 C 
HETATM   33  NBI   D T 401     -10.591  -1.691  -4.228  1.00 60.13     0.143 N 
HETATM   34  CAO   D T 401     -11.443  -0.470  -4.237  1.00 54.26     0.285 C 
HETATM   35  CAS   D T 401      -9.135  -1.393  -4.076  1.00 43.59     0.285 C 
HETATM   36  CAQ   D T 401      -8.318  -2.708  -4.004  1.00 43.83     0.285 C 
ENDBRANCH  29  30
ENDBRANCH  28  29
ENDBRANCH  27  28
ENDBRANCH  26  27
ENDBRANCH   9  26
TORSDOF 9
ENDMDL
MODEL 4
REMARK VINA RESULT:    -7.169      4.382      7.239
REMARK INTER + INTRA:         -12.330
REMARK INTER:                 -11.317
REMARK INTRA:                  -1.013
REMARK UNBOUND:                -1.390
REMARK  9 active torsions:
REMARK  status: ('A' for Active; 'I' for Inactive)
REMARK    1  A    between atoms: O02_2  and  CAX_24 
REMARK    2  A    between atoms: CAC_3  and  CAM_13 
REMARK    3  A    between atoms: CAC_3  and  NBH_34 
REMARK    4  A    between atoms: CAM_13  and  CAN_14 
REMARK    5  A    between atoms: CAN_14  and  OAW_23 
REMARK    6  A    between atoms: NAU_21  and  CBB_28 
REMARK    7  A    between atoms: NAU_21  and  CBE_31 
REMARK    8  A    between atoms: OAV_22  and  CBC_29 
REMARK    9  A    between atoms: OAW_23  and  CBD_30 
ROOT
HETATM    1  NAD   D T 401      -9.709  -8.868  -8.368  1.00 19.83    -0.191 NA
HETATM    2  CAG   D T 401      -8.918  -8.085  -8.085  1.00 22.89     0.104 C 
HETATM    3  CAH   D T 401      -8.211  -5.929  -8.385  1.00 14.94     0.111 A 
HETATM    4  CAK   D T 401      -5.437  -3.955  -7.118  1.00 20.70     0.045 A 
HETATM    5  CAL   D T 401      -4.863  -6.376  -5.828  1.00 20.29     0.029 A 
HETATM    6  NAT   D T 401      -7.358  -4.921  -8.136  1.00 16.88    -0.243 NA
HETATM    7  CBA   D T 401      -8.018  -7.186  -7.778  1.00 16.47     0.105 A 
HETATM    8  CBC   D T 401      -4.014  -5.266  -5.623  1.00 25.88     0.116 A 
HETATM    9  CBD   D T 401      -4.313  -4.051  -6.278  1.00 27.06     0.118 A 
HETATM   10  CBE   D T 401      -6.892  -7.393  -6.905  1.00 22.24     0.094 A 
HETATM   11  CBF   D T 401      -6.281  -5.060  -7.317  1.00 20.86     0.085 A 
HETATM   12  CBG   D T 401      -6.009  -6.298  -6.672  1.00 20.86     0.038 A 
ENDROOT
BRANCH  10  13
HETATM   13  NAU   D T 401      -6.635  -8.608  -6.286  1.00 16.88    -0.244 NA
BRANCH  13  14
HETATM   14  CBB   D T 401      -6.384  -9.792  -6.922  1.00 19.80     0.094 A 
HETATM   15  CAJ   D T 401      -7.394 -10.774  -7.051  1.00 18.64     0.045 A 
HETATM   16  CAX   D T 401      -7.106 -11.995  -7.690  1.00 17.07     0.106 A 
HETATM   17  CAY   D T 401      -5.813 -12.242  -8.194  1.00 24.79     0.081 A 
HETATM   18 CL1    D T 401      -5.497 -13.733  -8.944  1.00 27.04    -0.080 Cl
HETATM   19  CAI   D T 401      -4.799 -11.278  -8.070  1.00 19.15     0.026 A 
HETATM   20  CAZ   D T 401      -5.084 -10.056  -7.433  1.00 21.66     0.076 A 
HETATM   21 CL2    D T 401      -3.829  -8.922  -7.305  1.00 21.61    -0.081 Cl
BRANCH  16  22
HETATM   22  O02   D T 401      -8.032 -12.991  -7.830  1.00 20.01    -0.327 OA
HETATM   23  C01   D T 401      -8.362 -13.728  -6.641  1.00 19.16     0.181 C 
ENDBRANCH  16  22
ENDBRANCH  13  14
ENDBRANCH  10  13
BRANCH   8  24
HETATM   24  OAV   D T 401      -2.902  -5.327  -4.812  1.00 29.42    -0.326 OA
HETATM   25  CAA   D T 401      -2.191  -6.578  -4.816  1.00 25.21     0.181 C 
ENDBRANCH   8  24
BRANCH   9  26
HETATM   26  OAW   D T 401      -3.512  -2.962  -6.112  1.00 24.87    -0.329 OA
BRANCH  26  27
HETATM   27  CAN   D T 401      -3.940  -1.715  -6.705  1.00 25.33     0.151 C 
BRANCH  27  28
HETATM   28  CAM   D T 401      -4.624  -0.912  -5.561  1.00 30.63     0.068 C 
BRANCH  28  29
HETATM   29  CAC   D T 401      -5.972  -0.249  -5.939  1.00 41.99     0.253 C 
BRANCH  29  30
HETATM   30  NBH   D T 401      -7.191  -1.030  -5.508  1.00 46.77     0.141 N 
HETATM   31  CAP   D T 401      -8.007  -1.595  -6.630  1.00 49.95     0.285 C 
HETATM   32  CAR   D T 401      -9.324  -2.208  -6.091  1.00 58.84     0.285 C 
HETATM   33  NBI   D T 401      -9.048  -3.237  -5.041  1.00 60.13     0.143 N 
HETATM   34  CAO   D T 401     -10.290  -3.928  -4.597  1.00 54.26     0.285 C 
HETATM   35  CAS   D T 401      -8.240  -2.691  -3.909  1.00 43.59     0.285 C 
HETATM   36  CAQ   D T 401      -6.932  -2.049  -4.438  1.00 43.83     0.285 C 
ENDBRANCH  29  30
ENDBRANCH  28  29
ENDBRANCH  27  28
ENDBRANCH  26  27
ENDBRANCH   9  26
TORSDOF 9
ENDMDL
MODEL 5
REMARK VINA RESULT:    -6.752      2.651      4.632
REMARK INTER + INTRA:         -11.695
REMARK INTER:                 -10.413
REMARK INTRA:                  -1.282
REMARK UNBOUND:                -1.390
REMARK  9 active torsions:
REMARK  status: ('A' for Active; 'I' for Inactive)
REMARK    1  A    between atoms: O02_2  and  CAX_24 
REMARK    2  A    between atoms: CAC_3  and  CAM_13 
REMARK    3  A    between atoms: CAC_3  and  NBH_34 
REMARK    4  A    between atoms: CAM_13  and  CAN_14 
REMARK    5  A    between atoms: CAN_14  and  OAW_23 
REMARK    6  A    between atoms: NAU_21  and  CBB_28 
REMARK    7  A    between atoms: NAU_21  and  CBE_31 
REMARK    8  A    between atoms: OAV_22  and  CBC_29 
REMARK    9  A    between atoms: OAW_23  and  CBD_30 
ROOT
HETATM    1  NAD   D T 401     -11.001  -4.530  -4.762  1.00 19.83    -0.191 NA
HETATM    2  CAG   D T 401     -10.976  -3.383  -4.825  1.00 22.89     0.104 C 
HETATM    3  CAH   D T 401     -11.793  -1.431  -3.953  1.00 14.94     0.111 A 
HETATM    4  CAK   D T 401     -11.280   2.094  -4.668  1.00 20.70     0.045 A 
HETATM    5  CAL   D T 401      -9.589   1.010  -6.623  1.00 20.29     0.029 A 
HETATM    6  NAT   D T 401     -11.855  -0.089  -3.917  1.00 16.88    -0.243 NA
HETATM    7  CBA   D T 401     -10.965  -2.076  -4.892  1.00 16.47     0.105 A 
HETATM    8  CBC   D T 401      -9.714   2.413  -6.519  1.00 25.88     0.116 A 
HETATM    9  CBD   D T 401     -10.569   2.948  -5.530  1.00 27.06     0.118 A 
HETATM   10  CBE   D T 401     -10.199  -1.293  -5.827  1.00 22.24     0.094 A 
HETATM   11  CBF   D T 401     -11.150   0.699  -4.772  1.00 20.86     0.085 A 
HETATM   12  CBG   D T 401     -10.297   0.127  -5.757  1.00 20.86     0.038 A 
ENDROOT
BRANCH  10  13
HETATM   13  NAU   D T 401      -9.374  -1.864  -6.786  1.00 16.88    -0.244 NA
BRANCH  13  14
HETATM   14  CBB   D T 401      -8.156  -2.439  -6.554  1.00 19.80     0.094 A 
HETATM   15  CAJ   D T 401      -7.201  -1.802  -5.726  1.00 18.64     0.045 A 
HETATM   16  CAX   D T 401      -5.944  -2.402  -5.518  1.00 17.07     0.106 A 
HETATM   17  CAY   D T 401      -5.634  -3.629  -6.138  1.00 24.79     0.081 A 
HETATM   18 CL1    D T 401      -4.103  -4.315  -5.879  1.00 27.04    -0.080 Cl
HETATM   19  CAI   D T 401      -6.571  -4.271  -6.966  1.00 19.15     0.026 A 
HETATM   20  CAZ   D T 401      -7.829  -3.675  -7.174  1.00 21.66     0.076 A 
HETATM   21 CL2    D T 401      -8.928  -4.485  -8.181  1.00 21.61    -0.081 Cl
BRANCH  16  22
HETATM   22  O02   D T 401      -4.972  -1.829  -4.746  1.00 20.01    -0.327 OA
HETATM   23  C01   D T 401      -4.479  -0.552  -5.182  1.00 19.16     0.181 C 
ENDBRANCH  16  22
ENDBRANCH  13  14
ENDBRANCH  10  13
BRANCH   8  24
HETATM   24  OAV   D T 401      -9.037   3.278  -7.350  1.00 29.42    -0.326 OA
HETATM   25  CAA   D T 401      -9.851   4.039  -8.260  1.00 25.21     0.181 C 
ENDBRANCH   8  24
BRANCH   9  26
HETATM   26  OAW   D T 401     -10.722   4.296  -5.406  1.00 24.87    -0.329 OA
BRANCH  26  27
HETATM   27  CAN   D T 401     -10.704   4.854  -4.073  1.00 25.33     0.151 C 
BRANCH  27  28
HETATM   28  CAM   D T 401      -9.559   5.908  -4.068  1.00 30.63     0.068 C 
BRANCH  28  29
HETATM   29  CAC   D T 401      -9.608   6.936  -5.225  1.00 41.99     0.253 C 
BRANCH  29  30
HETATM   30  NBH   D T 401      -8.431   6.865  -6.169  1.00 46.77     0.141 N 
HETATM   31  CAP   D T 401      -7.666   8.144  -6.320  1.00 49.95     0.285 C 
HETATM   32  CAR   D T 401      -6.606   8.016  -7.443  1.00 58.84     0.285 C 
HETATM   33  NBI   D T 401      -5.693   6.858  -7.191  1.00 60.13     0.143 N 
HETATM   34  CAO   D T 401      -4.591   6.789  -8.190  1.00 54.26     0.285 C 
HETATM   35  CAS   D T 401      -6.437   5.570  -7.044  1.00 43.59     0.285 C 
HETATM   36  CAQ   D T 401      -7.520   5.694  -5.942  1.00 43.83     0.285 C 
ENDBRANCH  29  30
ENDBRANCH  28  29
ENDBRANCH  27  28
ENDBRANCH  26  27
ENDBRANCH   9  26
TORSDOF 9
ENDMDL
MODEL 6
REMARK VINA RESULT:    -6.732      2.525      4.436
REMARK INTER + INTRA:         -11.663
REMARK INTER:                 -10.712
REMARK INTRA:                  -0.951
REMARK UNBOUND:                -1.390
REMARK  9 active torsions:
REMARK  status: ('A' for Active; 'I' for Inactive)
REMARK    1  A    between atoms: O02_2  and  CAX_24 
REMARK    2  A    between atoms: CAC_3  and  CAM_13 
REMARK    3  A    between atoms: CAC_3  and  NBH_34 
REMARK    4  A    between atoms: CAM_13  and  CAN_14 
REMARK    5  A    between atoms: CAN_14  and  OAW_23 
REMARK    6  A    between atoms: NAU_21  and  CBB_28 
REMARK    7  A    between atoms: NAU_21  and  CBE_31 
REMARK    8  A    between atoms: OAV_22  and  CBC_29 
REMARK    9  A    between atoms: OAW_23  and  CBD_30 
ROOT
HETATM    1  NAD   D T 401      -9.643  -4.062  -4.940  1.00 19.83    -0.191 NA
HETATM    2  CAG   D T 401      -9.951  -2.956  -4.957  1.00 22.89     0.104 C 
HETATM    3  CAH   D T 401     -11.125  -1.312  -3.881  1.00 14.94     0.111 A 
HETATM    4  CAK   D T 401     -11.748   2.210  -4.517  1.00 20.70     0.045 A 
HETATM    5  CAL   D T 401     -10.173   1.642  -6.765  1.00 20.29     0.029 A 
HETATM    6  NAT   D T 401     -11.554  -0.042  -3.778  1.00 16.88    -0.243 NA
HETATM    7  CBA   D T 401     -10.318  -1.700  -4.969  1.00 16.47     0.105 A 
HETATM    8  CBC   D T 401     -10.668   2.952  -6.582  1.00 25.88     0.116 A 
HETATM    9  CBD   D T 401     -11.460   3.227  -5.445  1.00 27.06     0.118 A 
HETATM   10  CBE   D T 401      -9.971  -0.736  -5.980  1.00 22.24     0.094 A 
HETATM   11  CBF   D T 401     -11.252   0.909  -4.701  1.00 20.86     0.085 A 
HETATM   12  CBG   D T 401     -10.450   0.599  -5.835  1.00 20.86     0.038 A 
ENDROOT
BRANCH  10  13
HETATM   13  NAU   D T 401      -9.191  -1.054  -7.084  1.00 16.88    -0.244 NA
BRANCH  13  14
HETATM   14  CBB   D T 401      -7.872  -1.412  -7.055  1.00 19.80     0.094 A 
HETATM   15  CAJ   D T 401      -7.482  -2.758  -7.252  1.00 18.64     0.045 A 
HETATM   16  CAX   D T 401      -6.119  -3.107  -7.197  1.00 17.07     0.106 A 
HETATM   17  CAY   D T 401      -5.147  -2.121  -6.937  1.00 24.79     0.081 A 
HETATM   18 CL1    D T 401      -3.514  -2.582  -6.860  1.00 27.04    -0.080 Cl
HETATM   19  CAI   D T 401      -5.519  -0.782  -6.735  1.00 19.15     0.026 A 
HETATM   20  CAZ   D T 401      -6.880  -0.429  -6.793  1.00 21.66     0.076 A 
HETATM   21 CL2    D T 401      -7.283   1.199  -6.541  1.00 21.61    -0.081 Cl
BRANCH  16  22
HETATM   22  O02   D T 401      -5.680  -4.391  -7.360  1.00 20.01    -0.327 OA
HETATM   23  C01   D T 401      -6.592  -5.433  -6.977  1.00 19.16     0.181 C 
ENDBRANCH  16  22
ENDBRANCH  13  14
ENDBRANCH  10  13
BRANCH   8  24
HETATM   24  OAV   D T 401     -10.409   3.970  -7.473  1.00 29.42    -0.326 OA
HETATM   25  CAA   D T 401      -9.370   3.713  -8.434  1.00 25.21     0.181 C 
ENDBRANCH   8  24
BRANCH   9  26
HETATM   26  OAW   D T 401     -11.962   4.477  -5.240  1.00 24.87    -0.329 OA
BRANCH  26  27
HETATM   27  CAN   D T 401     -11.665   5.122  -3.981  1.00 25.33     0.151 C 
BRANCH  27  28
HETATM   28  CAM   D T 401     -10.219   5.682  -4.121  1.00 30.63     0.068 C 
BRANCH  28  29
HETATM   29  CAC   D T 401     -10.073   6.892  -5.076  1.00 41.99     0.253 C 
BRANCH  29  30
HETATM   30  NBH   D T 401      -8.837   6.853  -5.943  1.00 46.77     0.141 N 
HETATM   31  CAP   D T 401      -8.083   8.145  -6.025  1.00 49.95     0.285 C 
HETATM   32  CAR   D T 401      -6.952   8.050  -7.079  1.00 58.84     0.285 C 
HETATM   33  NBI   D T 401      -6.040   6.901  -6.788  1.00 60.13     0.143 N 
HETATM   34  CAO   D T 401      -4.875   6.864  -7.715  1.00 54.26     0.285 C 
HETATM   35  CAS   D T 401      -6.773   5.600  -6.709  1.00 43.59     0.285 C 
HETATM   36  CAQ   D T 401      -7.926   5.691  -5.677  1.00 43.83     0.285 C 
ENDBRANCH  29  30
ENDBRANCH  28  29
ENDBRANCH  27  28
ENDBRANCH  26  27
ENDBRANCH   9  26
TORSDOF 9
ENDMDL
MODEL 7
REMARK VINA RESULT:    -6.705      3.601      5.056
REMARK INTER + INTRA:         -11.623
REMARK INTER:                  -9.737
REMARK INTRA:                  -1.886
REMARK UNBOUND:                -1.390
REMARK  9 active torsions:
REMARK  status: ('A' for Active; 'I' for Inactive)
REMARK    1  A    between atoms: O02_2  and  CAX_24 
REMARK    2  A    between atoms: CAC_3  and  CAM_13 
REMARK    3  A    between atoms: CAC_3  and  NBH_34 
REMARK    4  A    between atoms: CAM_13  and  CAN_14 
REMARK    5  A    between atoms: CAN_14  and  OAW_23 
REMARK    6  A    between atoms: NAU_21  and  CBB_28 
REMARK    7  A    between atoms: NAU_21  and  CBE_31 
REMARK    8  A    between atoms: OAV_22  and  CBC_29 
REMARK    9  A    between atoms: OAW_23  and  CBD_30 
ROOT
HETATM    1  NAD   D T 401      -7.580  -2.321  -7.258  1.00 19.83    -0.191 NA
HETATM    2  CAG   D T 401      -8.152  -1.328  -7.186  1.00 22.89     0.104 C 
HETATM    3  CAH   D T 401      -8.622   0.655  -8.228  1.00 14.94     0.111 A 
HETATM    4  CAK   D T 401     -10.628   3.565  -7.388  1.00 20.70     0.045 A 
HETATM    5  CAL   D T 401     -11.077   2.054  -5.071  1.00 20.29     0.029 A 
HETATM    6  NAT   D T 401      -9.239   1.848  -8.272  1.00 16.88    -0.243 NA
HETATM    7  CBA   D T 401      -8.790  -0.187  -7.111  1.00 16.47     0.105 A 
HETATM    8  CBC   D T 401     -11.685   3.322  -5.197  1.00 25.88     0.116 A 
HETATM    9  CBD   D T 401     -11.452   4.074  -6.369  1.00 27.06     0.118 A 
HETATM   10  CBE   D T 401      -9.609   0.243  -6.008  1.00 22.24     0.094 A 
HETATM   11  CBF   D T 401     -10.027   2.302  -7.261  1.00 20.86     0.085 A 
HETATM   12  CBG   D T 401     -10.241   1.518  -6.094  1.00 20.86     0.038 A 
ENDROOT
BRANCH  10  13
HETATM   13  NAU   D T 401      -9.806  -0.531  -4.873  1.00 16.88    -0.244 NA
BRANCH  13  14
HETATM   14  CBB   D T 401     -10.587  -1.650  -4.793  1.00 19.80     0.094 A 
HETATM   15  CAJ   D T 401     -11.957  -1.604  -5.144  1.00 18.64     0.045 A 
HETATM   16  CAX   D T 401     -12.747  -2.763  -5.033  1.00 17.07     0.106 A 
HETATM   17  CAY   D T 401     -12.179  -3.965  -4.567  1.00 24.79     0.081 A 
HETATM   18 CL1    D T 401     -13.166  -5.340  -4.430  1.00 27.04    -0.080 Cl
HETATM   19  CAI   D T 401     -10.821  -4.026  -4.211  1.00 19.15     0.026 A 
HETATM   20  CAZ   D T 401     -10.028  -2.869  -4.323  1.00 21.66     0.076 A 
HETATM   21 CL2    D T 401      -8.394  -2.988  -3.881  1.00 21.61    -0.081 Cl
BRANCH  16  22
HETATM   22  O02   D T 401     -14.080  -2.780  -5.338  1.00 20.01    -0.327 OA
HETATM   23  C01   D T 401     -14.955  -2.113  -4.415  1.00 19.16     0.181 C 
ENDBRANCH  16  22
ENDBRANCH  13  14
ENDBRANCH  10  13
BRANCH   8  24
HETATM   24  OAV   D T 401     -12.494   3.853  -4.217  1.00 29.42    -0.326 OA
HETATM   25  CAA   D T 401     -11.814   4.501  -3.127  1.00 25.21     0.181 C 
ENDBRANCH   8  24
BRANCH   9  26
HETATM   26  OAW   D T 401     -12.015   5.306  -6.522  1.00 24.87    -0.329 OA
BRANCH  26  27
HETATM   27  CAN   D T 401     -11.129   6.427  -6.738  1.00 25.33     0.151 C 
BRANCH  27  28
HETATM   28  CAM   D T 401     -10.789   6.980  -5.324  1.00 30.63     0.068 C 
BRANCH  28  29
HETATM   29  CAC   D T 401      -9.280   7.028  -4.983  1.00 41.99     0.253 C 
BRANCH  29  30
HETATM   30  NBH   D T 401      -8.368   6.795  -6.165  1.00 46.77     0.141 N 
HETATM   31  CAP   D T 401      -7.347   7.866  -6.395  1.00 49.95     0.285 C 
HETATM   32  CAR   D T 401      -6.596   7.627  -7.728  1.00 58.84     0.285 C 
HETATM   33  NBI   D T 401      -5.978   6.265  -7.760  1.00 60.13     0.143 N 
HETATM   34  CAO   D T 401      -5.147   6.058  -8.979  1.00 54.26     0.285 C 
HETATM   35  CAS   D T 401      -6.982   5.180  -7.540  1.00 43.59     0.285 C 
HETATM   36  CAQ   D T 401      -7.760   5.424  -6.222  1.00 43.83     0.285 C 
ENDBRANCH  29  30
ENDBRANCH  28  29
ENDBRANCH  27  28
ENDBRANCH  26  27
ENDBRANCH   9  26
TORSDOF 9
ENDMDL
MODEL 8
REMARK VINA RESULT:    -6.500      1.574      2.115
REMARK INTER + INTRA:         -11.310
REMARK INTER:                  -9.856
REMARK INTRA:                  -1.454
REMARK UNBOUND:                -1.390
REMARK  9 active torsions:
REMARK  status: ('A' for Active; 'I' for Inactive)
REMARK    1  A    between atoms: O02_2  and  CAX_24 
REMARK    2  A    between atoms: CAC_3  and  CAM_13 
REMARK    3  A    between atoms: CAC_3  and  NBH_34 
REMARK    4  A    between atoms: CAM_13  and  CAN_14 
REMARK    5  A    between atoms: CAN_14  and  OAW_23 
REMARK    6  A    between atoms: NAU_21  and  CBB_28 
REMARK    7  A    between atoms: NAU_21  and  CBE_31 
REMARK    8  A    between atoms: OAV_22  and  CBC_29 
REMARK    9  A    between atoms: OAW_23  and  CBD_30 
ROOT
HETATM    1  NAD   D T 401      -3.841  -3.479  -7.609  1.00 19.83    -0.191 NA
HETATM    2  CAG   D T 401      -4.727  -2.782  -7.389  1.00 22.89     0.104 C 
HETATM    3  CAH   D T 401      -5.605  -0.693  -7.710  1.00 14.94     0.111 A 
HETATM    4  CAK   D T 401      -8.653   0.982  -6.658  1.00 20.70     0.045 A 
HETATM    5  CAL   D T 401      -9.077  -1.496  -5.419  1.00 20.29     0.029 A 
HETATM    6  NAT   D T 401      -6.576   0.219  -7.533  1.00 16.88    -0.243 NA
HETATM    7  CBA   D T 401      -5.726  -1.975  -7.138  1.00 16.47     0.105 A 
HETATM    8  CBC   D T 401     -10.047  -0.479  -5.279  1.00 25.88     0.116 A 
HETATM    9  CBD   D T 401      -9.823   0.765  -5.909  1.00 27.06     0.118 A 
HETATM   10  CBE   D T 401      -6.884  -2.298  -6.345  1.00 22.24     0.094 A 
HETATM   11  CBF   D T 401      -7.692  -0.033  -6.797  1.00 20.86     0.085 A 
HETATM   12  CBG   D T 401      -7.887  -1.299  -6.177  1.00 20.86     0.038 A 
ENDROOT
BRANCH  10  13
HETATM   13  NAU   D T 401      -7.059  -3.535  -5.741  1.00 16.88    -0.244 NA
BRANCH  13  14
HETATM   14  CBB   D T 401      -7.418  -4.691  -6.377  1.00 19.80     0.094 A 
HETATM   15  CAJ   D T 401      -8.640  -4.780  -7.085  1.00 18.64     0.045 A 
HETATM   16  CAX   D T 401      -8.998  -5.987  -7.713  1.00 17.07     0.106 A 
HETATM   17  CAY   D T 401      -8.148  -7.107  -7.632  1.00 24.79     0.081 A 
HETATM   18 CL1    D T 401      -8.621  -8.553  -8.388  1.00 27.04    -0.080 Cl
HETATM   19  CAI   D T 401      -6.933  -7.036  -6.929  1.00 19.15     0.026 A 
HETATM   20  CAZ   D T 401      -6.570  -5.829  -6.302  1.00 21.66     0.076 A 
HETATM   21 CL2    D T 401      -5.096  -5.789  -5.463  1.00 21.61    -0.081 Cl
BRANCH  16  22
HETATM   22  O02   D T 401     -10.173  -6.143  -8.396  1.00 20.01    -0.327 OA
HETATM   23  C01   D T 401     -11.247  -5.262  -8.029  1.00 19.16     0.181 C 
ENDBRANCH  16  22
ENDBRANCH  13  14
ENDBRANCH  10  13
BRANCH   8  24
HETATM   24  OAV   D T 401     -11.202  -0.655  -4.549  1.00 29.42    -0.326 OA
HETATM   25  CAA   D T 401     -11.221  -1.797  -3.673  1.00 25.21     0.181 C 
ENDBRANCH   8  24
BRANCH   9  26
HETATM   26  OAW   D T 401     -10.732   1.773  -5.788  1.00 24.87    -0.329 OA
BRANCH  26  27
HETATM   27  CAN   D T 401     -10.274   3.029  -5.240  1.00 25.33     0.151 C 
BRANCH  27  28
HETATM   28  CAM   D T 401     -10.738   4.126  -6.242  1.00 30.63     0.068 C 
BRANCH  28  29
HETATM   29  CAC   D T 401     -10.163   5.540  -5.982  1.00 41.99     0.253 C 
BRANCH  29  30
HETATM   30  NBH   D T 401      -8.754   5.740  -6.487  1.00 46.77     0.141 N 
HETATM   31  CAP   D T 401      -8.526   5.319  -7.905  1.00 49.95     0.285 C 
HETATM   32  CAR   D T 401      -7.020   5.389  -8.261  1.00 58.84     0.285 C 
HETATM   33  NBI   D T 401      -6.469   6.755  -7.999  1.00 60.13     0.143 N 
HETATM   34  CAO   D T 401      -5.055   6.881  -8.448  1.00 54.26     0.285 C 
HETATM   35  CAS   D T 401      -6.680   7.191  -6.585  1.00 43.59     0.285 C 
HETATM   36  CAQ   D T 401      -8.181   7.099  -6.209  1.00 43.83     0.285 C 
ENDBRANCH  29  30
ENDBRANCH  28  29
ENDBRANCH  27  28
ENDBRANCH  26  27
ENDBRANCH   9  26
TORSDOF 9
ENDMDL
MODEL 9
REMARK VINA RESULT:    -6.324      4.207     10.168
REMARK INTER + INTRA:         -11.041
REMARK INTER:                  -9.823
REMARK INTRA:                  -1.218
REMARK UNBOUND:                -1.390
REMARK  9 active torsions:
REMARK  status: ('A' for Active; 'I' for Inactive)
REMARK    1  A    between atoms: O02_2  and  CAX_24 
REMARK    2  A    between atoms: CAC_3  and  CAM_13 
REMARK    3  A    between atoms: CAC_3  and  NBH_34 
REMARK    4  A    between atoms: CAM_13  and  CAN_14 
REMARK    5  A    between atoms: CAN_14  and  OAW_23 
REMARK    6  A    between atoms: NAU_21  and  CBB_28 
REMARK    7  A    between atoms: NAU_21  and  CBE_31 
REMARK    8  A    between atoms: OAV_22  and  CBC_29 
REMARK    9  A    between atoms: OAW_23  and  CBD_30 
ROOT
HETATM    1  NAD   D T 401     -10.378   8.522  -5.330  1.00 19.83    -0.191 NA
HETATM    2  CAG   D T 401     -10.060   7.440  -5.547  1.00 22.89     0.104 C 
HETATM    3  CAH   D T 401      -8.294   5.994  -5.714  1.00 14.94     0.111 A 
HETATM    4  CAK   D T 401      -7.952   2.465  -6.507  1.00 20.70     0.045 A 
HETATM    5  CAL   D T 401     -10.734   2.693  -6.758  1.00 20.29     0.029 A 
HETATM    6  NAT   D T 401      -7.788   4.770  -5.942  1.00 16.88    -0.243 NA
HETATM    7  CBA   D T 401      -9.682   6.213  -5.804  1.00 16.47     0.105 A 
HETATM    8  CBC   D T 401     -10.121   1.441  -6.985  1.00 25.88     0.116 A 
HETATM    9  CBD   D T 401      -8.718   1.338  -6.855  1.00 27.06     0.118 A 
HETATM   10  CBE   D T 401     -10.556   5.126  -6.161  1.00 22.24     0.094 A 
HETATM   11  CBF   D T 401      -8.566   3.708  -6.279  1.00 20.86     0.085 A 
HETATM   12  CBG   D T 401      -9.977   3.846  -6.400  1.00 20.86     0.038 A 
ENDROOT
BRANCH  10  13
HETATM   13  NAU   D T 401     -11.931   5.276  -6.281  1.00 16.88    -0.244 NA
BRANCH  13  14
HETATM   14  CBB   D T 401     -12.865   4.826  -5.390  1.00 19.80     0.094 A 
HETATM   15  CAJ   D T 401     -12.786   5.172  -4.020  1.00 18.64     0.045 A 
HETATM   16  CAX   D T 401     -13.747   4.679  -3.118  1.00 17.07     0.106 A 
HETATM   17  CAY   D T 401     -14.780   3.837  -3.574  1.00 24.79     0.081 A 
HETATM   18 CL1    D T 401     -15.912   3.247  -2.453  1.00 27.04    -0.080 Cl
HETATM   19  CAI   D T 401     -14.869   3.481  -4.930  1.00 19.15     0.026 A 
HETATM   20  CAZ   D T 401     -13.911   3.974  -5.836  1.00 21.66     0.076 A 
HETATM   21 CL2    D T 401     -14.057   3.517  -7.463  1.00 21.61    -0.081 Cl
BRANCH  16  22
HETATM   22  O02   D T 401     -13.716   4.961  -1.780  1.00 20.01    -0.327 OA
HETATM   23  C01   D T 401     -14.185   6.262  -1.390  1.00 19.16     0.181 C 
ENDBRANCH  16  22
ENDBRANCH  13  14
ENDBRANCH  10  13
BRANCH   8  24
HETATM   24  OAV   D T 401     -10.839   0.318  -7.332  1.00 29.42    -0.326 OA
HETATM   25  CAA   D T 401     -12.166   0.228  -6.781  1.00 25.21     0.181 C 
ENDBRANCH   8  24
BRANCH   9  26
HETATM   26  OAW   D T 401      -8.090   0.149  -7.075  1.00 24.87    -0.329 OA
BRANCH  26  27
HETATM   27  CAN   D T 401      -6.876   0.166  -7.859  1.00 25.33     0.151 C 
BRANCH  27  28
HETATM   28  CAM   D T 401      -6.263  -1.258  -7.724  1.00 30.63     0.068 C 
BRANCH  28  29
HETATM   29  CAC   D T 401      -4.716  -1.315  -7.778  1.00 41.99     0.253 C 
BRANCH  29  30
HETATM   30  NBH   D T 401      -4.113  -2.503  -7.066  1.00 46.77     0.141 N 
HETATM   31  CAP   D T 401      -3.771  -2.268  -5.627  1.00 49.95     0.285 C 
HETATM   32  CAR   D T 401      -2.992  -3.475  -5.047  1.00 58.84     0.285 C 
HETATM   33  NBI   D T 401      -3.758  -4.747  -5.229  1.00 60.13     0.143 N 
HETATM   34  CAO   D T 401      -3.087  -5.902  -4.570  1.00 54.26     0.285 C 
HETATM   35  CAS   D T 401      -4.103  -5.003  -6.660  1.00 43.59     0.285 C 
HETATM   36  CAQ   D T 401      -4.859  -3.790  -7.260  1.00 43.83     0.285 C 
ENDBRANCH  29  30
ENDBRANCH  28  29
ENDBRANCH  27  28
ENDBRANCH  26  27
ENDBRANCH   9  26
TORSDOF 9
ENDMDL
