MODEL 1
REMARK VINA RESULT:    -8.880      0.000      0.000
REMARK INTER + INTRA:         -14.659
REMARK INTER:                 -13.552
REMARK INTRA:                  -1.107
REMARK UNBOUND:                -1.107
REMARK  9 active torsions:
REMARK  status: ('A' for Active; 'I' for Inactive)
REMARK    1  A    between atoms: O02_2  and  CAX_24 
REMARK    2  A    between atoms: CAC_3  and  CAM_13 
REMARK    3  A    between atoms: CAC_3  and  NBH_34 
REMARK    4  A    between atoms: CAM_13  and  CAN_14 
REMARK    5  A    between atoms: CAN_14  and  OAW_23 
REMARK    6  A    between atoms: NAU_21  and  CBB_28 
REMARK    7  A    between atoms: NAU_21  and  CBE_31 
REMARK    8  A    between atoms: OAV_22  and  CBC_29 
REMARK    9  A    between atoms: OAW_23  and  CBD_30 
ROOT
HETATM    1  NAD   D T 401      -6.020   1.133   8.547  1.00 19.83    -0.191 NA
HETATM    2  CAG   D T 401      -5.691   0.085   8.882  1.00 22.89     0.104 C 
HETATM    3  CAH   D T 401      -6.095  -2.161   8.707  1.00 14.94     0.111 A 
HETATM    4  CAK   D T 401      -4.594  -5.142  10.143  1.00 20.70     0.045 A 
HETATM    5  CAL   D T 401      -2.976  -3.213  11.373  1.00 20.29     0.029 A 
HETATM    6  NAT   D T 401      -5.813  -3.439   9.015  1.00 16.88    -0.243 NA
HETATM    7  CBA   D T 401      -5.334  -1.115   9.264  1.00 16.47     0.105 A 
HETATM    8  CBC   D T 401      -2.749  -4.580  11.645  1.00 25.88     0.116 A 
HETATM    9  CBD   D T 401      -3.571  -5.543  11.019  1.00 27.06     0.118 A 
HETATM   10  CBE   D T 401      -4.266  -1.418  10.181  1.00 22.24     0.094 A 
HETATM   11  CBF   D T 401      -4.814  -3.782   9.871  1.00 20.86     0.085 A 
HETATM   12  CBG   D T 401      -4.005  -2.786  10.485  1.00 20.86     0.038 A 
ENDROOT
BRANCH  10  13
HETATM   13  NAU   D T 401      -3.487  -0.435  10.777  1.00 16.88    -0.244 NA
BRANCH  13  14
HETATM   14  CBB   D T 401      -2.284   0.022  10.314  1.00 19.80     0.094 A 
HETATM   15  CAJ   D T 401      -1.181  -0.855  10.177  1.00 18.64     0.045 A 
HETATM   16  CAX   D T 401       0.053  -0.357   9.717  1.00 17.07     0.106 A 
HETATM   17  CAY   D T 401       0.194   1.010   9.406  1.00 24.79     0.081 A 
HETATM   18 CL1    D T 401       1.703   1.578   8.872  1.00 27.04    -0.080 Cl
HETATM   19  CAI   D T 401      -0.891   1.892   9.542  1.00 19.15     0.026 A 
HETATM   20  CAZ   D T 401      -2.127   1.398   9.997  1.00 21.66     0.076 A 
HETATM   21 CL2    D T 401      -3.408   2.499  10.148  1.00 21.61    -0.081 Cl
BRANCH  16  22
HETATM   22  O02   D T 401       1.161  -1.147   9.580  1.00 20.01    -0.327 OA
HETATM   23  C01   D T 401       0.943  -2.566   9.611  1.00 19.16     0.181 C 
ENDBRANCH  16  22
ENDBRANCH  13  14
ENDBRANCH  10  13
BRANCH   8  24
HETATM   24  OAV   D T 401      -1.760  -5.009  12.503  1.00 29.42    -0.326 OA
HETATM   25  CAA   D T 401      -0.410  -4.865  12.023  1.00 25.21     0.181 C 
ENDBRANCH   8  24
BRANCH   9  26
HETATM   26  OAW   D T 401      -3.387  -6.871  11.264  1.00 24.87    -0.329 OA
BRANCH  26  27
HETATM   27  CAN   D T 401      -2.759  -7.665  10.232  1.00 25.33     0.151 C 
BRANCH  27  28
HETATM   28  CAM   D T 401      -1.557  -8.377  10.916  1.00 30.63     0.068 C 
BRANCH  28  29
HETATM   29  CAC   D T 401      -1.534  -8.289  12.462  1.00 41.99     0.253 C 
BRANCH  29  30
HETATM   30  NBH   D T 401      -1.807  -9.597  13.164  1.00 46.77     0.141 N 
HETATM   31  CAP   D T 401      -3.223  -9.791  13.613  1.00 49.95     0.285 C 
HETATM   32  CAR   D T 401      -3.350 -11.068  14.480  1.00 58.84     0.285 C 
HETATM   33  NBI   D T 401      -2.839 -12.268  13.749  1.00 60.13     0.143 N 
HETATM   34  CAO   D T 401      -3.066 -13.526  14.513  1.00 54.26     0.285 C 
HETATM   35  CAS   D T 401      -1.424 -12.098  13.299  1.00 43.59     0.285 C 
HETATM   36  CAQ   D T 401      -1.277 -10.808  12.453  1.00 43.83     0.285 C 
ENDBRANCH  29  30
ENDBRANCH  28  29
ENDBRANCH  27  28
ENDBRANCH  26  27
ENDBRANCH   9  26
TORSDOF 9
ENDMDL
MODEL 2
REMARK VINA RESULT:    -8.682      4.463      8.013
REMARK INTER + INTRA:         -14.358
REMARK INTER:                 -12.672
REMARK INTRA:                  -1.686
REMARK UNBOUND:                -1.107
REMARK  9 active torsions:
REMARK  status: ('A' for Active; 'I' for Inactive)
REMARK    1  A    between atoms: O02_2  and  CAX_24 
REMARK    2  A    between atoms: CAC_3  and  CAM_13 
REMARK    3  A    between atoms: CAC_3  and  NBH_34 
REMARK    4  A    between atoms: CAM_13  and  CAN_14 
REMARK    5  A    between atoms: CAN_14  and  OAW_23 
REMARK    6  A    between atoms: NAU_21  and  CBB_28 
REMARK    7  A    between atoms: NAU_21  and  CBE_31 
REMARK    8  A    between atoms: OAV_22  and  CBC_29 
REMARK    9  A    between atoms: OAW_23  and  CBD_30 
ROOT
HETATM    1  NAD   D T 401      -6.152  -0.027   8.860  1.00 19.83    -0.191 NA
HETATM    2  CAG   D T 401      -5.135   0.415   9.159  1.00 22.89     0.104 C 
HETATM    3  CAH   D T 401      -3.540   1.977   8.657  1.00 14.94     0.111 A 
HETATM    4  CAK   D T 401      -0.334   2.902  10.095  1.00 20.70     0.045 A 
HETATM    5  CAL   D T 401      -1.001   0.815  11.842  1.00 20.29     0.029 A 
HETATM    6  NAT   D T 401      -2.365   2.586   8.899  1.00 16.88    -0.243 NA
HETATM    7  CBA   D T 401      -3.972   0.922   9.483  1.00 16.47     0.105 A 
HETATM    8  CBC   D T 401       0.218   1.506  12.025  1.00 25.88     0.116 A 
HETATM    9  CBD   D T 401       0.543   2.557  11.138  1.00 27.06     0.118 A 
HETATM   10  CBE   D T 401      -3.144   0.484  10.576  1.00 22.24     0.094 A 
HETATM   11  CBF   D T 401      -1.546   2.216   9.919  1.00 20.86     0.085 A 
HETATM   12  CBG   D T 401      -1.904   1.153  10.794  1.00 20.86     0.038 A 
ENDROOT
BRANCH  10  13
HETATM   13  NAU   D T 401      -3.504  -0.559  11.420  1.00 16.88    -0.244 NA
BRANCH  13  14
HETATM   14  CBB   D T 401      -3.483  -1.888  11.102  1.00 19.80     0.094 A 
HETATM   15  CAJ   D T 401      -4.540  -2.473  10.364  1.00 18.64     0.045 A 
HETATM   16  CAX   D T 401      -4.507  -3.849  10.066  1.00 17.07     0.106 A 
HETATM   17  CAY   D T 401      -3.431  -4.643  10.509  1.00 24.79     0.081 A 
HETATM   18 CL1    D T 401      -3.435  -6.303  10.146  1.00 27.04    -0.080 Cl
HETATM   19  CAI   D T 401      -2.378  -4.078  11.246  1.00 19.15     0.026 A 
HETATM   20  CAZ   D T 401      -2.405  -2.703  11.543  1.00 21.66     0.076 A 
HETATM   21 CL2    D T 401      -1.113  -2.063  12.437  1.00 21.61    -0.081 Cl
BRANCH  16  22
HETATM   22  O02   D T 401      -5.505  -4.476   9.373  1.00 20.01    -0.327 OA
HETATM   23  C01   D T 401      -6.328  -3.644   8.541  1.00 19.16     0.181 C 
ENDBRANCH  16  22
ENDBRANCH  13  14
ENDBRANCH  10  13
BRANCH   8  24
HETATM   24  OAV   D T 401       1.103   1.190  13.031  1.00 29.42    -0.326 OA
HETATM   25  CAA   D T 401       1.798  -0.062  12.883  1.00 25.21     0.181 C 
ENDBRANCH   8  24
BRANCH   9  26
HETATM   26  OAW   D T 401       1.713   3.240  11.277  1.00 24.87    -0.329 OA
BRANCH  26  27
HETATM   27  CAN   D T 401       2.450   3.563  10.077  1.00 25.33     0.151 C 
BRANCH  27  28
HETATM   28  CAM   D T 401       3.464   2.401   9.874  1.00 30.63     0.068 C 
BRANCH  28  29
HETATM   29  CAC   D T 401       3.093   1.392   8.760  1.00 41.99     0.253 C 
BRANCH  29  30
HETATM   30  NBH   D T 401       2.543   0.081   9.267  1.00 46.77     0.141 N 
HETATM   31  CAP   D T 401       1.199  -0.295   8.722  1.00 49.95     0.285 C 
HETATM   32  CAR   D T 401       0.648  -1.549   9.444  1.00 58.84     0.285 C 
HETATM   33  NBI   D T 401       1.613  -2.688   9.355  1.00 60.13     0.143 N 
HETATM   34  CAO   D T 401       1.052  -3.941   9.933  1.00 54.26     0.285 C 
HETATM   35  CAS   D T 401       2.958  -2.338   9.901  1.00 43.59     0.285 C 
HETATM   36  CAQ   D T 401       3.509  -1.066   9.206  1.00 43.83     0.285 C 
ENDBRANCH  29  30
ENDBRANCH  28  29
ENDBRANCH  27  28
ENDBRANCH  26  27
ENDBRANCH   9  26
TORSDOF 9
ENDMDL
MODEL 3
REMARK VINA RESULT:    -8.402      3.908      7.870
REMARK INTER + INTRA:         -13.929
REMARK INTER:                 -13.041
REMARK INTRA:                  -0.888
REMARK UNBOUND:                -1.107
REMARK  9 active torsions:
REMARK  status: ('A' for Active; 'I' for Inactive)
REMARK    1  A    between atoms: O02_2  and  CAX_24 
REMARK    2  A    between atoms: CAC_3  and  CAM_13 
REMARK    3  A    between atoms: CAC_3  and  NBH_34 
REMARK    4  A    between atoms: CAM_13  and  CAN_14 
REMARK    5  A    between atoms: CAN_14  and  OAW_23 
REMARK    6  A    between atoms: NAU_21  and  CBB_28 
REMARK    7  A    between atoms: NAU_21  and  CBE_31 
REMARK    8  A    between atoms: OAV_22  and  CBC_29 
REMARK    9  A    between atoms: OAW_23  and  CBD_30 
ROOT
HETATM    1  NAD   D T 401      -6.468  -5.101  10.610  1.00 19.83    -0.191 NA
HETATM    2  CAG   D T 401      -5.367  -4.786  10.700  1.00 22.89     0.104 C 
HETATM    3  CAH   D T 401      -3.193  -5.493  10.604  1.00 14.94     0.111 A 
HETATM    4  CAK   D T 401       0.035  -3.879  11.028  1.00 20.70     0.045 A 
HETATM    5  CAL   D T 401      -1.616  -1.662  11.488  1.00 20.29     0.029 A 
HETATM    6  NAT   D T 401      -1.870  -5.259  10.678  1.00 16.88    -0.243 NA
HETATM    7  CBA   D T 401      -4.109  -4.443  10.809  1.00 16.47     0.105 A 
HETATM    8  CBC   D T 401      -0.214  -1.503  11.550  1.00 25.88     0.116 A 
HETATM    9  CBD   D T 401       0.608  -2.629  11.316  1.00 27.06     0.118 A 
HETATM   10  CBE   D T 401      -3.625  -3.123  11.119  1.00 22.24     0.094 A 
HETATM   11  CBF   D T 401      -1.359  -4.032  10.963  1.00 20.86     0.085 A 
HETATM   12  CBG   D T 401      -2.216  -2.920  11.194  1.00 20.86     0.038 A 
ENDROOT
BRANCH  10  13
HETATM   13  NAU   D T 401      -4.473  -2.047  11.347  1.00 16.88    -0.244 NA
BRANCH  13  14
HETATM   14  CBB   D T 401      -4.601  -0.946  10.546  1.00 19.80     0.094 A 
HETATM   15  CAJ   D T 401      -3.799   0.201  10.758  1.00 18.64     0.045 A 
HETATM   16  CAX   D T 401      -3.963   1.330   9.933  1.00 17.07     0.106 A 
HETATM   17  CAY   D T 401      -4.929   1.324   8.908  1.00 24.79     0.081 A 
HETATM   18 CL1    D T 401      -5.110   2.711   7.945  1.00 27.04    -0.080 Cl
HETATM   19  CAI   D T 401      -5.735   0.195   8.689  1.00 19.15     0.026 A 
HETATM   20  CAZ   D T 401      -5.572  -0.937   9.508  1.00 21.66     0.076 A 
HETATM   21 CL2    D T 401      -6.568  -2.277   9.209  1.00 21.61    -0.081 Cl
BRANCH  16  22
HETATM   22  O02   D T 401      -3.232   2.474  10.098  1.00 20.01    -0.327 OA
HETATM   23  C01   D T 401      -1.813   2.312  10.249  1.00 19.16     0.181 C 
ENDBRANCH  16  22
ENDBRANCH  13  14
ENDBRANCH  10  13
BRANCH   8  24
HETATM   24  OAV   D T 401       0.381  -0.295  11.836  1.00 29.42    -0.326 OA
HETATM   25  CAA   D T 401       0.700  -0.066  13.221  1.00 25.21     0.181 C 
ENDBRANCH   8  24
BRANCH   9  26
HETATM   26  OAW   D T 401       1.965  -2.516  11.376  1.00 24.87    -0.329 OA
BRANCH  26  27
HETATM   27  CAN   D T 401       2.751  -3.435  10.584  1.00 25.33     0.151 C 
BRANCH  27  28
HETATM   28  CAM   D T 401       3.202  -2.635   9.328  1.00 30.63     0.068 C 
BRANCH  28  29
HETATM   29  CAC   D T 401       4.312  -1.584   9.582  1.00 41.99     0.253 C 
BRANCH  29  30
HETATM   30  NBH   D T 401       3.809  -0.166   9.702  1.00 46.77     0.141 N 
HETATM   31  CAP   D T 401       2.466   0.083   9.086  1.00 49.95     0.285 C 
HETATM   32  CAR   D T 401       2.133   1.596   9.098  1.00 58.84     0.285 C 
HETATM   33  NBI   D T 401       2.211   2.153  10.483  1.00 60.13     0.143 N 
HETATM   34  CAO   D T 401       1.773   3.576  10.538  1.00 54.26     0.285 C 
HETATM   35  CAS   D T 401       3.546   1.922  11.114  1.00 43.59     0.285 C 
HETATM   36  CAQ   D T 401       3.905   0.414  11.083  1.00 43.83     0.285 C 
ENDBRANCH  29  30
ENDBRANCH  28  29
ENDBRANCH  27  28
ENDBRANCH  26  27
ENDBRANCH   9  26
TORSDOF 9
ENDMDL
MODEL 4
REMARK VINA RESULT:    -8.081      4.684      8.714
REMARK INTER + INTRA:         -13.440
REMARK INTER:                 -11.736
REMARK INTRA:                  -1.704
REMARK UNBOUND:                -1.107
REMARK  9 active torsions:
REMARK  status: ('A' for Active; 'I' for Inactive)
REMARK    1  A    between atoms: O02_2  and  CAX_24 
REMARK    2  A    between atoms: CAC_3  and  CAM_13 
REMARK    3  A    between atoms: CAC_3  and  NBH_34 
REMARK    4  A    between atoms: CAM_13  and  CAN_14 
REMARK    5  A    between atoms: CAN_14  and  OAW_23 
REMARK    6  A    between atoms: NAU_21  and  CBB_28 
REMARK    7  A    between atoms: NAU_21  and  CBE_31 
REMARK    8  A    between atoms: OAV_22  and  CBC_29 
REMARK    9  A    between atoms: OAW_23  and  CBD_30 
ROOT
HETATM    1  NAD   D T 401      -2.543   1.975  10.812  1.00 19.83    -0.191 NA
HETATM    2  CAG   D T 401      -1.711   1.205  10.626  1.00 22.89     0.104 C 
HETATM    3  CAH   D T 401       0.335   0.838   9.668  1.00 14.94     0.111 A 
HETATM    4  CAK   D T 401       2.555  -2.026   9.414  1.00 20.70     0.045 A 
HETATM    5  CAL   D T 401       0.472  -3.226  10.853  1.00 20.29     0.029 A 
HETATM    6  NAT   D T 401       1.380   0.041   9.384  1.00 16.88    -0.243 NA
HETATM    7  CBA   D T 401      -0.760   0.335  10.397  1.00 16.47     0.105 A 
HETATM    8  CBC   D T 401       1.606  -3.995  10.510  1.00 25.88     0.116 A 
HETATM    9  CBD   D T 401       2.650  -3.379   9.785  1.00 27.06     0.118 A 
HETATM   10  CBE   D T 401      -0.767  -1.042  10.818  1.00 22.24     0.094 A 
HETATM   11  CBF   D T 401       1.428  -1.264   9.760  1.00 20.86     0.085 A 
HETATM   12  CBG   D T 401       0.359  -1.853  10.490  1.00 20.86     0.038 A 
ENDROOT
BRANCH  10  13
HETATM   13  NAU   D T 401      -1.820  -1.605  11.527  1.00 16.88    -0.244 NA
BRANCH  13  14
HETATM   14  CBB   D T 401      -2.943  -2.161  10.981  1.00 19.80     0.094 A 
HETATM   15  CAJ   D T 401      -3.827  -1.385  10.194  1.00 18.64     0.045 A 
HETATM   16  CAX   D T 401      -4.988  -1.975   9.660  1.00 17.07     0.106 A 
HETATM   17  CAY   D T 401      -5.276  -3.330   9.917  1.00 24.79     0.081 A 
HETATM   18 CL1    D T 401      -6.697  -4.002   9.271  1.00 27.04    -0.080 Cl
HETATM   19  CAI   D T 401      -4.411  -4.111  10.700  1.00 19.15     0.026 A 
HETATM   20  CAZ   D T 401      -3.248  -3.527  11.232  1.00 21.66     0.076 A 
HETATM   21 CL2    D T 401      -2.233  -4.507  12.174  1.00 21.61    -0.081 Cl
BRANCH  16  22
HETATM   22  O02   D T 401      -5.890  -1.275   8.908  1.00 20.01    -0.327 OA
HETATM   23  C01   D T 401      -5.739   0.154   8.891  1.00 19.16     0.181 C 
ENDBRANCH  16  22
ENDBRANCH  13  14
ENDBRANCH  10  13
BRANCH   8  24
HETATM   24  OAV   D T 401       1.730  -5.323  10.852  1.00 29.42    -0.326 OA
HETATM   25  CAA   D T 401       2.084  -5.587  12.222  1.00 25.21     0.181 C 
ENDBRANCH   8  24
BRANCH   9  26
HETATM   26  OAW   D T 401       3.756  -4.091   9.428  1.00 24.87    -0.329 OA
BRANCH  26  27
HETATM   27  CAN   D T 401       4.894  -4.055  10.318  1.00 25.33     0.151 C 
BRANCH  27  28
HETATM   28  CAM   D T 401       6.110  -3.646   9.438  1.00 30.63     0.068 C 
BRANCH  28  29
HETATM   29  CAC   D T 401       6.749  -2.281   9.793  1.00 41.99     0.253 C 
BRANCH  29  30
HETATM   30  NBH   D T 401       5.808  -1.106   9.677  1.00 46.77     0.141 N 
HETATM   31  CAP   D T 401       5.752  -0.218  10.883  1.00 49.95     0.285 C 
HETATM   32  CAR   D T 401       4.628   0.836  10.733  1.00 58.84     0.285 C 
HETATM   33  NBI   D T 401       4.798   1.629   9.477  1.00 60.13     0.143 N 
HETATM   34  CAO   D T 401       3.802   2.732   9.374  1.00 54.26     0.285 C 
HETATM   35  CAS   D T 401       4.848   0.763   8.261  1.00 43.59     0.285 C 
HETATM   36  CAQ   D T 401       5.951  -0.316   8.409  1.00 43.83     0.285 C 
ENDBRANCH  29  30
ENDBRANCH  28  29
ENDBRANCH  27  28
ENDBRANCH  26  27
ENDBRANCH   9  26
TORSDOF 9
ENDMDL
MODEL 5
REMARK VINA RESULT:    -8.040      2.244      4.006
REMARK INTER + INTRA:         -13.378
REMARK INTER:                 -12.367
REMARK INTRA:                  -1.011
REMARK UNBOUND:                -1.107
REMARK  9 active torsions:
REMARK  status: ('A' for Active; 'I' for Inactive)
REMARK    1  A    between atoms: O02_2  and  CAX_24 
REMARK    2  A    between atoms: CAC_3  and  CAM_13 
REMARK    3  A    between atoms: CAC_3  and  NBH_34 
REMARK    4  A    between atoms: CAM_13  and  CAN_14 
REMARK    5  A    between atoms: CAN_14  and  OAW_23 
REMARK    6  A    between atoms: NAU_21  and  CBB_28 
REMARK    7  A    between atoms: NAU_21  and  CBE_31 
REMARK    8  A    between atoms: OAV_22  and  CBC_29 
REMARK    9  A    between atoms: OAW_23  and  CBD_30 
ROOT
HETATM    1  NAD   D T 401       1.681   0.583  10.838  1.00 19.83    -0.191 NA
HETATM    2  CAG   D T 401       1.147  -0.431  10.765  1.00 22.89     0.104 C 
HETATM    3  CAH   D T 401       1.352  -2.626  10.152  1.00 14.94     0.111 A 
HETATM    4  CAK   D T 401      -0.876  -5.496  10.163  1.00 20.70     0.045 A 
HETATM    5  CAL   D T 401      -2.645  -3.577  11.181  1.00 20.29     0.029 A 
HETATM    6  NAT   D T 401       0.850  -3.867  10.016  1.00 16.88    -0.243 NA
HETATM    7  CBA   D T 401       0.548  -1.591  10.665  1.00 16.47     0.105 A 
HETATM    8  CBC   D T 401      -3.094  -4.904  11.004  1.00 25.88     0.116 A 
HETATM    9  CBD   D T 401      -2.193  -5.864  10.490  1.00 27.06     0.118 A 
HETATM   10  CBE   D T 401      -0.820  -1.859  11.024  1.00 22.24     0.094 A 
HETATM   11  CBF   D T 401      -0.432  -4.177  10.344  1.00 20.86     0.085 A 
HETATM   12  CBG   D T 401      -1.314  -3.186  10.859  1.00 20.86     0.038 A 
ENDROOT
BRANCH  10  13
HETATM   13  NAU   D T 401      -1.672  -0.881  11.522  1.00 16.88    -0.244 NA
BRANCH  13  14
HETATM   14  CBB   D T 401      -2.547  -0.133  10.785  1.00 19.80     0.094 A 
HETATM   15  CAJ   D T 401      -3.575  -0.752  10.034  1.00 18.64     0.045 A 
HETATM   16  CAX   D T 401      -4.452   0.038   9.266  1.00 17.07     0.106 A 
HETATM   17  CAY   D T 401      -4.302   1.439   9.238  1.00 24.79     0.081 A 
HETATM   18 CL1    D T 401      -5.367   2.357   8.286  1.00 27.04    -0.080 Cl
HETATM   19  CAI   D T 401      -3.284   2.066   9.975  1.00 19.15     0.026 A 
HETATM   20  CAZ   D T 401      -2.408   1.281  10.745  1.00 21.66     0.076 A 
HETATM   21 CL2    D T 401      -1.193   2.081  11.618  1.00 21.61    -0.081 Cl
BRANCH  16  22
HETATM   22  O02   D T 401      -5.452  -0.500   8.505  1.00 20.01    -0.327 OA
HETATM   23  C01   D T 401      -6.405  -1.327   9.191  1.00 19.16     0.181 C 
ENDBRANCH  16  22
ENDBRANCH  13  14
ENDBRANCH  10  13
BRANCH   8  24
HETATM   24  OAV   D T 401      -4.378  -5.297  11.308  1.00 29.42    -0.326 OA
HETATM   25  CAA   D T 401      -5.401  -4.855  10.396  1.00 25.21     0.181 C 
ENDBRANCH   8  24
BRANCH   9  26
HETATM   26  OAW   D T 401      -2.592  -7.152  10.297  1.00 24.87    -0.329 OA
BRANCH  26  27
HETATM   27  CAN   D T 401      -1.815  -8.197  10.923  1.00 25.33     0.151 C 
BRANCH  27  28
HETATM   28  CAM   D T 401      -2.217  -8.185  12.425  1.00 30.63     0.068 C 
BRANCH  28  29
HETATM   29  CAC   D T 401      -1.256  -8.951  13.368  1.00 41.99     0.253 C 
BRANCH  29  30
HETATM   30  NBH   D T 401      -1.708 -10.350  13.713  1.00 46.77     0.141 N 
HETATM   31  CAP   D T 401      -3.171 -10.489  14.001  1.00 49.95     0.285 C 
HETATM   32  CAR   D T 401      -3.492 -11.911  14.523  1.00 58.84     0.285 C 
HETATM   33  NBI   D T 401      -3.021 -12.956  13.563  1.00 60.13     0.143 N 
HETATM   34  CAO   D T 401      -3.430 -14.325  13.983  1.00 54.26     0.285 C 
HETATM   35  CAS   D T 401      -1.562 -12.840  13.267  1.00 43.59     0.285 C 
HETATM   36  CAQ   D T 401      -1.222 -11.412  12.770  1.00 43.83     0.285 C 
ENDBRANCH  29  30
ENDBRANCH  28  29
ENDBRANCH  27  28
ENDBRANCH  26  27
ENDBRANCH   9  26
TORSDOF 9
ENDMDL
MODEL 6
REMARK VINA RESULT:    -7.870      4.340      8.613
REMARK INTER + INTRA:         -13.119
REMARK INTER:                 -11.298
REMARK INTRA:                  -1.820
REMARK UNBOUND:                -1.107
REMARK  9 active torsions:
REMARK  status: ('A' for Active; 'I' for Inactive)
REMARK    1  A    between atoms: O02_2  and  CAX_24 
REMARK    2  A    between atoms: CAC_3  and  CAM_13 
REMARK    3  A    between atoms: CAC_3  and  NBH_34 
REMARK    4  A    between atoms: CAM_13  and  CAN_14 
REMARK    5  A    between atoms: CAN_14  and  OAW_23 
REMARK    6  A    between atoms: NAU_21  and  CBB_28 
REMARK    7  A    between atoms: NAU_21  and  CBE_31 
REMARK    8  A    between atoms: OAV_22  and  CBC_29 
REMARK    9  A    between atoms: OAW_23  and  CBD_30 
ROOT
HETATM    1  NAD   D T 401      -5.735  -0.954   8.816  1.00 19.83    -0.191 NA
HETATM    2  CAG   D T 401      -4.750  -0.456   9.134  1.00 22.89     0.104 C 
HETATM    3  CAH   D T 401      -3.263   1.226   8.693  1.00 14.94     0.111 A 
HETATM    4  CAK   D T 401      -0.126   2.309  10.171  1.00 20.70     0.045 A 
HETATM    5  CAL   D T 401      -0.650   0.119  11.838  1.00 20.29     0.029 A 
HETATM    6  NAT   D T 401      -2.132   1.903   8.960  1.00 16.88    -0.243 NA
HETATM    7  CBA   D T 401      -3.624   0.115   9.479  1.00 16.47     0.105 A 
HETATM    8  CBC   D T 401       0.520   0.882  12.048  1.00 25.88     0.116 A 
HETATM    9  CBD   D T 401       0.773   1.984  11.201  1.00 27.06     0.118 A 
HETATM   10  CBE   D T 401      -2.767  -0.308  10.556  1.00 22.24     0.094 A 
HETATM   11  CBF   D T 401      -1.289   1.551   9.967  1.00 20.86     0.085 A 
HETATM   12  CBG   D T 401      -1.575   0.434  10.801  1.00 20.86     0.038 A 
ENDROOT
BRANCH  10  13
HETATM   13  NAU   D T 401      -3.056  -1.403  11.360  1.00 16.88    -0.244 NA
BRANCH  13  14
HETATM   14  CBB   D T 401      -2.698  -2.698  11.107  1.00 19.80     0.094 A 
HETATM   15  CAJ   D T 401      -1.338  -3.054  10.945  1.00 18.64     0.045 A 
HETATM   16  CAX   D T 401      -0.995  -4.391  10.664  1.00 17.07     0.106 A 
HETATM   17  CAY   D T 401      -2.002  -5.368  10.533  1.00 24.79     0.081 A 
HETATM   18 CL1    D T 401      -1.550  -6.966  10.176  1.00 27.04    -0.080 Cl
HETATM   19  CAI   D T 401      -3.355  -5.027  10.687  1.00 19.15     0.026 A 
HETATM   20  CAZ   D T 401      -3.702  -3.694  10.971  1.00 21.66     0.076 A 
HETATM   21 CL2    D T 401      -5.349  -3.328  11.146  1.00 21.61    -0.081 Cl
BRANCH  16  22
HETATM   22  O02   D T 401       0.298  -4.796  10.479  1.00 20.01    -0.327 OA
HETATM   23  C01   D T 401       1.106  -3.984   9.611  1.00 19.16     0.181 C 
ENDBRANCH  16  22
ENDBRANCH  13  14
ENDBRANCH  10  13
BRANCH   8  24
HETATM   24  OAV   D T 401       1.424   0.589  13.044  1.00 29.42    -0.326 OA
HETATM   25  CAA   D T 401       2.199  -0.610  12.853  1.00 25.21     0.181 C 
ENDBRANCH   8  24
BRANCH   9  26
HETATM   26  OAW   D T 401       1.895   2.738  11.368  1.00 24.87    -0.329 OA
BRANCH  26  27
HETATM   27  CAN   D T 401       2.093   3.857  10.475  1.00 25.33     0.151 C 
BRANCH  27  28
HETATM   28  CAM   D T 401       3.611   3.869  10.137  1.00 30.63     0.068 C 
BRANCH  28  29
HETATM   29  CAC   D T 401       3.995   3.157   8.816  1.00 41.99     0.253 C 
BRANCH  29  30
HETATM   30  NBH   D T 401       4.283   1.683   8.966  1.00 46.77     0.141 N 
HETATM   31  CAP   D T 401       4.938   1.294  10.255  1.00 49.95     0.285 C 
HETATM   32  CAR   D T 401       5.357  -0.197  10.227  1.00 58.84     0.285 C 
HETATM   33  NBI   D T 401       4.190  -1.078   9.918  1.00 60.13     0.143 N 
HETATM   34  CAO   D T 401       4.542  -2.523  10.009  1.00 54.26     0.285 C 
HETATM   35  CAS   D T 401       3.526  -0.712   8.631  1.00 43.59     0.285 C 
HETATM   36  CAQ   D T 401       3.126   0.785   8.635  1.00 43.83     0.285 C 
ENDBRANCH  29  30
ENDBRANCH  28  29
ENDBRANCH  27  28
ENDBRANCH  26  27
ENDBRANCH   9  26
TORSDOF 9
ENDMDL
MODEL 7
REMARK VINA RESULT:    -7.853      4.148      7.487
REMARK INTER + INTRA:         -13.092
REMARK INTER:                 -11.351
REMARK INTRA:                  -1.741
REMARK UNBOUND:                -1.107
REMARK  9 active torsions:
REMARK  status: ('A' for Active; 'I' for Inactive)
REMARK    1  A    between atoms: O02_2  and  CAX_24 
REMARK    2  A    between atoms: CAC_3  and  CAM_13 
REMARK    3  A    between atoms: CAC_3  and  NBH_34 
REMARK    4  A    between atoms: CAM_13  and  CAN_14 
REMARK    5  A    between atoms: CAN_14  and  OAW_23 
REMARK    6  A    between atoms: NAU_21  and  CBB_28 
REMARK    7  A    between atoms: NAU_21  and  CBE_31 
REMARK    8  A    between atoms: OAV_22  and  CBC_29 
REMARK    9  A    between atoms: OAW_23  and  CBD_30 
ROOT
HETATM    1  NAD   D T 401      -2.980  -4.941  11.798  1.00 19.83    -0.191 NA
HETATM    2  CAG   D T 401      -2.073  -4.372  11.380  1.00 22.89     0.104 C 
HETATM    3  CAH   D T 401      -0.027  -4.569  10.375  1.00 14.94     0.111 A 
HETATM    4  CAK   D T 401       2.505  -2.213   9.262  1.00 20.70     0.045 A 
HETATM    5  CAL   D T 401       0.645  -0.388  10.291  1.00 20.29     0.029 A 
HETATM    6  NAT   D T 401       1.088  -4.030   9.850  1.00 16.88    -0.243 NA
HETATM    7  CBA   D T 401      -1.030  -3.737  10.910  1.00 16.47     0.105 A 
HETATM    8  CBC   D T 401       1.845   0.095   9.724  1.00 25.88     0.116 A 
HETATM    9  CBD   D T 401       2.775  -0.835   9.208  1.00 27.06     0.118 A 
HETATM   10  CBE   D T 401      -0.848  -2.309  10.912  1.00 22.24     0.094 A 
HETATM   11  CBF   D T 401       1.309  -2.689   9.822  1.00 20.86     0.085 A 
HETATM   12  CBG   D T 401       0.351  -1.781  10.351  1.00 20.86     0.038 A 
ENDROOT
BRANCH  10  13
HETATM   13  NAU   D T 401      -1.790  -1.433  11.436  1.00 16.88    -0.244 NA
BRANCH  13  14
HETATM   14  CBB   D T 401      -2.797  -0.829  10.736  1.00 19.80     0.094 A 
HETATM   15  CAJ   D T 401      -3.762  -1.600  10.044  1.00 18.64     0.045 A 
HETATM   16  CAX   D T 401      -4.777  -0.955   9.313  1.00 17.07     0.106 A 
HETATM   17  CAY   D T 401      -4.828   0.452   9.260  1.00 24.79     0.081 A 
HETATM   18 CL1    D T 401      -6.057   1.194   8.353  1.00 27.04    -0.080 Cl
HETATM   19  CAI   D T 401      -3.875   1.230   9.938  1.00 19.15     0.026 A 
HETATM   20  CAZ   D T 401      -2.861   0.590  10.673  1.00 21.66     0.076 A 
HETATM   21 CL2    D T 401      -1.730   1.568  11.474  1.00 21.61    -0.081 Cl
BRANCH  16  22
HETATM   22  O02   D T 401      -5.727  -1.642   8.608  1.00 20.01    -0.327 OA
HETATM   23  C01   D T 401      -5.906  -3.024   8.954  1.00 19.16     0.181 C 
ENDBRANCH  16  22
ENDBRANCH  13  14
ENDBRANCH  10  13
BRANCH   8  24
HETATM   24  OAV   D T 401       2.145   1.438   9.661  1.00 29.42    -0.326 OA
HETATM   25  CAA   D T 401       2.438   2.074  10.918  1.00 25.21     0.181 C 
ENDBRANCH   8  24
BRANCH   9  26
HETATM   26  OAW   D T 401       3.947  -0.407   8.662  1.00 24.87    -0.329 OA
BRANCH  26  27
HETATM   27  CAN   D T 401       5.095  -0.296   9.534  1.00 25.33     0.151 C 
BRANCH  27  28
HETATM   28  CAM   D T 401       6.190  -1.209   8.914  1.00 30.63     0.068 C 
BRANCH  28  29
HETATM   29  CAC   D T 401       6.719  -2.327   9.847  1.00 41.99     0.253 C 
BRANCH  29  30
HETATM   30  NBH   D T 401       5.646  -3.233  10.401  1.00 46.77     0.141 N 
HETATM   31  CAP   D T 401       5.523  -4.560   9.717  1.00 49.95     0.285 C 
HETATM   32  CAR   D T 401       4.280  -5.327  10.233  1.00 58.84     0.285 C 
HETATM   33  NBI   D T 401       4.321  -5.479  11.720  1.00 60.13     0.143 N 
HETATM   34  CAO   D T 401       3.201  -6.321  12.226  1.00 54.26     0.285 C 
HETATM   35  CAS   D T 401       4.436  -4.166  12.423  1.00 43.59     0.285 C 
HETATM   36  CAQ   D T 401       5.660  -3.375  11.895  1.00 43.83     0.285 C 
ENDBRANCH  29  30
ENDBRANCH  28  29
ENDBRANCH  27  28
ENDBRANCH  26  27
ENDBRANCH   9  26
TORSDOF 9
ENDMDL
MODEL 8
REMARK VINA RESULT:    -7.847      2.752      4.537
REMARK INTER + INTRA:         -13.083
REMARK INTER:                 -12.230
REMARK INTRA:                  -0.854
REMARK UNBOUND:                -1.107
REMARK  9 active torsions:
REMARK  status: ('A' for Active; 'I' for Inactive)
REMARK    1  A    between atoms: O02_2  and  CAX_24 
REMARK    2  A    between atoms: CAC_3  and  CAM_13 
REMARK    3  A    between atoms: CAC_3  and  NBH_34 
REMARK    4  A    between atoms: CAM_13  and  CAN_14 
REMARK    5  A    between atoms: CAN_14  and  OAW_23 
REMARK    6  A    between atoms: NAU_21  and  CBB_28 
REMARK    7  A    between atoms: NAU_21  and  CBE_31 
REMARK    8  A    between atoms: OAV_22  and  CBC_29 
REMARK    9  A    between atoms: OAW_23  and  CBD_30 
ROOT
HETATM    1  NAD   D T 401       1.359   0.422  11.124  1.00 19.83    -0.191 NA
HETATM    2  CAG   D T 401       0.885  -0.618  11.006  1.00 22.89     0.104 C 
HETATM    3  CAH   D T 401       1.243  -2.789  10.379  1.00 14.94     0.111 A 
HETATM    4  CAK   D T 401      -0.827  -5.771  10.217  1.00 20.70     0.045 A 
HETATM    5  CAL   D T 401      -2.753  -3.963  11.151  1.00 20.29     0.029 A 
HETATM    6  NAT   D T 401       0.816  -4.052  10.197  1.00 16.88    -0.243 NA
HETATM    7  CBA   D T 401       0.356  -1.806  10.855  1.00 16.47     0.105 A 
HETATM    8  CBC   D T 401      -3.119  -5.310  10.930  1.00 25.88     0.116 A 
HETATM    9  CBD   D T 401      -2.139  -6.212  10.459  1.00 27.06     0.118 A 
HETATM   10  CBE   D T 401      -1.015  -2.150  11.127  1.00 22.24     0.094 A 
HETATM   11  CBF   D T 401      -0.465  -4.434  10.442  1.00 20.86     0.085 A 
HETATM   12  CBG   D T 401      -1.427  -3.499  10.915  1.00 20.86     0.038 A 
ENDROOT
BRANCH  10  13
HETATM   13  NAU   D T 401      -1.946  -1.226  11.585  1.00 16.88    -0.244 NA
BRANCH  13  14
HETATM   14  CBB   D T 401      -2.847  -0.549  10.812  1.00 19.80     0.094 A 
HETATM   15  CAJ   D T 401      -3.859  -1.242  10.104  1.00 18.64     0.045 A 
HETATM   16  CAX   D T 401      -4.763  -0.525   9.298  1.00 17.07     0.106 A 
HETATM   17  CAY   D T 401      -4.656   0.876   9.186  1.00 24.79     0.081 A 
HETATM   18 CL1    D T 401      -5.753   1.704   8.189  1.00 27.04    -0.080 Cl
HETATM   19  CAI   D T 401      -3.654   1.575   9.879  1.00 19.15     0.026 A 
HETATM   20  CAZ   D T 401      -2.751   0.863  10.688  1.00 21.66     0.076 A 
HETATM   21 CL2    D T 401      -1.556   1.749  11.504  1.00 21.61    -0.081 Cl
BRANCH  16  22
HETATM   22  O02   D T 401      -5.751  -1.136   8.576  1.00 20.01    -0.327 OA
HETATM   23  C01   D T 401      -6.781  -1.795   9.329  1.00 19.16     0.181 C 
ENDBRANCH  16  22
ENDBRANCH  13  14
ENDBRANCH  10  13
BRANCH   8  24
HETATM   24  OAV   D T 401      -4.397  -5.774  11.151  1.00 29.42    -0.326 OA
HETATM   25  CAA   D T 401      -5.461  -4.900  10.732  1.00 25.21     0.181 C 
ENDBRANCH   8  24
BRANCH   9  26
HETATM   26  OAW   D T 401      -2.457  -7.516  10.226  1.00 24.87    -0.329 OA
BRANCH  26  27
HETATM   27  CAN   D T 401      -1.689  -8.529  10.914  1.00 25.33     0.151 C 
BRANCH  27  28
HETATM   28  CAM   D T 401      -2.226  -8.551  12.374  1.00 30.63     0.068 C 
BRANCH  28  29
HETATM   29  CAC   D T 401      -1.731  -9.738  13.238  1.00 41.99     0.253 C 
BRANCH  29  30
HETATM   30  NBH   D T 401      -0.569  -9.406  14.142  1.00 46.77     0.141 N 
HETATM   31  CAP   D T 401      -0.851  -9.532  15.608  1.00 49.95     0.285 C 
HETATM   32  CAR   D T 401       0.337  -8.991  16.441  1.00 58.84     0.285 C 
HETATM   33  NBI   D T 401       1.612  -9.676  16.068  1.00 60.13     0.143 N 
HETATM   34  CAO   D T 401       2.745  -9.262  16.943  1.00 54.26     0.285 C 
HETATM   35  CAS   D T 401       1.917  -9.556  14.611  1.00 43.59     0.285 C 
HETATM   36  CAQ   D T 401       0.724 -10.068  13.764  1.00 43.83     0.285 C 
ENDBRANCH  29  30
ENDBRANCH  28  29
ENDBRANCH  27  28
ENDBRANCH  26  27
ENDBRANCH   9  26
TORSDOF 9
ENDMDL
MODEL 9
REMARK VINA RESULT:    -7.798      2.029      2.764
REMARK INTER + INTRA:         -13.009
REMARK INTER:                 -11.549
REMARK INTRA:                  -1.460
REMARK UNBOUND:                -1.107
REMARK  9 active torsions:
REMARK  status: ('A' for Active; 'I' for Inactive)
REMARK    1  A    between atoms: O02_2  and  CAX_24 
REMARK    2  A    between atoms: CAC_3  and  CAM_13 
REMARK    3  A    between atoms: CAC_3  and  NBH_34 
REMARK    4  A    between atoms: CAM_13  and  CAN_14 
REMARK    5  A    between atoms: CAN_14  and  OAW_23 
REMARK    6  A    between atoms: NAU_21  and  CBB_28 
REMARK    7  A    between atoms: NAU_21  and  CBE_31 
REMARK    8  A    between atoms: OAV_22  and  CBC_29 
REMARK    9  A    between atoms: OAW_23  and  CBD_30 
ROOT
HETATM    1  NAD   D T 401      -4.435   0.612  10.020  1.00 19.83    -0.191 NA
HETATM    2  CAG   D T 401      -4.264  -0.510  10.200  1.00 22.89     0.104 C 
HETATM    3  CAH   D T 401      -5.136  -2.610   9.952  1.00 14.94     0.111 A 
HETATM    4  CAK   D T 401      -4.011  -5.957  10.810  1.00 20.70     0.045 A 
HETATM    5  CAL   D T 401      -1.830  -4.504  11.802  1.00 20.29     0.029 A 
HETATM    6  NAT   D T 401      -5.061  -3.946  10.098  1.00 16.88    -0.243 NA
HETATM    7  CBA   D T 401      -4.087  -1.790  10.408  1.00 16.47     0.105 A 
HETATM    8  CBC   D T 401      -1.832  -5.912  11.919  1.00 25.88     0.116 A 
HETATM    9  CBD   D T 401      -2.937  -6.634  11.415  1.00 27.06     0.118 A 
HETATM   10  CBE   D T 401      -2.943  -2.382  11.050  1.00 22.24     0.094 A 
HETATM   11  CBF   D T 401      -4.003  -4.558  10.693  1.00 20.86     0.085 A 
HETATM   12  CBG   D T 401      -2.907  -3.801  11.190  1.00 20.86     0.038 A 
ENDROOT
BRANCH  10  13
HETATM   13  NAU   D T 401      -1.880  -1.631  11.535  1.00 16.88    -0.244 NA
BRANCH  13  14
HETATM   14  CBB   D T 401      -0.768  -1.269  10.827  1.00 19.80     0.094 A 
HETATM   15  CAJ   D T 401       0.079  -2.249  10.257  1.00 18.64     0.045 A 
HETATM   16  CAX   D T 401       1.230  -1.853   9.550  1.00 17.07     0.106 A 
HETATM   17  CAY   D T 401       1.544  -0.485   9.419  1.00 24.79     0.081 A 
HETATM   18 CL1    D T 401       2.951  -0.046   8.575  1.00 27.04    -0.080 Cl
HETATM   19  CAI   D T 401       0.715   0.498   9.983  1.00 19.15     0.026 A 
HETATM   20  CAZ   D T 401      -0.437   0.107  10.687  1.00 21.66     0.076 A 
HETATM   21 CL2    D T 401      -1.408   1.328  11.352  1.00 21.61    -0.081 Cl
BRANCH  16  22
HETATM   22  O02   D T 401       2.098  -2.751   8.993  1.00 20.01    -0.327 OA
HETATM   23  C01   D T 401       2.179  -4.039   9.623  1.00 19.16     0.181 C 
ENDBRANCH  16  22
ENDBRANCH  13  14
ENDBRANCH  10  13
BRANCH   8  24
HETATM   24  OAV   D T 401      -0.801  -6.606  12.510  1.00 29.42    -0.326 OA
HETATM   25  CAA   D T 401       0.492  -6.450  11.897  1.00 25.21     0.181 C 
ENDBRANCH   8  24
BRANCH   9  26
HETATM   26  OAW   D T 401      -2.979  -7.991  11.517  1.00 24.87    -0.329 OA
BRANCH  26  27
HETATM   27  CAN   D T 401      -3.884  -8.565  12.487  1.00 25.33     0.151 C 
BRANCH  27  28
HETATM   28  CAM   D T 401      -3.023  -9.526  13.356  1.00 30.63     0.068 C 
BRANCH  28  29
HETATM   29  CAC   D T 401      -1.788 -10.129  12.642  1.00 41.99     0.253 C 
BRANCH  29  30
HETATM   30  NBH   D T 401      -0.526 -10.120  13.470  1.00 46.77     0.141 N 
HETATM   31  CAP   D T 401       0.737  -9.893  12.696  1.00 49.95     0.285 C 
HETATM   32  CAR   D T 401       1.976 -10.091  13.603  1.00 58.84     0.285 C 
HETATM   33  NBI   D T 401       1.907  -9.208  14.809  1.00 60.13     0.143 N 
HETATM   34  CAO   D T 401       3.145  -9.289  15.632  1.00 54.26     0.285 C 
HETATM   35  CAS   D T 401       0.658  -9.424  15.600  1.00 43.59     0.285 C 
HETATM   36  CAQ   D T 401      -0.591  -9.258  14.696  1.00 43.83     0.285 C 
ENDBRANCH  29  30
ENDBRANCH  28  29
ENDBRANCH  27  28
ENDBRANCH  26  27
ENDBRANCH   9  26
TORSDOF 9
ENDMDL
