MODEL 1
REMARK VINA RESULT:    -8.140      0.000      0.000
REMARK INTER + INTRA:         -13.518
REMARK INTER:                 -12.422
REMARK INTRA:                  -1.095
REMARK UNBOUND:                -1.095
REMARK  9 active torsions:
REMARK  status: ('A' for Active; 'I' for Inactive)
REMARK    1  A    between atoms: O02_2  and  CAX_24 
REMARK    2  A    between atoms: CAC_3  and  CAM_13 
REMARK    3  A    between atoms: CAC_3  and  NBH_34 
REMARK    4  A    between atoms: CAM_13  and  CAN_14 
REMARK    5  A    between atoms: CAN_14  and  OAW_23 
REMARK    6  A    between atoms: NAU_21  and  CBB_28 
REMARK    7  A    between atoms: NAU_21  and  CBE_31 
REMARK    8  A    between atoms: OAV_22  and  CBC_29 
REMARK    9  A    between atoms: OAW_23  and  CBD_30 
ROOT
HETATM    1  NAD   D T 401       6.150   4.932   8.455  1.00 19.83    -0.191 NA
HETATM    2  CAG   D T 401       5.798   5.670   7.649  1.00 22.89     0.104 C 
HETATM    3  CAH   D T 401       6.258   6.584   5.602  1.00 14.94     0.111 A 
HETATM    4  CAK   D T 401       4.630   9.045   3.482  1.00 20.70     0.045 A 
HETATM    5  CAL   D T 401       2.830   9.073   5.630  1.00 20.29     0.029 A 
HETATM    6  NAT   D T 401       5.959   7.408   4.582  1.00 16.88    -0.243 NA
HETATM    7  CBA   D T 401       5.412   6.516   6.726  1.00 16.47     0.105 A 
HETATM    8  CBC   D T 401       2.592   9.912   4.519  1.00 25.88     0.116 A 
HETATM    9  CBD   D T 401       3.506   9.888   3.441  1.00 27.06     0.118 A 
HETATM   10  CBE   D T 401       4.237   7.346   6.789  1.00 22.24     0.094 A 
HETATM   11  CBF   D T 401       4.862   8.210   4.587  1.00 20.86     0.085 A 
HETATM   12  CBG   D T 401       3.961   8.208   5.688  1.00 20.86     0.038 A 
ENDROOT
BRANCH  10  13
HETATM   13  NAU   D T 401       3.370   7.338   7.873  1.00 16.88    -0.244 NA
BRANCH  13  14
HETATM   14  CBB   D T 401       2.234   6.588   7.983  1.00 19.80     0.094 A 
HETATM   15  CAJ   D T 401       1.208   6.680   7.011  1.00 18.64     0.045 A 
HETATM   16  CAX   D T 401       0.037   5.913   7.155  1.00 17.07     0.106 A 
HETATM   17  CAY   D T 401      -0.120   5.062   8.268  1.00 24.79     0.081 A 
HETATM   18 CL1    D T 401      -1.555   4.165   8.417  1.00 27.04    -0.080 Cl
HETATM   19  CAI   D T 401       0.886   4.964   9.242  1.00 19.15     0.026 A 
HETATM   20  CAZ   D T 401       2.059   5.727   9.100  1.00 21.66     0.076 A 
HETATM   21 CL2    D T 401       3.247   5.579  10.302  1.00 21.61    -0.081 Cl
BRANCH  16  22
HETATM   22  O02   D T 401      -0.996   5.970   6.261  1.00 20.01    -0.327 OA
HETATM   23  C01   D T 401      -1.036   7.120   5.401  1.00 19.16     0.181 C 
ENDBRANCH  16  22
ENDBRANCH  13  14
ENDBRANCH  10  13
BRANCH   8  24
HETATM   24  OAV   D T 401       1.505  10.754   4.448  1.00 29.42    -0.326 OA
HETATM   25  CAA   D T 401       0.531  10.609   5.498  1.00 25.21     0.181 C 
ENDBRANCH   8  24
BRANCH   9  26
HETATM   26  OAW   D T 401       3.314  10.689   2.357  1.00 24.87    -0.329 OA
BRANCH  26  27
HETATM   27  CAN   D T 401       4.155  11.859   2.228  1.00 25.33     0.151 C 
BRANCH  27  28
HETATM   28  CAM   D T 401       4.201  12.185   0.708  1.00 30.63     0.068 C 
BRANCH  28  29
HETATM   29  CAC   D T 401       3.418  11.204  -0.198  1.00 41.99     0.253 C 
BRANCH  29  30
HETATM   30  NBH   D T 401       2.215  11.813  -0.880  1.00 46.77     0.141 N 
HETATM   31  CAP   D T 401       1.193  12.398   0.048  1.00 49.95     0.285 C 
HETATM   32  CAR   D T 401      -0.075  12.822  -0.736  1.00 58.84     0.285 C 
HETATM   33  NBI   D T 401       0.267  13.769  -1.843  1.00 60.13     0.143 N 
HETATM   34  CAO   D T 401      -0.947  14.286  -2.530  1.00 54.26     0.285 C 
HETATM   35  CAS   D T 401       1.281  13.201  -2.783  1.00 43.59     0.285 C 
HETATM   36  CAQ   D T 401       2.544  12.747  -2.007  1.00 43.83     0.285 C 
ENDBRANCH  29  30
ENDBRANCH  28  29
ENDBRANCH  27  28
ENDBRANCH  26  27
ENDBRANCH   9  26
TORSDOF 9
ENDMDL
MODEL 2
REMARK VINA RESULT:    -7.779      4.744      9.483
REMARK INTER + INTRA:         -12.967
REMARK INTER:                 -11.767
REMARK INTRA:                  -1.200
REMARK UNBOUND:                -1.095
REMARK  9 active torsions:
REMARK  status: ('A' for Active; 'I' for Inactive)
REMARK    1  A    between atoms: O02_2  and  CAX_24 
REMARK    2  A    between atoms: CAC_3  and  CAM_13 
REMARK    3  A    between atoms: CAC_3  and  NBH_34 
REMARK    4  A    between atoms: CAM_13  and  CAN_14 
REMARK    5  A    between atoms: CAN_14  and  OAW_23 
REMARK    6  A    between atoms: NAU_21  and  CBB_28 
REMARK    7  A    between atoms: NAU_21  and  CBE_31 
REMARK    8  A    between atoms: OAV_22  and  CBC_29 
REMARK    9  A    between atoms: OAW_23  and  CBD_30 
ROOT
HETATM    1  NAD   D T 401       4.571   9.275   4.313  1.00 19.83    -0.191 NA
HETATM    2  CAG   D T 401       4.678   8.464   5.119  1.00 22.89     0.104 C 
HETATM    3  CAH   D T 401       5.999   6.785   5.936  1.00 14.94     0.111 A 
HETATM    4  CAK   D T 401       5.725   4.434   8.694  1.00 20.70     0.045 A 
HETATM    5  CAL   D T 401       3.291   5.780   9.035  1.00 20.29     0.029 A 
HETATM    6  NAT   D T 401       6.251   5.804   6.823  1.00 16.88    -0.243 NA
HETATM    7  CBA   D T 401       4.807   7.528   6.027  1.00 16.47     0.105 A 
HETATM    8  CBC   D T 401       3.631   4.734   9.922  1.00 25.88     0.116 A 
HETATM    9  CBD   D T 401       4.862   4.064   9.740  1.00 27.06     0.118 A 
HETATM   10  CBE   D T 401       3.850   7.224   7.057  1.00 22.24     0.094 A 
HETATM   11  CBF   D T 401       5.385   5.477   7.817  1.00 20.86     0.085 A 
HETATM   12  CBG   D T 401       4.154   6.174   7.972  1.00 20.86     0.038 A 
ENDROOT
BRANCH  10  13
HETATM   13  NAU   D T 401       2.649   7.909   7.193  1.00 16.88    -0.244 NA
BRANCH  13  14
HETATM   14  CBB   D T 401       1.455   7.547   6.637  1.00 19.80     0.094 A 
HETATM   15  CAJ   D T 401       0.817   6.341   7.014  1.00 18.64     0.045 A 
HETATM   16  CAX   D T 401      -0.403   5.978   6.412  1.00 17.07     0.106 A 
HETATM   17  CAY   D T 401      -0.983   6.807   5.432  1.00 24.79     0.081 A 
HETATM   18 CL1    D T 401      -2.447   6.328   4.715  1.00 27.04    -0.080 Cl
HETATM   19  CAI   D T 401      -0.359   8.004   5.045  1.00 19.15     0.026 A 
HETATM   20  CAZ   D T 401       0.858   8.371   5.645  1.00 21.66     0.076 A 
HETATM   21 CL2    D T 401       1.578   9.824   5.146  1.00 21.61    -0.081 Cl
BRANCH  16  22
HETATM   22  O02   D T 401      -1.061   4.819   6.720  1.00 20.01    -0.327 OA
HETATM   23  C01   D T 401      -1.057   4.428   8.102  1.00 19.16     0.181 C 
ENDBRANCH  16  22
ENDBRANCH  13  14
ENDBRANCH  10  13
BRANCH   8  24
HETATM   24  OAV   D T 401       2.807   4.342  10.952  1.00 29.42    -0.326 OA
HETATM   25  CAA   D T 401       1.821   3.347  10.622  1.00 25.21     0.181 C 
ENDBRANCH   8  24
BRANCH   9  26
HETATM   26  OAW   D T 401       5.220   3.044  10.569  1.00 24.87    -0.329 OA
BRANCH  26  27
HETATM   27  CAN   D T 401       5.895   3.386  11.802  1.00 25.33     0.151 C 
BRANCH  27  28
HETATM   28  CAM   D T 401       7.218   2.567  11.803  1.00 30.63     0.068 C 
BRANCH  28  29
HETATM   29  CAC   D T 401       8.511   3.410  11.924  1.00 41.99     0.253 C 
BRANCH  29  30
HETATM   30  NBH   D T 401       8.985   4.010  10.621  1.00 46.77     0.141 N 
HETATM   31  CAP   D T 401       8.818   5.496  10.512  1.00 49.95     0.285 C 
HETATM   32  CAR   D T 401       9.157   5.978   9.079  1.00 58.84     0.285 C 
HETATM   33  NBI   D T 401      10.533   5.550   8.677  1.00 60.13     0.143 N 
HETATM   34  CAO   D T 401      10.927   6.108   7.355  1.00 54.26     0.285 C 
HETATM   35  CAS   D T 401      10.717   4.070   8.772  1.00 43.59     0.285 C 
HETATM   36  CAQ   D T 401      10.354   3.570  10.194  1.00 43.83     0.285 C 
ENDBRANCH  29  30
ENDBRANCH  28  29
ENDBRANCH  27  28
ENDBRANCH  26  27
ENDBRANCH   9  26
TORSDOF 9
ENDMDL
MODEL 3
REMARK VINA RESULT:    -7.759      4.802     10.653
REMARK INTER + INTRA:         -12.937
REMARK INTER:                 -11.995
REMARK INTRA:                  -0.942
REMARK UNBOUND:                -1.095
REMARK  9 active torsions:
REMARK  status: ('A' for Active; 'I' for Inactive)
REMARK    1  A    between atoms: O02_2  and  CAX_24 
REMARK    2  A    between atoms: CAC_3  and  CAM_13 
REMARK    3  A    between atoms: CAC_3  and  NBH_34 
REMARK    4  A    between atoms: CAM_13  and  CAN_14 
REMARK    5  A    between atoms: CAN_14  and  OAW_23 
REMARK    6  A    between atoms: NAU_21  and  CBB_28 
REMARK    7  A    between atoms: NAU_21  and  CBE_31 
REMARK    8  A    between atoms: OAV_22  and  CBC_29 
REMARK    9  A    between atoms: OAW_23  and  CBD_30 
ROOT
HETATM    1  NAD   D T 401       4.772   9.175   4.507  1.00 19.83    -0.191 NA
HETATM    2  CAG   D T 401       4.860   8.343   5.294  1.00 22.89     0.104 C 
HETATM    3  CAH   D T 401       6.139   6.610   6.065  1.00 14.94     0.111 A 
HETATM    4  CAK   D T 401       5.813   4.207   8.771  1.00 20.70     0.045 A 
HETATM    5  CAL   D T 401       3.419   5.611   9.156  1.00 20.29     0.029 A 
HETATM    6  NAT   D T 401       6.368   5.603   6.928  1.00 16.88    -0.243 NA
HETATM    7  CBA   D T 401       4.968   7.385   6.179  1.00 16.47     0.105 A 
HETATM    8  CBC   D T 401       3.734   4.537  10.017  1.00 25.88     0.116 A 
HETATM    9  CBD   D T 401       4.945   3.837   9.814  1.00 27.06     0.118 A 
HETATM   10  CBE   D T 401       4.007   7.083   7.208  1.00 22.24     0.094 A 
HETATM   11  CBF   D T 401       5.498   5.278   7.920  1.00 20.86     0.085 A 
HETATM   12  CBG   D T 401       4.288   6.005   8.097  1.00 20.86     0.038 A 
ENDROOT
BRANCH  10  13
HETATM   13  NAU   D T 401       2.827   7.798   7.366  1.00 16.88    -0.244 NA
BRANCH  13  14
HETATM   14  CBB   D T 401       1.627   7.496   6.788  1.00 19.80     0.094 A 
HETATM   15  CAJ   D T 401       0.951   6.294   7.107  1.00 18.64     0.045 A 
HETATM   16  CAX   D T 401      -0.275   5.994   6.483  1.00 17.07     0.106 A 
HETATM   17  CAY   D T 401      -0.824   6.883   5.538  1.00 24.79     0.081 A 
HETATM   18 CL1    D T 401      -2.297   6.479   4.793  1.00 27.04    -0.080 Cl
HETATM   19  CAI   D T 401      -0.164   8.077   5.208  1.00 19.15     0.026 A 
HETATM   20  CAZ   D T 401       1.060   8.381   5.832  1.00 21.66     0.076 A 
HETATM   21 CL2    D T 401       1.825   9.834   5.402  1.00 21.61    -0.081 Cl
BRANCH  16  22
HETATM   22  O02   D T 401      -0.967   4.841   6.735  1.00 20.01    -0.327 OA
HETATM   23  C01   D T 401      -1.002   4.401   8.102  1.00 19.16     0.181 C 
ENDBRANCH  16  22
ENDBRANCH  13  14
ENDBRANCH  10  13
BRANCH   8  24
HETATM   24  OAV   D T 401       2.905   4.144  11.043  1.00 29.42    -0.326 OA
HETATM   25  CAA   D T 401       1.755   3.370  10.658  1.00 25.21     0.181 C 
ENDBRANCH   8  24
BRANCH   9  26
HETATM   26  OAW   D T 401       5.279   2.789  10.618  1.00 24.87    -0.329 OA
BRANCH  26  27
HETATM   27  CAN   D T 401       6.435   2.941  11.474  1.00 25.33     0.151 C 
BRANCH  27  28
HETATM   28  CAM   D T 401       5.951   3.771  12.698  1.00 30.63     0.068 C 
BRANCH  28  29
HETATM   29  CAC   D T 401       6.768   3.563  13.996  1.00 41.99     0.253 C 
BRANCH  29  30
HETATM   30  NBH   D T 401       7.520   4.789  14.460  1.00 46.77     0.141 N 
HETATM   31  CAP   D T 401       8.604   4.522  15.461  1.00 49.95     0.285 C 
HETATM   32  CAR   D T 401       9.179   5.853  16.008  1.00 58.84     0.285 C 
HETATM   33  NBI   D T 401       9.663   6.728  14.895  1.00 60.13     0.143 N 
HETATM   34  CAO   D T 401      10.333   7.957  15.402  1.00 54.26     0.285 C 
HETATM   35  CAS   D T 401       8.594   7.011  13.889  1.00 43.59     0.285 C 
HETATM   36  CAQ   D T 401       7.991   5.687  13.355  1.00 43.83     0.285 C 
ENDBRANCH  29  30
ENDBRANCH  28  29
ENDBRANCH  27  28
ENDBRANCH  26  27
ENDBRANCH   9  26
TORSDOF 9
ENDMDL
MODEL 4
REMARK VINA RESULT:    -7.631      2.808      4.569
REMARK INTER + INTRA:         -12.741
REMARK INTER:                 -11.083
REMARK INTRA:                  -1.659
REMARK UNBOUND:                -1.095
REMARK  9 active torsions:
REMARK  status: ('A' for Active; 'I' for Inactive)
REMARK    1  A    between atoms: O02_2  and  CAX_24 
REMARK    2  A    between atoms: CAC_3  and  CAM_13 
REMARK    3  A    between atoms: CAC_3  and  NBH_34 
REMARK    4  A    between atoms: CAM_13  and  CAN_14 
REMARK    5  A    between atoms: CAN_14  and  OAW_23 
REMARK    6  A    between atoms: NAU_21  and  CBB_28 
REMARK    7  A    between atoms: NAU_21  and  CBE_31 
REMARK    8  A    between atoms: OAV_22  and  CBC_29 
REMARK    9  A    between atoms: OAW_23  and  CBD_30 
ROOT
HETATM    1  NAD   D T 401       6.121   4.716   8.583  1.00 19.83    -0.191 NA
HETATM    2  CAG   D T 401       5.810   5.455   7.762  1.00 22.89     0.104 C 
HETATM    3  CAH   D T 401       6.342   6.331   5.717  1.00 14.94     0.111 A 
HETATM    4  CAK   D T 401       4.839   8.820   3.537  1.00 20.70     0.045 A 
HETATM    5  CAL   D T 401       2.998   8.931   5.647  1.00 20.29     0.029 A 
HETATM    6  NAT   D T 401       6.091   7.153   4.681  1.00 16.88    -0.243 NA
HETATM    7  CBA   D T 401       5.471   6.303   6.823  1.00 16.47     0.105 A 
HETATM    8  CBC   D T 401       2.810   9.765   4.522  1.00 25.88     0.116 A 
HETATM    9  CBD   D T 401       3.744   9.699   3.464  1.00 27.06     0.118 A 
HETATM   10  CBE   D T 401       4.324   7.171   6.853  1.00 22.24     0.094 A 
HETATM   11  CBF   D T 401       5.021   7.990   4.655  1.00 20.86     0.085 A 
HETATM   12  CBG   D T 401       4.098   8.030   5.737  1.00 20.86     0.038 A 
ENDROOT
BRANCH  10  13
HETATM   13  NAU   D T 401       3.434   7.204   7.919  1.00 16.88    -0.244 NA
BRANCH  13  14
HETATM   14  CBB   D T 401       2.287   6.470   8.026  1.00 19.80     0.094 A 
HETATM   15  CAJ   D T 401       1.268   6.572   7.050  1.00 18.64     0.045 A 
HETATM   16  CAX   D T 401       0.085   5.822   7.192  1.00 17.07     0.106 A 
HETATM   17  CAY   D T 401      -0.088   4.977   8.307  1.00 24.79     0.081 A 
HETATM   18 CL1    D T 401      -1.535   4.100   8.453  1.00 27.04    -0.080 Cl
HETATM   19  CAI   D T 401       0.913   4.869   9.285  1.00 19.15     0.026 A 
HETATM   20  CAZ   D T 401       2.097   5.615   9.146  1.00 21.66     0.076 A 
HETATM   21 CL2    D T 401       3.278   5.455  10.353  1.00 21.61    -0.081 Cl
BRANCH  16  22
HETATM   22  O02   D T 401      -0.944   5.889   6.293  1.00 20.01    -0.327 OA
HETATM   23  C01   D T 401      -1.161   7.163   5.664  1.00 19.16     0.181 C 
ENDBRANCH  16  22
ENDBRANCH  13  14
ENDBRANCH  10  13
BRANCH   8  24
HETATM   24  OAV   D T 401       1.752  10.641   4.421  1.00 29.42    -0.326 OA
HETATM   25  CAA   D T 401       0.714  10.487   5.405  1.00 25.21     0.181 C 
ENDBRANCH   8  24
BRANCH   9  26
HETATM   26  OAW   D T 401       3.601  10.494   2.368  1.00 24.87    -0.329 OA
BRANCH  26  27
HETATM   27  CAN   D T 401       4.249  11.787   2.386  1.00 25.33     0.151 C 
BRANCH  27  28
HETATM   28  CAM   D T 401       5.333  11.735   1.271  1.00 30.63     0.068 C 
BRANCH  28  29
HETATM   29  CAC   D T 401       6.782  11.990   1.752  1.00 41.99     0.253 C 
BRANCH  29  30
HETATM   30  NBH   D T 401       7.282  10.993   2.772  1.00 46.77     0.141 N 
HETATM   31  CAP   D T 401       8.458  10.175   2.330  1.00 49.95     0.285 C 
HETATM   32  CAR   D T 401       8.769   9.066   3.366  1.00 58.84     0.285 C 
HETATM   33  NBI   D T 401       8.984   9.645   4.728  1.00 60.13     0.143 N 
HETATM   34  CAO   D T 401       9.407   8.613   5.713  1.00 54.26     0.285 C 
HETATM   35  CAS   D T 401       7.819  10.459   5.190  1.00 43.59     0.285 C 
HETATM   36  CAQ   D T 401       7.479  11.556   4.148  1.00 43.83     0.285 C 
ENDBRANCH  29  30
ENDBRANCH  28  29
ENDBRANCH  27  28
ENDBRANCH  26  27
ENDBRANCH   9  26
TORSDOF 9
ENDMDL
MODEL 5
REMARK VINA RESULT:    -7.568      1.564      2.306
REMARK INTER + INTRA:         -12.646
REMARK INTER:                 -11.676
REMARK INTRA:                  -0.970
REMARK UNBOUND:                -1.095
REMARK  9 active torsions:
REMARK  status: ('A' for Active; 'I' for Inactive)
REMARK    1  A    between atoms: O02_2  and  CAX_24 
REMARK    2  A    between atoms: CAC_3  and  CAM_13 
REMARK    3  A    between atoms: CAC_3  and  NBH_34 
REMARK    4  A    between atoms: CAM_13  and  CAN_14 
REMARK    5  A    between atoms: CAN_14  and  OAW_23 
REMARK    6  A    between atoms: NAU_21  and  CBB_28 
REMARK    7  A    between atoms: NAU_21  and  CBE_31 
REMARK    8  A    between atoms: OAV_22  and  CBC_29 
REMARK    9  A    between atoms: OAW_23  and  CBD_30 
ROOT
HETATM    1  NAD   D T 401       5.966   3.433  10.130  1.00 19.83    -0.191 NA
HETATM    2  CAG   D T 401       5.933   4.258   9.332  1.00 22.89     0.104 C 
HETATM    3  CAH   D T 401       6.998   5.175   7.527  1.00 14.94     0.111 A 
HETATM    4  CAK   D T 401       6.318   7.977   5.315  1.00 20.70     0.045 A 
HETATM    5  CAL   D T 401       4.092   8.212   7.000  1.00 20.29     0.029 A 
HETATM    6  NAT   D T 401       7.079   6.086   6.540  1.00 16.88    -0.243 NA
HETATM    7  CBA   D T 401       5.912   5.201   8.423  1.00 16.47     0.105 A 
HETATM    8  CBC   D T 401       4.255   9.131   5.940  1.00 25.88     0.116 A 
HETATM    9  CBD   D T 401       5.380   9.002   5.096  1.00 27.06     0.118 A 
HETATM   10  CBE   D T 401       4.900   6.216   8.292  1.00 22.24     0.094 A 
HETATM   11  CBF   D T 401       6.151   7.063   6.368  1.00 20.86     0.085 A 
HETATM   12  CBG   D T 401       5.028   7.164   7.235  1.00 20.86     0.038 A 
ENDROOT
BRANCH  10  13
HETATM   13  NAU   D T 401       3.811   6.306   9.150  1.00 16.88    -0.244 NA
BRANCH  13  14
HETATM   14  CBB   D T 401       2.564   5.801   8.915  1.00 19.80     0.094 A 
HETATM   15  CAJ   D T 401       1.767   6.304   7.858  1.00 18.64     0.045 A 
HETATM   16  CAX   D T 401       0.476   5.783   7.647  1.00 17.07     0.106 A 
HETATM   17  CAY   D T 401      -0.026   4.771   8.490  1.00 24.79     0.081 A 
HETATM   18 CL1    D T 401      -1.594   4.180   8.215  1.00 27.04    -0.080 Cl
HETATM   19  CAI   D T 401       0.751   4.267   9.545  1.00 19.15     0.026 A 
HETATM   20  CAZ   D T 401       2.042   4.782   9.757  1.00 21.66     0.076 A 
HETATM   21 CL2    D T 401       2.945   4.145  11.045  1.00 21.61    -0.081 Cl
BRANCH  16  22
HETATM   22  O02   D T 401      -0.349   6.237   6.655  1.00 20.01    -0.327 OA
HETATM   23  C01   D T 401      -0.942   7.530   6.858  1.00 19.16     0.181 C 
ENDBRANCH  16  22
ENDBRANCH  13  14
ENDBRANCH  10  13
BRANCH   8  24
HETATM   24  OAV   D T 401       3.360  10.150   5.701  1.00 29.42    -0.326 OA
HETATM   25  CAA   D T 401       1.968   9.794   5.784  1.00 25.21     0.181 C 
ENDBRANCH   8  24
BRANCH   9  26
HETATM   26  OAW   D T 401       5.576   9.875   4.069  1.00 24.87    -0.329 OA
BRANCH  26  27
HETATM   27  CAN   D T 401       5.370   9.387   2.723  1.00 25.33     0.151 C 
BRANCH  27  28
HETATM   28  CAM   D T 401       3.925   9.812   2.333  1.00 30.63     0.068 C 
BRANCH  28  29
HETATM   29  CAC   D T 401       3.636  11.329   2.443  1.00 41.99     0.253 C 
BRANCH  29  30
HETATM   30  NBH   D T 401       3.348  12.003   1.122  1.00 46.77     0.141 N 
HETATM   31  CAP   D T 401       4.531  12.137   0.211  1.00 49.95     0.285 C 
HETATM   32  CAR   D T 401       4.173  13.003  -1.023  1.00 58.84     0.285 C 
HETATM   33  NBI   D T 401       2.985  12.449  -1.744  1.00 60.13     0.143 N 
HETATM   34  CAO   D T 401       2.698  13.191  -3.002  1.00 54.26     0.285 C 
HETATM   35  CAS   D T 401       1.792  12.314  -0.853  1.00 43.59     0.285 C 
HETATM   36  CAQ   D T 401       2.145  11.472   0.400  1.00 43.83     0.285 C 
ENDBRANCH  29  30
ENDBRANCH  28  29
ENDBRANCH  27  28
ENDBRANCH  26  27
ENDBRANCH   9  26
TORSDOF 9
ENDMDL
MODEL 6
REMARK VINA RESULT:    -7.543      1.807      2.565
REMARK INTER + INTRA:         -12.607
REMARK INTER:                 -12.381
REMARK INTRA:                  -0.226
REMARK UNBOUND:                -1.095
REMARK  9 active torsions:
REMARK  status: ('A' for Active; 'I' for Inactive)
REMARK    1  A    between atoms: O02_2  and  CAX_24 
REMARK    2  A    between atoms: CAC_3  and  CAM_13 
REMARK    3  A    between atoms: CAC_3  and  NBH_34 
REMARK    4  A    between atoms: CAM_13  and  CAN_14 
REMARK    5  A    between atoms: CAN_14  and  OAW_23 
REMARK    6  A    between atoms: NAU_21  and  CBB_28 
REMARK    7  A    between atoms: NAU_21  and  CBE_31 
REMARK    8  A    between atoms: OAV_22  and  CBC_29 
REMARK    9  A    between atoms: OAW_23  and  CBD_30 
ROOT
HETATM    1  NAD   D T 401       6.331   5.026   8.677  1.00 19.83    -0.191 NA
HETATM    2  CAG   D T 401       5.901   5.694   7.849  1.00 22.89     0.104 C 
HETATM    3  CAH   D T 401       6.169   6.440   5.702  1.00 14.94     0.111 A 
HETATM    4  CAK   D T 401       4.334   8.716   3.544  1.00 20.70     0.045 A 
HETATM    5  CAL   D T 401       2.732   8.914   5.835  1.00 20.29     0.029 A 
HETATM    6  NAT   D T 401       5.772   7.178   4.650  1.00 16.88    -0.243 NA
HETATM    7  CBA   D T 401       5.427   6.462   6.899  1.00 16.47     0.105 A 
HETATM    8  CBC   D T 401       2.387   9.659   4.685  1.00 25.88     0.116 A 
HETATM    9  CBD   D T 401       3.202   9.550   3.536  1.00 27.06     0.118 A 
HETATM   10  CBE   D T 401       4.254   7.290   6.999  1.00 22.24     0.094 A 
HETATM   11  CBF   D T 401       4.672   7.974   4.688  1.00 20.86     0.085 A 
HETATM   12  CBG   D T 401       3.872   8.059   5.861  1.00 20.86     0.038 A 
ENDROOT
BRANCH  10  13
HETATM   13  NAU   D T 401       3.486   7.368   8.154  1.00 16.88    -0.244 NA
BRANCH  13  14
HETATM   14  CBB   D T 401       2.835   6.326   8.752  1.00 19.80     0.094 A 
HETATM   15  CAJ   D T 401       3.439   5.608   9.812  1.00 18.64     0.045 A 
HETATM   16  CAX   D T 401       2.758   4.525  10.400  1.00 17.07     0.106 A 
HETATM   17  CAY   D T 401       1.484   4.151   9.931  1.00 24.79     0.081 A 
HETATM   18 CL1    D T 401       0.700   2.828  10.654  1.00 27.04    -0.080 Cl
HETATM   19  CAI   D T 401       0.874   4.851   8.878  1.00 19.15     0.026 A 
HETATM   20  CAZ   D T 401       1.549   5.936   8.289  1.00 21.66     0.076 A 
HETATM   21 CL2    D T 401       0.776   6.751   7.018  1.00 21.61    -0.081 Cl
BRANCH  16  22
HETATM   22  O02   D T 401       3.295   3.781  11.414  1.00 20.01    -0.327 OA
HETATM   23  C01   D T 401       4.714   3.889  11.606  1.00 19.16     0.181 C 
ENDBRANCH  16  22
ENDBRANCH  13  14
ENDBRANCH  10  13
BRANCH   8  24
HETATM   24  OAV   D T 401       1.289  10.489   4.645  1.00 29.42    -0.326 OA
HETATM   25  CAA   D T 401       0.499  10.542   5.846  1.00 25.21     0.181 C 
ENDBRANCH   8  24
BRANCH   9  26
HETATM   26  OAW   D T 401       2.907  10.260   2.412  1.00 24.87    -0.329 OA
BRANCH  26  27
HETATM   27  CAN   D T 401       4.008  10.681   1.574  1.00 25.33     0.151 C 
BRANCH  27  28
HETATM   28  CAM   D T 401       3.433  11.782   0.637  1.00 30.63     0.068 C 
BRANCH  28  29
HETATM   29  CAC   D T 401       2.269  11.326  -0.275  1.00 41.99     0.253 C 
BRANCH  29  30
HETATM   30  NBH   D T 401       1.425  12.455  -0.817  1.00 46.77     0.141 N 
HETATM   31  CAP   D T 401       2.160  13.433  -1.683  1.00 49.95     0.285 C 
HETATM   32  CAR   D T 401       1.255  14.643  -2.027  1.00 58.84     0.285 C 
HETATM   33  NBI   D T 401      -0.021  14.196  -2.667  1.00 60.13     0.143 N 
HETATM   34  CAO   D T 401      -0.851  15.346  -3.120  1.00 54.26     0.285 C 
HETATM   35  CAS   D T 401      -0.773  13.224  -1.816  1.00 43.59     0.285 C 
HETATM   36  CAQ   D T 401       0.131  12.022  -1.440  1.00 43.83     0.285 C 
ENDBRANCH  29  30
ENDBRANCH  28  29
ENDBRANCH  27  28
ENDBRANCH  26  27
ENDBRANCH   9  26
TORSDOF 9
ENDMDL
MODEL 7
REMARK VINA RESULT:    -7.425      3.904      6.999
REMARK INTER + INTRA:         -12.427
REMARK INTER:                 -10.671
REMARK INTRA:                  -1.757
REMARK UNBOUND:                -1.095
REMARK  9 active torsions:
REMARK  status: ('A' for Active; 'I' for Inactive)
REMARK    1  A    between atoms: O02_2  and  CAX_24 
REMARK    2  A    between atoms: CAC_3  and  CAM_13 
REMARK    3  A    between atoms: CAC_3  and  NBH_34 
REMARK    4  A    between atoms: CAM_13  and  CAN_14 
REMARK    5  A    between atoms: CAN_14  and  OAW_23 
REMARK    6  A    between atoms: NAU_21  and  CBB_28 
REMARK    7  A    between atoms: NAU_21  and  CBE_31 
REMARK    8  A    between atoms: OAV_22  and  CBC_29 
REMARK    9  A    between atoms: OAW_23  and  CBD_30 
ROOT
HETATM    1  NAD   D T 401       2.459   5.565   9.983  1.00 19.83    -0.191 NA
HETATM    2  CAG   D T 401       3.106   5.917   9.103  1.00 22.89     0.104 C 
HETATM    3  CAH   D T 401       5.109   5.673   8.024  1.00 14.94     0.111 A 
HETATM    4  CAK   D T 401       6.638   7.206   5.105  1.00 20.70     0.045 A 
HETATM    5  CAL   D T 401       4.214   8.612   5.107  1.00 20.29     0.029 A 
HETATM    6  NAT   D T 401       5.965   5.990   7.035  1.00 16.88    -0.243 NA
HETATM    7  CBA   D T 401       3.859   6.316   8.108  1.00 16.47     0.105 A 
HETATM    8  CBC   D T 401       5.170   8.887   4.104  1.00 25.88     0.116 A 
HETATM    9  CBD   D T 401       6.388   8.170   4.113  1.00 27.06     0.118 A 
HETATM   10  CBE   D T 401       3.507   7.327   7.145  1.00 22.24     0.094 A 
HETATM   11  CBF   D T 401       5.683   6.933   6.098  1.00 20.86     0.085 A 
HETATM   12  CBG   D T 401       4.446   7.635   6.117  1.00 20.86     0.038 A 
ENDROOT
BRANCH  10  13
HETATM   13  NAU   D T 401       2.298   8.009   7.180  1.00 16.88    -0.244 NA
BRANCH  13  14
HETATM   14  CBB   D T 401       1.129   7.592   6.609  1.00 19.80     0.094 A 
HETATM   15  CAJ   D T 401       0.510   6.388   7.022  1.00 18.64     0.045 A 
HETATM   16  CAX   D T 401      -0.683   5.968   6.405  1.00 17.07     0.106 A 
HETATM   17  CAY   D T 401      -1.257   6.738   5.374  1.00 24.79     0.081 A 
HETATM   18 CL1    D T 401      -2.688   6.190   4.641  1.00 27.04    -0.080 Cl
HETATM   19  CAI   D T 401      -0.652   7.933   4.951  1.00 19.15     0.026 A 
HETATM   20  CAZ   D T 401       0.539   8.357   5.567  1.00 21.66     0.076 A 
HETATM   21 CL2    D T 401       1.237   9.805   5.022  1.00 21.61    -0.081 Cl
BRANCH  16  22
HETATM   22  O02   D T 401      -1.320   4.806   6.746  1.00 20.01    -0.327 OA
HETATM   23  C01   D T 401      -0.815   4.114   7.899  1.00 19.16     0.181 C 
ENDBRANCH  16  22
ENDBRANCH  13  14
ENDBRANCH  10  13
BRANCH   8  24
HETATM   24  OAV   D T 401       4.961   9.829   3.121  1.00 29.42    -0.326 OA
HETATM   25  CAA   D T 401       3.711   9.730   2.416  1.00 25.21     0.181 C 
ENDBRANCH   8  24
BRANCH   9  26
HETATM   26  OAW   D T 401       7.338   8.414   3.168  1.00 24.87    -0.329 OA
BRANCH  26  27
HETATM   27  CAN   D T 401       8.684   8.686   3.622  1.00 25.33     0.151 C 
BRANCH  27  28
HETATM   28  CAM   D T 401       8.648  10.120   4.225  1.00 30.63     0.068 C 
BRANCH  28  29
HETATM   29  CAC   D T 401       9.331  10.269   5.606  1.00 41.99     0.253 C 
BRANCH  29  30
HETATM   30  NBH   D T 401       8.977   9.183   6.595  1.00 46.77     0.141 N 
HETATM   31  CAP   D T 401      10.082   8.214   6.890  1.00 49.95     0.285 C 
HETATM   32  CAR   D T 401       9.562   7.043   7.761  1.00 58.84     0.285 C 
HETATM   33  NBI   D T 401       8.924   7.547   9.017  1.00 60.13     0.143 N 
HETATM   34  CAO   D T 401       8.529   6.438   9.927  1.00 54.26     0.285 C 
HETATM   35  CAS   D T 401       7.814   8.511   8.743  1.00 43.59     0.285 C 
HETATM   36  CAQ   D T 401       8.316   9.673   7.848  1.00 43.83     0.285 C 
ENDBRANCH  29  30
ENDBRANCH  28  29
ENDBRANCH  27  28
ENDBRANCH  26  27
ENDBRANCH   9  26
TORSDOF 9
ENDMDL
MODEL 8
REMARK VINA RESULT:    -7.381      2.276      3.547
REMARK INTER + INTRA:         -12.360
REMARK INTER:                 -11.001
REMARK INTRA:                  -1.359
REMARK UNBOUND:                -1.095
REMARK  9 active torsions:
REMARK  status: ('A' for Active; 'I' for Inactive)
REMARK    1  A    between atoms: O02_2  and  CAX_24 
REMARK    2  A    between atoms: CAC_3  and  CAM_13 
REMARK    3  A    between atoms: CAC_3  and  NBH_34 
REMARK    4  A    between atoms: CAM_13  and  CAN_14 
REMARK    5  A    between atoms: CAN_14  and  OAW_23 
REMARK    6  A    between atoms: NAU_21  and  CBB_28 
REMARK    7  A    between atoms: NAU_21  and  CBE_31 
REMARK    8  A    between atoms: OAV_22  and  CBC_29 
REMARK    9  A    between atoms: OAW_23  and  CBD_30 
ROOT
HETATM    1  NAD   D T 401       6.201   5.106   8.251  1.00 19.83    -0.191 NA
HETATM    2  CAG   D T 401       5.800   5.866   7.488  1.00 22.89     0.104 C 
HETATM    3  CAH   D T 401       6.171   6.884   5.473  1.00 14.94     0.111 A 
HETATM    4  CAK   D T 401       4.399   9.375   3.509  1.00 20.70     0.045 A 
HETATM    5  CAL   D T 401       2.661   9.245   5.704  1.00 20.29     0.029 A 
HETATM    6  NAT   D T 401       5.814   7.741   4.499  1.00 16.88    -0.243 NA
HETATM    7  CBA   D T 401       5.360   6.737   6.615  1.00 16.47     0.105 A 
HETATM    8  CBC   D T 401       2.362  10.122   4.638  1.00 25.88     0.116 A 
HETATM    9  CBD   D T 401       3.245  10.178   3.536  1.00 27.06     0.118 A 
HETATM   10  CBE   D T 401       4.159   7.520   6.746  1.00 22.24     0.094 A 
HETATM   11  CBF   D T 401       4.691   8.501   4.569  1.00 20.86     0.085 A 
HETATM   12  CBG   D T 401       3.822   8.419   5.692  1.00 20.86     0.038 A 
ENDROOT
BRANCH  10  13
HETATM   13  NAU   D T 401       3.323   7.434   7.852  1.00 16.88    -0.244 NA
BRANCH  13  14
HETATM   14  CBB   D T 401       2.204   6.657   7.949  1.00 19.80     0.094 A 
HETATM   15  CAJ   D T 401       1.178   6.739   6.976  1.00 18.64     0.045 A 
HETATM   16  CAX   D T 401       0.024   5.944   7.108  1.00 17.07     0.106 A 
HETATM   17  CAY   D T 401      -0.116   5.076   8.209  1.00 24.79     0.081 A 
HETATM   18 CL1    D T 401      -1.530   4.145   8.343  1.00 27.04    -0.080 Cl
HETATM   19  CAI   D T 401       0.891   4.987   9.184  1.00 19.15     0.026 A 
HETATM   20  CAZ   D T 401       2.047   5.777   9.054  1.00 21.66     0.076 A 
HETATM   21 CL2    D T 401       3.236   5.640  10.257  1.00 21.61    -0.081 Cl
BRANCH  16  22
HETATM   22  O02   D T 401      -1.009   5.990   6.212  1.00 20.01    -0.327 OA
HETATM   23  C01   D T 401      -1.220   7.244   5.543  1.00 19.16     0.181 C 
ENDBRANCH  16  22
ENDBRANCH  13  14
ENDBRANCH  10  13
BRANCH   8  24
HETATM   24  OAV   D T 401       1.244  10.927   4.634  1.00 29.42    -0.326 OA
HETATM   25  CAA   D T 401       0.366  10.783   5.764  1.00 25.21     0.181 C 
ENDBRANCH   8  24
BRANCH   9  26
HETATM   26  OAW   D T 401       2.995  11.019   2.494  1.00 24.87    -0.329 OA
BRANCH  26  27
HETATM   27  CAN   D T 401       3.417  10.600   1.176  1.00 25.33     0.151 C 
BRANCH  27  28
HETATM   28  CAM   D T 401       4.213  11.799   0.583  1.00 30.63     0.068 C 
BRANCH  28  29
HETATM   29  CAC   D T 401       5.749  11.715   0.754  1.00 41.99     0.253 C 
BRANCH  29  30
HETATM   30  NBH   D T 401       6.318  12.694   1.754  1.00 46.77     0.141 N 
HETATM   31  CAP   D T 401       5.418  13.845   2.092  1.00 49.95     0.285 C 
HETATM   32  CAR   D T 401       6.164  14.880   2.971  1.00 58.84     0.285 C 
HETATM   33  NBI   D T 401       6.720  14.238   4.203  1.00 60.13     0.143 N 
HETATM   34  CAO   D T 401       7.333  15.234   5.124  1.00 54.26     0.285 C 
HETATM   35  CAS   D T 401       7.626  13.091   3.887  1.00 43.59     0.285 C 
HETATM   36  CAQ   D T 401       6.900  12.062   2.983  1.00 43.83     0.285 C 
ENDBRANCH  29  30
ENDBRANCH  28  29
ENDBRANCH  27  28
ENDBRANCH  26  27
ENDBRANCH   9  26
TORSDOF 9
ENDMDL
MODEL 9
REMARK VINA RESULT:    -7.381      4.648      7.757
REMARK INTER + INTRA:         -12.360
REMARK INTER:                 -11.897
REMARK INTRA:                  -0.463
REMARK UNBOUND:                -1.095
REMARK  9 active torsions:
REMARK  status: ('A' for Active; 'I' for Inactive)
REMARK    1  A    between atoms: O02_2  and  CAX_24 
REMARK    2  A    between atoms: CAC_3  and  CAM_13 
REMARK    3  A    between atoms: CAC_3  and  NBH_34 
REMARK    4  A    between atoms: CAM_13  and  CAN_14 
REMARK    5  A    between atoms: CAN_14  and  OAW_23 
REMARK    6  A    between atoms: NAU_21  and  CBB_28 
REMARK    7  A    between atoms: NAU_21  and  CBE_31 
REMARK    8  A    between atoms: OAV_22  and  CBC_29 
REMARK    9  A    between atoms: OAW_23  and  CBD_30 
ROOT
HETATM    1  NAD   D T 401       2.214   3.168  10.979  1.00 19.83    -0.191 NA
HETATM    2  CAG   D T 401       2.892   3.761  10.268  1.00 22.89     0.104 C 
HETATM    3  CAH   D T 401       4.966   3.886   9.311  1.00 14.94     0.111 A 
HETATM    4  CAK   D T 401       6.578   6.183   7.002  1.00 20.70     0.045 A 
HETATM    5  CAL   D T 401       4.081   7.444   7.187  1.00 20.29     0.029 A 
HETATM    6  NAT   D T 401       5.860   4.483   8.501  1.00 16.88    -0.243 NA
HETATM    7  CBA   D T 401       3.679   4.435   9.466  1.00 16.47     0.105 A 
HETATM    8  CBC   D T 401       5.079   8.007   6.361  1.00 25.88     0.116 A 
HETATM    9  CBD   D T 401       6.333   7.361   6.274  1.00 27.06     0.118 A 
HETATM   10  CBE   D T 401       3.328   5.646   8.772  1.00 22.24     0.094 A 
HETATM   11  CBF   D T 401       5.582   5.624   7.819  1.00 20.86     0.085 A 
HETATM   12  CBG   D T 401       4.308   6.248   7.928  1.00 20.86     0.038 A 
ENDROOT
BRANCH  10  13
HETATM   13  NAU   D T 401       2.082   6.247   8.892  1.00 16.88    -0.244 NA
BRANCH  13  14
HETATM   14  CBB   D T 401       1.162   6.387   7.892  1.00 19.80     0.094 A 
HETATM   15  CAJ   D T 401       1.230   7.478   6.992  1.00 18.64     0.045 A 
HETATM   16  CAX   D T 401       0.259   7.612   5.982  1.00 17.07     0.106 A 
HETATM   17  CAY   D T 401      -0.783   6.670   5.871  1.00 24.79     0.081 A 
HETATM   18 CL1    D T 401      -1.946   6.876   4.650  1.00 27.04    -0.080 Cl
HETATM   19  CAI   D T 401      -0.866   5.586   6.759  1.00 19.15     0.026 A 
HETATM   20  CAZ   D T 401       0.104   5.446   7.767  1.00 21.66     0.076 A 
HETATM   21 CL2    D T 401      -0.037   4.122   8.819  1.00 21.61    -0.081 Cl
BRANCH  16  22
HETATM   22  O02   D T 401       0.259   8.652   5.093  1.00 20.01    -0.327 OA
HETATM   23  C01   D T 401       0.378   9.971   5.651  1.00 19.16     0.181 C 
ENDBRANCH  16  22
ENDBRANCH  13  14
ENDBRANCH  10  13
BRANCH   8  24
HETATM   24  OAV   D T 401       4.876   9.162   5.640  1.00 29.42    -0.326 OA
HETATM   25  CAA   D T 401       4.000   9.046   4.504  1.00 25.21     0.181 C 
ENDBRANCH   8  24
BRANCH   9  26
HETATM   26  OAW   D T 401       7.323   7.880   5.495  1.00 24.87    -0.329 OA
BRANCH  26  27
HETATM   27  CAN   D T 401       8.560   8.257   6.142  1.00 25.33     0.151 C 
BRANCH  27  28
HETATM   28  CAM   D T 401       8.234   9.533   6.971  1.00 30.63     0.068 C 
BRANCH  28  29
HETATM   29  CAC   D T 401       9.439  10.158   7.715  1.00 41.99     0.253 C 
BRANCH  29  30
HETATM   30  NBH   D T 401       9.268  10.244   9.214  1.00 46.77     0.141 N 
HETATM   31  CAP   D T 401       8.658  11.521   9.707  1.00 49.95     0.285 C 
HETATM   32  CAR   D T 401       8.701  11.584  11.254  1.00 58.84     0.285 C 
HETATM   33  NBI   D T 401       8.036  10.389  11.861  1.00 60.13     0.143 N 
HETATM   34  CAO   D T 401       7.954  10.488  13.343  1.00 54.26     0.285 C 
HETATM   35  CAS   D T 401       8.634   9.104  11.386  1.00 43.59     0.285 C 
HETATM   36  CAQ   D T 401       8.623   9.042   9.837  1.00 43.83     0.285 C 
ENDBRANCH  29  30
ENDBRANCH  28  29
ENDBRANCH  27  28
ENDBRANCH  26  27
ENDBRANCH   9  26
TORSDOF 9
ENDMDL
