MODEL 1
REMARK VINA RESULT:    -8.116      0.000      0.000
REMARK INTER + INTRA:         -12.035
REMARK INTER:                 -11.437
REMARK INTRA:                  -0.599
REMARK UNBOUND:                -0.599
REMARK  7 active torsions:
REMARK  status: ('A' for Active; 'I' for Inactive)
REMARK    1  A    between atoms: C22_10  and  C19_16 
REMARK       I    between atoms: C22_10  and  N25_19 
REMARK    2  A    between atoms: C12_12  and  C18_15 
REMARK    3  A    between atoms: N25_19  and  C37_23 
REMARK    4  A    between atoms: C37_23  and  C38_24 
REMARK    5  A    between atoms: C38_24  and  N4_25 
REMARK    6  A    between atoms: N4_25  and  C39_26 
REMARK    7  A    between atoms: N4_25  and  C40_27 
ROOT
HETATM    1  C4    D T 401       0.558  10.995   5.137  1.00 25.65     0.052 C 
HETATM    2  C13   D T 401       3.306   8.453   5.201  1.00 28.91     0.002 A 
HETATM    3  C3    D T 401       4.582   7.772   4.728  1.00 31.15     0.033 C 
HETATM    4  C14   D T 401       1.552   9.864   5.363  1.00 29.63     0.064 A 
HETATM    5  C18   D T 401       2.516   8.081   6.275  1.00 27.57     0.077 A 
HETATM    6  C19   D T 401       2.687   9.599   4.611  1.00 27.94     0.069 A 
HETATM    7  N23   D T 401       1.477   8.945   6.353  1.00 23.32    -0.250 NA
ENDROOT
BRANCH   5   8
HETATM    8  C12   D T 401       2.772   6.933   7.176  1.00 27.08     0.024 C 
HETATM    9  C20   D T 401       1.803   6.061   7.660  1.00 23.71     0.061 A 
HETATM   10  C17   D T 401       2.049   5.205   8.794  1.00 26.90     0.025 A 
HETATM   11  C21   D T 401       0.501   5.795   7.227  1.00 23.79     0.279 A 
HETATM   12  C7    D T 401       3.178   5.038   9.635  1.00 28.25     0.031 A 
HETATM   13  C16   D T 401       0.901   4.473   9.011  1.00 23.25     0.085 A 
HETATM   14  C15   D T 401       3.117   4.107  10.704  1.00 30.52     0.140 A 
HETATM   15  C5    D T 401       1.954   3.357  10.927  1.00 27.96     0.031 A 
HETATM   16  F29   D T 401       4.169   3.940  11.506  1.00 36.08    -0.204 F 
HETATM   17  C6    D T 401       0.852   3.514  10.100  1.00 30.63     0.021 A 
HETATM   18  N24   D T 401      -0.032   4.836   8.049  1.00 22.38    -0.208 NA
HETATM   19  O27   D T 401      -0.097   6.275   6.301  1.00 24.04    -0.265 OA
ENDBRANCH   5   8
BRANCH   6  20
HETATM   20  C22   D T 401       3.196  10.385   3.389  1.00 30.01     0.276 C 
HETATM   21  N25   D T 401       2.625  10.109   2.100  1.00 32.50    -0.232 NA
HETATM   22  O28   D T 401       4.092  11.235   3.530  1.00 32.52    -0.266 OA
BRANCH  21  23
HETATM   23  C37   D T 401       3.059  10.811   0.909  1.00 43.36     0.164 C 
BRANCH  23  24
HETATM   24  C38   D T 401       2.090  11.779   0.261  1.00 41.32     0.276 C 
BRANCH  24  25
HETATM   25  N4    D T 401       1.951  11.749  -1.196  1.00 49.47     0.139 N 
BRANCH  25  26
HETATM   26  C39   D T 401       2.780  12.826  -1.793  1.00 47.52     0.250 C 
HETATM   27  C42   D T 401       2.693  13.053  -3.251  1.00 42.88     0.037 C 
ENDBRANCH  25  26
BRANCH  25  28
HETATM   28  C40   D T 401       0.557  11.859  -1.619  1.00 47.71     0.250 C 
HETATM   29  C41   D T 401      -0.049  10.748  -2.423  1.00 49.11     0.037 C 
ENDBRANCH  25  28
ENDBRANCH  24  25
ENDBRANCH  23  24
ENDBRANCH  21  23
ENDBRANCH   6  20
TORSDOF 7
ENDMDL
MODEL 2
REMARK VINA RESULT:    -7.723      2.135      3.182
REMARK INTER + INTRA:         -11.482
REMARK INTER:                 -10.763
REMARK INTRA:                  -0.719
REMARK UNBOUND:                -0.599
REMARK  7 active torsions:
REMARK  status: ('A' for Active; 'I' for Inactive)
REMARK    1  A    between atoms: C22_10  and  C19_16 
REMARK       I    between atoms: C22_10  and  N25_19 
REMARK    2  A    between atoms: C12_12  and  C18_15 
REMARK    3  A    between atoms: N25_19  and  C37_23 
REMARK    4  A    between atoms: C37_23  and  C38_24 
REMARK    5  A    between atoms: C38_24  and  N4_25 
REMARK    6  A    between atoms: N4_25  and  C39_26 
REMARK    7  A    between atoms: N4_25  and  C40_27 
ROOT
HETATM    1  C4    D T 401       5.508   8.953   2.347  1.00 25.65     0.052 C 
HETATM    2  C13   D T 401       2.382   9.795   4.229  1.00 28.91     0.002 A 
HETATM    3  C3    D T 401       1.151  10.615   4.583  1.00 31.15     0.033 C 
HETATM    4  C14   D T 401       4.287   9.085   3.247  1.00 29.63     0.064 A 
HETATM    5  C18   D T 401       2.800   8.621   4.832  1.00 27.57     0.077 A 
HETATM    6  C19   D T 401       3.338  10.097   3.209  1.00 27.94     0.069 A 
HETATM    7  N23   D T 401       3.938   8.215   4.222  1.00 23.32    -0.250 NA
ENDROOT
BRANCH   5   8
HETATM    8  C12   D T 401       2.113   7.938   5.954  1.00 27.08     0.024 C 
HETATM    9  C20   D T 401       2.737   7.433   7.090  1.00 23.71     0.061 A 
HETATM   10  C17   D T 401       2.087   6.480   7.954  1.00 26.90     0.025 A 
HETATM   11  C21   D T 401       3.995   7.691   7.643  1.00 23.79     0.279 A 
HETATM   12  C7    D T 401       0.816   5.856   7.900  1.00 28.25     0.031 A 
HETATM   13  C16   D T 401       2.965   6.190   8.976  1.00 23.25     0.085 A 
HETATM   14  C15   D T 401       0.452   4.929   8.909  1.00 30.52     0.140 A 
HETATM   15  C5    D T 401       1.339   4.633   9.954  1.00 27.96     0.031 A 
HETATM   16  F29   D T 401      -0.739   4.331   8.872  1.00 36.08    -0.204 F 
HETATM   17  C6    D T 401       2.580   5.249  10.013  1.00 30.63     0.021 A 
HETATM   18  N24   D T 401       4.120   6.936   8.781  1.00 22.38    -0.208 NA
HETATM   19  O27   D T 401       4.852   8.438   7.251  1.00 24.04    -0.265 OA
ENDBRANCH   5   8
BRANCH   6  20
HETATM   20  C22   D T 401       3.304  11.303   2.254  1.00 30.01     0.276 C 
HETATM   21  N25   D T 401       2.763  11.127   0.934  1.00 32.50    -0.232 NA
HETATM   22  O28   D T 401       3.748  12.401   2.628  1.00 32.52    -0.266 OA
BRANCH  21  23
HETATM   23  C37   D T 401       2.702  12.220  -0.016  1.00 43.36     0.164 C 
BRANCH  23  24
HETATM   24  C38   D T 401       1.776  12.078  -1.206  1.00 41.32     0.276 C 
BRANCH  24  25
HETATM   25  N4    D T 401       0.534  12.853  -1.214  1.00 49.47     0.139 N 
BRANCH  25  26
HETATM   26  C39   D T 401      -0.472  12.166  -2.062  1.00 47.52     0.250 C 
HETATM   27  C42   D T 401      -0.109  10.869  -2.671  1.00 42.88     0.037 C 
ENDBRANCH  25  26
BRANCH  25  28
HETATM   28  C40   D T 401       0.746  14.230  -1.654  1.00 47.71     0.250 C 
HETATM   29  C41   D T 401       0.314  14.628  -3.034  1.00 49.11     0.037 C 
ENDBRANCH  25  28
ENDBRANCH  24  25
ENDBRANCH  23  24
ENDBRANCH  21  23
ENDBRANCH   6  20
TORSDOF 7
ENDMDL
MODEL 3
REMARK VINA RESULT:    -7.382      2.558      3.256
REMARK INTER + INTRA:         -11.002
REMARK INTER:                 -10.175
REMARK INTRA:                  -0.827
REMARK UNBOUND:                -0.599
REMARK  7 active torsions:
REMARK  status: ('A' for Active; 'I' for Inactive)
REMARK    1  A    between atoms: C22_10  and  C19_16 
REMARK       I    between atoms: C22_10  and  N25_19 
REMARK    2  A    between atoms: C12_12  and  C18_15 
REMARK    3  A    between atoms: N25_19  and  C37_23 
REMARK    4  A    between atoms: C37_23  and  C38_24 
REMARK    5  A    between atoms: C38_24  and  N4_25 
REMARK    6  A    between atoms: N4_25  and  C39_26 
REMARK    7  A    between atoms: N4_25  and  C40_27 
ROOT
HETATM    1  C4    D T 401       0.570  10.870   5.130  1.00 25.65     0.052 C 
HETATM    2  C13   D T 401       3.351   8.365   5.208  1.00 28.91     0.002 A 
HETATM    3  C3    D T 401       4.631   7.692   4.733  1.00 31.15     0.033 C 
HETATM    4  C14   D T 401       1.580   9.756   5.364  1.00 29.63     0.064 A 
HETATM    5  C18   D T 401       2.578   8.003   6.298  1.00 27.57     0.077 A 
HETATM    6  C19   D T 401       2.711   9.492   4.604  1.00 27.94     0.069 A 
HETATM    7  N23   D T 401       1.528   8.855   6.372  1.00 23.32    -0.250 NA
ENDROOT
BRANCH   5   8
HETATM    8  C12   D T 401       2.859   6.874   7.215  1.00 27.08     0.024 C 
HETATM    9  C20   D T 401       1.905   6.007   7.738  1.00 23.71     0.061 A 
HETATM   10  C17   D T 401       2.179   5.175   8.884  1.00 26.90     0.025 A 
HETATM   11  C21   D T 401       0.595   5.726   7.337  1.00 23.79     0.279 A 
HETATM   12  C7    D T 401       3.326   5.031   9.703  1.00 28.25     0.031 A 
HETATM   13  C16   D T 401       1.040   4.443   9.140  1.00 23.25     0.085 A 
HETATM   14  C15   D T 401       3.293   4.122  10.793  1.00 30.52     0.140 A 
HETATM   15  C5    D T 401       2.138   3.371  11.054  1.00 27.96     0.031 A 
HETATM   16  F29   D T 401       4.362   3.976  11.576  1.00 36.08    -0.204 F 
HETATM   17  C6    D T 401       1.019   3.506  10.248  1.00 30.63     0.021 A 
HETATM   18  N24   D T 401       0.085   4.781   8.189  1.00 22.38    -0.208 NA
HETATM   19  O27   D T 401      -0.025   6.184   6.415  1.00 24.04    -0.265 OA
ENDBRANCH   5   8
BRANCH   6  20
HETATM   20  C22   D T 401       3.196  10.262   3.363  1.00 30.01     0.276 C 
HETATM   21  N25   D T 401       4.090  11.373   3.542  1.00 32.50    -0.232 NA
HETATM   22  O28   D T 401       2.807   9.922   2.233  1.00 32.52    -0.266 OA
BRANCH  21  23
HETATM   23  C37   D T 401       4.584  12.141   2.417  1.00 43.36     0.164 C 
BRANCH  23  24
HETATM   24  C38   D T 401       5.987  12.707   2.503  1.00 41.32     0.276 C 
BRANCH  24  25
HETATM   25  N4    D T 401       7.114  11.807   2.251  1.00 49.47     0.139 N 
BRANCH  25  26
HETATM   26  C39   D T 401       6.797  10.930   1.097  1.00 47.52     0.250 C 
HETATM   27  C42   D T 401       7.468  11.196  -0.193  1.00 42.88     0.037 C 
ENDBRANCH  25  26
BRANCH  25  28
HETATM   28  C40   D T 401       7.466  11.022   3.432  1.00 47.71     0.250 C 
HETATM   29  C41   D T 401       7.573   9.531   3.309  1.00 49.11     0.037 C 
ENDBRANCH  25  28
ENDBRANCH  24  25
ENDBRANCH  23  24
ENDBRANCH  21  23
ENDBRANCH   6  20
TORSDOF 7
ENDMDL
MODEL 4
REMARK VINA RESULT:    -6.973      3.818     10.433
REMARK INTER + INTRA:         -10.426
REMARK INTER:                  -9.311
REMARK INTRA:                  -1.115
REMARK UNBOUND:                -0.599
REMARK  7 active torsions:
REMARK  status: ('A' for Active; 'I' for Inactive)
REMARK    1  A    between atoms: C22_10  and  C19_16 
REMARK       I    between atoms: C22_10  and  N25_19 
REMARK    2  A    between atoms: C12_12  and  C18_15 
REMARK    3  A    between atoms: N25_19  and  C37_23 
REMARK    4  A    between atoms: C37_23  and  C38_24 
REMARK    5  A    between atoms: C38_24  and  N4_25 
REMARK    6  A    between atoms: N4_25  and  C39_26 
REMARK    7  A    between atoms: N4_25  and  C40_27 
ROOT
HETATM    1  C4    D T 401       2.481  10.017   6.591  1.00 25.65     0.052 C 
HETATM    2  C13   D T 401       4.141   9.116   3.358  1.00 28.91     0.002 A 
HETATM    3  C3    D T 401       5.196   8.475   2.468  1.00 31.15     0.033 C 
HETATM    4  C14   D T 401       2.970   9.787   5.168  1.00 29.63     0.064 A 
HETATM    5  C18   D T 401       3.054   9.867   2.948  1.00 27.57     0.077 A 
HETATM    6  C19   D T 401       4.092   9.064   4.786  1.00 27.94     0.069 A 
HETATM    7  N23   D T 401       2.366  10.251   4.050  1.00 23.32    -0.250 NA
ENDROOT
BRANCH   5   8
HETATM    8  C12   D T 401       2.712  10.191   1.543  1.00 27.08     0.024 C 
HETATM    9  C20   D T 401       3.222  11.264   0.819  1.00 23.71     0.061 A 
HETATM   10  C17   D T 401       2.594  11.733  -0.391  1.00 26.90     0.025 A 
HETATM   11  C21   D T 401       4.347  12.068   1.029  1.00 23.79     0.279 A 
HETATM   12  C7    D T 401       1.435  11.310  -1.088  1.00 28.25     0.031 A 
HETATM   13  C16   D T 401       3.342  12.793  -0.856  1.00 23.25     0.085 A 
HETATM   14  C15   D T 401       1.048  11.989  -2.272  1.00 30.52     0.140 A 
HETATM   15  C5    D T 401       1.808  13.065  -2.753  1.00 27.96     0.031 A 
HETATM   16  F29   D T 401      -0.042  11.607  -2.938  1.00 36.08    -0.204 F 
HETATM   17  C6    D T 401       2.947  13.474  -2.076  1.00 30.63     0.021 A 
HETATM   18  N24   D T 401       4.409  12.984   0.012  1.00 22.38    -0.208 NA
HETATM   19  O27   D T 401       5.160  12.009   1.912  1.00 24.04    -0.265 OA
ENDBRANCH   5   8
BRANCH   6  20
HETATM   20  C22   D T 401       5.084   8.335   5.709  1.00 30.01     0.276 C 
HETATM   21  N25   D T 401       4.770   7.004   6.152  1.00 32.50    -0.232 NA
HETATM   22  O28   D T 401       6.132   8.902   6.062  1.00 32.52    -0.266 OA
BRANCH  21  23
HETATM   23  C37   D T 401       5.659   6.262   7.022  1.00 43.36     0.164 C 
BRANCH  23  24
HETATM   24  C38   D T 401       5.188   5.958   8.430  1.00 41.32     0.276 C 
BRANCH  24  25
HETATM   25  N4    D T 401       4.012   5.102   8.598  1.00 49.47     0.139 N 
BRANCH  25  26
HETATM   26  C39   D T 401       2.875   5.917   9.094  1.00 47.52     0.250 C 
HETATM   27  C42   D T 401       1.771   6.225   8.161  1.00 42.88     0.037 C 
ENDBRANCH  25  26
BRANCH  25  28
HETATM   28  C40   D T 401       4.276   3.970   9.482  1.00 47.71     0.250 C 
HETATM   29  C41   D T 401       3.908   4.075  10.931  1.00 49.11     0.037 C 
ENDBRANCH  25  28
ENDBRANCH  24  25
ENDBRANCH  23  24
ENDBRANCH  21  23
ENDBRANCH   6  20
TORSDOF 7
ENDMDL
MODEL 5
REMARK VINA RESULT:    -6.777      5.496     11.403
REMARK INTER + INTRA:         -10.148
REMARK INTER:                  -9.287
REMARK INTRA:                  -0.861
REMARK UNBOUND:                -0.599
REMARK  7 active torsions:
REMARK  status: ('A' for Active; 'I' for Inactive)
REMARK    1  A    between atoms: C22_10  and  C19_16 
REMARK       I    between atoms: C22_10  and  N25_19 
REMARK    2  A    between atoms: C12_12  and  C18_15 
REMARK    3  A    between atoms: N25_19  and  C37_23 
REMARK    4  A    between atoms: C37_23  and  C38_24 
REMARK    5  A    between atoms: C38_24  and  N4_25 
REMARK    6  A    between atoms: N4_25  and  C39_26 
REMARK    7  A    between atoms: N4_25  and  C40_27 
ROOT
HETATM    1  C4    D T 401       8.795   4.887   8.192  1.00 25.65     0.052 C 
HETATM    2  C13   D T 401       5.607   4.455  10.108  1.00 28.91     0.002 A 
HETATM    3  C3    D T 401       4.747   4.175  11.332  1.00 31.15     0.033 C 
HETATM    4  C14   D T 401       7.384   4.756   8.749  1.00 29.63     0.064 A 
HETATM    5  C18   D T 401       5.162   4.742   8.829  1.00 27.57     0.077 A 
HETATM    6  C19   D T 401       7.036   4.462  10.059  1.00 27.94     0.069 A 
HETATM    7  N23   D T 401       6.245   4.924   8.037  1.00 23.32    -0.250 NA
ENDROOT
BRANCH   5   8
HETATM    8  C12   D T 401       3.743   4.829   8.410  1.00 27.08     0.024 C 
HETATM    9  C20   D T 401       3.178   5.888   7.707  1.00 23.71     0.061 A 
HETATM   10  C17   D T 401       1.750   6.085   7.647  1.00 26.90     0.025 A 
HETATM   11  C21   D T 401       3.760   6.909   6.949  1.00 23.79     0.279 A 
HETATM   12  C7    D T 401       0.666   5.372   8.216  1.00 28.25     0.031 A 
HETATM   13  C16   D T 401       1.524   7.206   6.879  1.00 23.25     0.085 A 
HETATM   14  C15   D T 401      -0.660   5.823   7.988  1.00 30.52     0.140 A 
HETATM   15  C5    D T 401      -0.897   6.960   7.203  1.00 27.96     0.031 A 
HETATM   16  F29   D T 401      -1.691   5.166   8.519  1.00 36.08    -0.204 F 
HETATM   17  C6    D T 401       0.163   7.653   6.639  1.00 30.63     0.021 A 
HETATM   18  N24   D T 401       2.752   7.695   6.454  1.00 22.38    -0.208 NA
HETATM   19  O27   D T 401       4.923   7.108   6.722  1.00 24.04    -0.265 OA
ENDBRANCH   5   8
BRANCH   6  20
HETATM   20  C22   D T 401       7.991   4.205  11.238  1.00 30.01     0.276 C 
HETATM   21  N25   D T 401       8.337   2.850  11.569  1.00 32.50    -0.232 NA
HETATM   22  O28   D T 401       8.443   5.163  11.888  1.00 32.52    -0.266 OA
BRANCH  21  23
HETATM   23  C37   D T 401       9.229   2.538  12.666  1.00 43.36     0.164 C 
BRANCH  23  24
HETATM   24  C38   D T 401       8.621   2.301  14.033  1.00 41.32     0.276 C 
BRANCH  24  25
HETATM   25  N4    D T 401       8.899   3.271  15.093  1.00 49.47     0.139 N 
BRANCH  25  26
HETATM   26  C39   D T 401       7.756   4.210  15.215  1.00 47.52     0.250 C 
HETATM   27  C42   D T 401       6.439   3.786  14.694  1.00 42.88     0.037 C 
ENDBRANCH  25  26
BRANCH  25  28
HETATM   28  C40   D T 401      10.151   3.989  14.870  1.00 47.71     0.250 C 
HETATM   29  C41   D T 401      11.381   3.554  15.609  1.00 49.11     0.037 C 
ENDBRANCH  25  28
ENDBRANCH  24  25
ENDBRANCH  23  24
ENDBRANCH  21  23
ENDBRANCH   6  20
TORSDOF 7
ENDMDL
MODEL 6
REMARK VINA RESULT:    -6.763      3.097      4.053
REMARK INTER + INTRA:         -10.129
REMARK INTER:                  -9.165
REMARK INTRA:                  -0.963
REMARK UNBOUND:                -0.599
REMARK  7 active torsions:
REMARK  status: ('A' for Active; 'I' for Inactive)
REMARK    1  A    between atoms: C22_10  and  C19_16 
REMARK       I    between atoms: C22_10  and  N25_19 
REMARK    2  A    between atoms: C12_12  and  C18_15 
REMARK    3  A    between atoms: N25_19  and  C37_23 
REMARK    4  A    between atoms: C37_23  and  C38_24 
REMARK    5  A    between atoms: C38_24  and  N4_25 
REMARK    6  A    between atoms: N4_25  and  C39_26 
REMARK    7  A    between atoms: N4_25  and  C40_27 
ROOT
HETATM    1  C4    D T 401       6.197   8.641   3.188  1.00 25.65     0.052 C 
HETATM    2  C13   D T 401       2.862   9.541   4.633  1.00 28.91     0.002 A 
HETATM    3  C3    D T 401       1.625  10.402   4.845  1.00 31.15     0.033 C 
HETATM    4  C14   D T 401       4.862   8.789   3.905  1.00 29.63     0.064 A 
HETATM    5  C18   D T 401       3.138   8.323   5.229  1.00 27.57     0.077 A 
HETATM    6  C19   D T 401       3.970   9.845   3.781  1.00 27.94     0.069 A 
HETATM    7  N23   D T 401       4.338   7.892   4.772  1.00 23.32    -0.250 NA
ENDROOT
BRANCH   5   8
HETATM    8  C12   D T 401       2.265   7.623   6.201  1.00 27.08     0.024 C 
HETATM    9  C20   D T 401       2.701   6.986   7.358  1.00 23.71     0.061 A 
HETATM   10  C17   D T 401       1.877   6.032   8.058  1.00 26.90     0.025 A 
HETATM   11  C21   D T 401       3.895   7.095   8.077  1.00 23.79     0.279 A 
HETATM   12  C7    D T 401       0.579   5.525   7.800  1.00 28.25     0.031 A 
HETATM   13  C16   D T 401       2.594   5.595   9.150  1.00 23.25     0.085 A 
HETATM   14  C15   D T 401       0.021   4.562   8.680  1.00 30.52     0.140 A 
HETATM   15  C5    D T 401       0.744   4.117   9.796  1.00 27.96     0.031 A 
HETATM   16  F29   D T 401      -1.198   4.072   8.451  1.00 36.08    -0.204 F 
HETATM   17  C6    D T 401       2.011   4.618  10.052  1.00 30.63     0.021 A 
HETATM   18  N24   D T 401       3.818   6.252   9.156  1.00 22.38    -0.208 NA
HETATM   19  O27   D T 401       4.849   7.791   7.853  1.00 24.04    -0.265 OA
ENDBRANCH   5   8
BRANCH   6  20
HETATM   20  C22   D T 401       4.126  11.093   2.896  1.00 30.01     0.276 C 
HETATM   21  N25   D T 401       5.085  12.096   3.273  1.00 32.50    -0.232 NA
HETATM   22  O28   D T 401       3.424  11.222   1.878  1.00 32.52    -0.266 OA
BRANCH  21  23
HETATM   23  C37   D T 401       5.282  13.295   2.485  1.00 43.36     0.164 C 
BRANCH  23  24
HETATM   24  C38   D T 401       6.408  13.305   1.472  1.00 41.32     0.276 C 
BRANCH  24  25
HETATM   25  N4    D T 401       6.207  12.599   0.205  1.00 49.47     0.139 N 
BRANCH  25  26
HETATM   26  C39   D T 401       6.941  11.309   0.236  1.00 47.52     0.250 C 
HETATM   27  C42   D T 401       8.038  11.149   1.214  1.00 42.88     0.037 C 
ENDBRANCH  25  26
BRANCH  25  28
HETATM   28  C40   D T 401       6.607  13.407  -0.945  1.00 47.71     0.250 C 
HETATM   29  C41   D T 401       7.499  12.801  -1.986  1.00 49.11     0.037 C 
ENDBRANCH  25  28
ENDBRANCH  24  25
ENDBRANCH  23  24
ENDBRANCH  21  23
ENDBRANCH   6  20
TORSDOF 7
ENDMDL
MODEL 7
REMARK VINA RESULT:    -6.674      2.376      3.340
REMARK INTER + INTRA:         -10.004
REMARK INTER:                  -9.201
REMARK INTRA:                  -0.803
REMARK UNBOUND:                -0.599
REMARK  7 active torsions:
REMARK  status: ('A' for Active; 'I' for Inactive)
REMARK    1  A    between atoms: C22_10  and  C19_16 
REMARK       I    between atoms: C22_10  and  N25_19 
REMARK    2  A    between atoms: C12_12  and  C18_15 
REMARK    3  A    between atoms: N25_19  and  C37_23 
REMARK    4  A    between atoms: C37_23  and  C38_24 
REMARK    5  A    between atoms: C38_24  and  N4_25 
REMARK    6  A    between atoms: N4_25  and  C39_26 
REMARK    7  A    between atoms: N4_25  and  C40_27 
ROOT
HETATM    1  C4    D T 401       8.055  10.501   3.150  1.00 25.65     0.052 C 
HETATM    2  C13   D T 401       4.830   8.613   3.385  1.00 28.91     0.002 A 
HETATM    3  C3    D T 401       3.428   8.197   2.965  1.00 31.15     0.033 C 
HETATM    4  C14   D T 401       6.844   9.631   3.456  1.00 29.63     0.064 A 
HETATM    5  C18   D T 401       5.540   8.150   4.481  1.00 27.57     0.077 A 
HETATM    6  C19   D T 401       5.666   9.566   2.725  1.00 27.94     0.069 A 
HETATM    7  N23   D T 401       6.743   8.771   4.496  1.00 23.32    -0.250 NA
ENDROOT
BRANCH   5   8
HETATM    8  C12   D T 401       5.054   7.151   5.461  1.00 27.08     0.024 C 
HETATM    9  C20   D T 401       4.254   7.431   6.564  1.00 23.71     0.061 A 
HETATM   10  C17   D T 401       4.117   6.504   7.660  1.00 26.90     0.025 A 
HETATM   11  C21   D T 401       3.451   8.536   6.865  1.00 23.79     0.279 A 
HETATM   12  C7    D T 401       4.689   5.231   7.907  1.00 28.25     0.031 A 
HETATM   13  C16   D T 401       3.262   7.077   8.576  1.00 23.25     0.085 A 
HETATM   14  C15   D T 401       4.371   4.548   9.109  1.00 30.52     0.140 A 
HETATM   15  C5    D T 401       3.497   5.123  10.042  1.00 27.96     0.031 A 
HETATM   16  F29   D T 401       4.902   3.351   9.359  1.00 36.08    -0.204 F 
HETATM   17  C6    D T 401       2.932   6.365   9.798  1.00 30.63     0.021 A 
HETATM   18  N24   D T 401       2.858   8.309   8.080  1.00 22.38    -0.208 NA
HETATM   19  O27   D T 401       3.261   9.528   6.214  1.00 24.04    -0.265 OA
ENDBRANCH   5   8
BRANCH   6  20
HETATM   20  C22   D T 401       5.323  10.352   1.447  1.00 30.01     0.276 C 
HETATM   21  N25   D T 401       4.175  11.217   1.452  1.00 32.50    -0.232 NA
HETATM   22  O28   D T 401       6.031  10.225   0.434  1.00 32.52    -0.266 OA
BRANCH  21  23
HETATM   23  C37   D T 401       3.795  11.983   0.283  1.00 43.36     0.164 C 
BRANCH  23  24
HETATM   24  C38   D T 401       3.038  11.272  -0.820  1.00 41.32     0.276 C 
BRANCH  24  25
HETATM   25  N4    D T 401       2.158  12.065  -1.680  1.00 49.47     0.139 N 
BRANCH  25  26
HETATM   26  C39   D T 401       2.551  13.494  -1.605  1.00 47.52     0.250 C 
HETATM   27  C42   D T 401       2.041  14.419  -2.640  1.00 42.88     0.037 C 
ENDBRANCH  25  26
BRANCH  25  28
HETATM   28  C40   D T 401       0.748  11.886  -1.341  1.00 47.71     0.250 C 
HETATM   29  C41   D T 401      -0.198  11.395  -2.395  1.00 49.11     0.037 C 
ENDBRANCH  25  28
ENDBRANCH  24  25
ENDBRANCH  23  24
ENDBRANCH  21  23
ENDBRANCH   6  20
TORSDOF 7
ENDMDL
MODEL 8
REMARK VINA RESULT:    -6.614      6.084      8.024
REMARK INTER + INTRA:          -9.919
REMARK INTER:                  -8.813
REMARK INTRA:                  -1.106
REMARK UNBOUND:                -0.599
REMARK  7 active torsions:
REMARK  status: ('A' for Active; 'I' for Inactive)
REMARK    1  A    between atoms: C22_10  and  C19_16 
REMARK       I    between atoms: C22_10  and  N25_19 
REMARK    2  A    between atoms: C12_12  and  C18_15 
REMARK    3  A    between atoms: N25_19  and  C37_23 
REMARK    4  A    between atoms: C37_23  and  C38_24 
REMARK    5  A    between atoms: C38_24  and  N4_25 
REMARK    6  A    between atoms: N4_25  and  C39_26 
REMARK    7  A    between atoms: N4_25  and  C40_27 
ROOT
HETATM    1  C4    D T 401       8.342   4.622   7.811  1.00 25.65     0.052 C 
HETATM    2  C13   D T 401       5.998   7.516   7.424  1.00 28.91     0.002 A 
HETATM    3  C3    D T 401       5.606   8.981   7.295  1.00 31.15     0.033 C 
HETATM    4  C14   D T 401       7.205   5.623   7.656  1.00 29.63     0.064 A 
HETATM    5  C18   D T 401       5.145   6.426   7.432  1.00 27.57     0.077 A 
HETATM    6  C19   D T 401       7.325   7.003   7.569  1.00 27.94     0.069 A 
HETATM    7  N23   D T 401       5.893   5.306   7.566  1.00 23.32    -0.250 NA
ENDROOT
BRANCH   5   8
HETATM    8  C12   D T 401       3.669   6.488   7.317  1.00 27.08     0.024 C 
HETATM    9  C20   D T 401       2.770   5.850   8.165  1.00 23.71     0.061 A 
HETATM   10  C17   D T 401       1.389   5.650   7.800  1.00 26.90     0.025 A 
HETATM   11  C21   D T 401       2.931   5.315   9.447  1.00 23.79     0.279 A 
HETATM   12  C7    D T 401       0.656   5.979   6.633  1.00 28.25     0.031 A 
HETATM   13  C16   D T 401       0.778   4.999   8.849  1.00 23.25     0.085 A 
HETATM   14  C15   D T 401      -0.718   5.635   6.554  1.00 30.52     0.140 A 
HETATM   15  C5    D T 401      -1.347   4.977   7.622  1.00 27.96     0.031 A 
HETATM   16  F29   D T 401      -1.422   5.934   5.463  1.00 36.08    -0.204 F 
HETATM   17  C6    D T 401      -0.631   4.662   8.766  1.00 30.63     0.021 A 
HETATM   18  N24   D T 401       1.723   4.806   9.849  1.00 22.38    -0.208 NA
HETATM   19  O27   D T 401       3.918   5.286  10.132  1.00 24.04    -0.265 OA
ENDBRANCH   5   8
BRANCH   6  20
HETATM   20  C22   D T 401       8.624   7.827   7.607  1.00 30.01     0.276 C 
HETATM   21  N25   D T 401       9.270   8.046   8.872  1.00 32.50    -0.232 NA
HETATM   22  O28   D T 401       9.091   8.294   6.554  1.00 32.52    -0.266 OA
BRANCH  21  23
HETATM   23  C37   D T 401      10.494   8.812   8.979  1.00 43.36     0.164 C 
BRANCH  23  24
HETATM   24  C38   D T 401      10.411  10.208   9.561  1.00 41.32     0.276 C 
BRANCH  24  25
HETATM   25  N4    D T 401       9.237  11.024   9.242  1.00 49.47     0.139 N 
BRANCH  25  26
HETATM   26  C39   D T 401       9.481  11.768   7.981  1.00 47.52     0.250 C 
HETATM   27  C42   D T 401       8.349  11.961   7.050  1.00 42.88     0.037 C 
ENDBRANCH  25  26
BRANCH  25  28
HETATM   28  C40   D T 401       8.885  11.931  10.332  1.00 47.71     0.250 C 
HETATM   29  C41   D T 401       8.240  11.372  11.565  1.00 49.11     0.037 C 
ENDBRANCH  25  28
ENDBRANCH  24  25
ENDBRANCH  23  24
ENDBRANCH  21  23
ENDBRANCH   6  20
TORSDOF 7
ENDMDL
MODEL 9
REMARK VINA RESULT:    -6.439      3.795      4.704
REMARK INTER + INTRA:          -9.673
REMARK INTER:                  -8.383
REMARK INTRA:                  -1.290
REMARK UNBOUND:                -0.599
REMARK  7 active torsions:
REMARK  status: ('A' for Active; 'I' for Inactive)
REMARK    1  A    between atoms: C22_10  and  C19_16 
REMARK       I    between atoms: C22_10  and  N25_19 
REMARK    2  A    between atoms: C12_12  and  C18_15 
REMARK    3  A    between atoms: N25_19  and  C37_23 
REMARK    4  A    between atoms: C37_23  and  C38_24 
REMARK    5  A    between atoms: C38_24  and  N4_25 
REMARK    6  A    between atoms: N4_25  and  C39_26 
REMARK    7  A    between atoms: N4_25  and  C40_27 
ROOT
HETATM    1  C4    D T 401       5.489   8.709   2.416  1.00 25.65     0.052 C 
HETATM    2  C13   D T 401       6.159   8.987   6.089  1.00 28.91     0.002 A 
HETATM    3  C3    D T 401       6.861   9.494   7.341  1.00 31.15     0.033 C 
HETATM    4  C14   D T 401       5.576   8.650   3.935  1.00 29.63     0.064 A 
HETATM    5  C18   D T 401       5.119   8.075   6.033  1.00 27.57     0.077 A 
HETATM    6  C19   D T 401       6.456   9.358   4.741  1.00 27.94     0.069 A 
HETATM    7  N23   D T 401       4.785   7.896   4.733  1.00 23.32    -0.250 NA
ENDROOT
BRANCH   5   8
HETATM    8  C12   D T 401       4.489   7.414   7.200  1.00 27.08     0.024 C 
HETATM    9  C20   D T 401       4.930   6.233   7.788  1.00 23.71     0.061 A 
HETATM   10  C17   D T 401       4.088   5.460   8.667  1.00 26.90     0.025 A 
HETATM   11  C21   D T 401       6.156   5.566   7.712  1.00 23.79     0.279 A 
HETATM   12  C7    D T 401       2.755   5.642   9.112  1.00 28.25     0.031 A 
HETATM   13  C16   D T 401       4.818   4.365   9.075  1.00 23.25     0.085 A 
HETATM   14  C15   D T 401       2.175   4.685   9.984  1.00 30.52     0.140 A 
HETATM   15  C5    D T 401       2.915   3.571  10.407  1.00 27.96     0.031 A 
HETATM   16  F29   D T 401       0.922   4.839  10.410  1.00 36.08    -0.204 F 
HETATM   17  C6    D T 401       4.222   3.397   9.978  1.00 30.63     0.021 A 
HETATM   18  N24   D T 401       6.076   4.442   8.493  1.00 22.38    -0.208 NA
HETATM   19  O27   D T 401       7.145   5.875   7.103  1.00 24.04    -0.265 OA
ENDBRANCH   5   8
BRANCH   6  20
HETATM   20  C22   D T 401       7.534  10.357   4.285  1.00 30.01     0.276 C 
HETATM   21  N25   D T 401       7.211  11.757   4.247  1.00 32.50    -0.232 NA
HETATM   22  O28   D T 401       8.658   9.944   3.951  1.00 32.52    -0.266 OA
BRANCH  21  23
HETATM   23  C37   D T 401       8.178  12.750   3.826  1.00 43.36     0.164 C 
BRANCH  23  24
HETATM   24  C38   D T 401       8.077  13.289   2.414  1.00 41.32     0.276 C 
BRANCH  24  25
HETATM   25  N4    D T 401       7.132  12.652   1.495  1.00 49.47     0.139 N 
BRANCH  25  26
HETATM   26  C39   D T 401       7.878  12.027   0.375  1.00 47.52     0.250 C 
HETATM   27  C42   D T 401       7.852  10.554   0.249  1.00 42.88     0.037 C 
ENDBRANCH  25  26
BRANCH  25  28
HETATM   28  C40   D T 401       6.126  13.590   1.002  1.00 47.71     0.250 C 
HETATM   29  C41   D T 401       4.999  13.073   0.159  1.00 49.11     0.037 C 
ENDBRANCH  25  28
ENDBRANCH  24  25
ENDBRANCH  23  24
ENDBRANCH  21  23
ENDBRANCH   6  20
TORSDOF 7
ENDMDL
