MODEL 1
REMARK VINA RESULT:    -7.706      0.000      0.000
REMARK INTER + INTRA:         -12.068
REMARK INTER:                 -10.860
REMARK INTRA:                  -1.208
REMARK UNBOUND:                -1.208
REMARK  7 active torsions:
REMARK  status: ('A' for Active; 'I' for Inactive)
REMARK    1  A    between atoms: C22_10  and  C19_16 
REMARK       I    between atoms: C22_10  and  N25_19 
REMARK    2  A    between atoms: C12_12  and  C18_15 
REMARK    3  A    between atoms: N25_19  and  C37_23 
REMARK    4  A    between atoms: C37_23  and  C38_24 
REMARK    5  A    between atoms: C38_24  and  N4_25 
REMARK    6  A    between atoms: N4_25  and  C39_26 
REMARK    7  A    between atoms: N4_25  and  C40_27 
ROOT
HETATM    1  C4    D T 401     -15.194   6.724  -0.659  1.00 25.65     0.052 C 
HETATM    2  C13   D T 401     -14.000   3.547  -2.239  1.00 28.91     0.002 A 
HETATM    3  C3    D T 401     -13.957   2.047  -2.484  1.00 31.15     0.033 C 
HETATM    4  C14   D T 401     -14.546   5.581  -1.429  1.00 29.63     0.064 A 
HETATM    5  C18   D T 401     -13.214   4.511  -2.849  1.00 27.57     0.077 A 
HETATM    6  C19   D T 401     -14.856   4.234  -1.323  1.00 27.94     0.069 A 
HETATM    7  N23   D T 401     -13.565   5.720  -2.350  1.00 23.32    -0.250 NA
ENDROOT
BRANCH   5   8
HETATM    8  C12   D T 401     -12.170   4.251  -3.869  1.00 27.08     0.024 C 
HETATM    9  C20   D T 401     -12.388   3.651  -5.105  1.00 23.71     0.061 A 
HETATM   10  C17   D T 401     -11.307   3.105  -5.886  1.00 26.90     0.025 A 
HETATM   11  C21   D T 401     -13.559   3.454  -5.843  1.00 23.79     0.279 A 
HETATM   12  C7    D T 401      -9.911   3.017  -5.650  1.00 28.25     0.031 A 
HETATM   13  C16   D T 401     -11.853   2.594  -7.043  1.00 23.25     0.085 A 
HETATM   14  C15   D T 401      -9.080   2.397  -6.619  1.00 30.52     0.140 A 
HETATM   15  C5    D T 401      -9.630   1.880  -7.800  1.00 27.96     0.031 A 
HETATM   16  F29   D T 401      -7.766   2.303  -6.413  1.00 36.08    -0.204 F 
HETATM   17  C6    D T 401     -10.994   1.973  -8.034  1.00 30.63     0.021 A 
HETATM   18  N24   D T 401     -13.223   2.817  -7.010  1.00 22.38    -0.208 NA
HETATM   19  O27   D T 401     -14.684   3.774  -5.568  1.00 24.04    -0.265 OA
ENDBRANCH   5   8
BRANCH   6  20
HETATM   20  C22   D T 401     -15.920   3.593  -0.414  1.00 30.01     0.276 C 
HETATM   21  N25   D T 401     -17.022   2.897  -1.019  1.00 32.50    -0.232 NA
HETATM   22  O28   D T 401     -15.818   3.693   0.821  1.00 32.52    -0.266 OA
BRANCH  21  23
HETATM   23  C37   D T 401     -18.059   2.274  -0.222  1.00 43.36     0.164 C 
BRANCH  23  24
HETATM   24  C38   D T 401     -19.460   2.845  -0.303  1.00 41.32     0.276 C 
BRANCH  24  25
HETATM   25  N4    D T 401     -19.890   3.774   0.744  1.00 49.47     0.139 N 
BRANCH  25  26
HETATM   26  C39   D T 401     -19.669   5.169   0.287  1.00 47.52     0.250 C 
HETATM   27  C42   D T 401     -18.563   5.940   0.893  1.00 42.88     0.037 C 
ENDBRANCH  25  26
BRANCH  25  28
HETATM   28  C40   D T 401     -19.220   3.521   2.016  1.00 47.71     0.250 C 
HETATM   29  C41   D T 401     -20.008   2.933   3.150  1.00 49.11     0.037 C 
ENDBRANCH  25  28
ENDBRANCH  24  25
ENDBRANCH  23  24
ENDBRANCH  21  23
ENDBRANCH   6  20
TORSDOF 7
ENDMDL
MODEL 2
REMARK VINA RESULT:    -7.682      1.021      1.818
REMARK INTER + INTRA:         -12.034
REMARK INTER:                 -11.148
REMARK INTRA:                  -0.886
REMARK UNBOUND:                -1.208
REMARK  7 active torsions:
REMARK  status: ('A' for Active; 'I' for Inactive)
REMARK    1  A    between atoms: C22_10  and  C19_16 
REMARK       I    between atoms: C22_10  and  N25_19 
REMARK    2  A    between atoms: C12_12  and  C18_15 
REMARK    3  A    between atoms: N25_19  and  C37_23 
REMARK    4  A    between atoms: C37_23  and  C38_24 
REMARK    5  A    between atoms: C38_24  and  N4_25 
REMARK    6  A    between atoms: N4_25  and  C39_26 
REMARK    7  A    between atoms: N4_25  and  C40_27 
ROOT
HETATM    1  C4    D T 401     -13.968   7.845  -0.192  1.00 25.65     0.052 C 
HETATM    2  C13   D T 401     -13.679   4.493  -1.834  1.00 28.91     0.002 A 
HETATM    3  C3    D T 401     -13.997   3.023  -2.059  1.00 31.15     0.033 C 
HETATM    4  C14   D T 401     -13.673   6.592  -1.005  1.00 29.63     0.064 A 
HETATM    5  C18   D T 401     -12.765   5.261  -2.536  1.00 27.57     0.077 A 
HETATM    6  C19   D T 401     -14.263   5.346  -0.848  1.00 27.94     0.069 A 
HETATM    7  N23   D T 401     -12.785   6.514  -2.023  1.00 23.32    -0.250 NA
ENDROOT
BRANCH   5   8
HETATM    8  C12   D T 401     -11.915   4.782  -3.651  1.00 27.08     0.024 C 
HETATM    9  C20   D T 401     -12.383   4.189  -4.819  1.00 23.71     0.061 A 
HETATM   10  C17   D T 401     -11.518   3.430  -5.686  1.00 26.90     0.025 A 
HETATM   11  C21   D T 401     -13.652   4.180  -5.407  1.00 23.79     0.279 A 
HETATM   12  C7    D T 401     -10.141   3.101  -5.606  1.00 28.25     0.031 A 
HETATM   13  C16   D T 401     -12.282   2.986  -6.744  1.00 23.25     0.085 A 
HETATM   14  C15   D T 401      -9.555   2.308  -6.627  1.00 30.52     0.140 A 
HETATM   15  C5    D T 401     -10.327   1.858  -7.707  1.00 27.96     0.031 A 
HETATM   16  F29   D T 401      -8.262   1.986  -6.567  1.00 36.08    -0.204 F 
HETATM   17  C6    D T 401     -11.671   2.186  -7.789  1.00 30.63     0.021 A 
HETATM   18  N24   D T 401     -13.577   3.452  -6.567  1.00 22.38    -0.208 NA
HETATM   19  O27   D T 401     -14.662   4.707  -5.023  1.00 24.04    -0.265 OA
ENDBRANCH   5   8
BRANCH   6  20
HETATM   20  C22   D T 401     -15.345   4.953   0.175  1.00 30.01     0.276 C 
HETATM   21  N25   D T 401     -16.590   5.670   0.179  1.00 32.50    -0.232 NA
HETATM   22  O28   D T 401     -15.126   4.034   0.982  1.00 32.52    -0.266 OA
BRANCH  21  23
HETATM   23  C37   D T 401     -17.649   5.352   1.115  1.00 43.36     0.164 C 
BRANCH  23  24
HETATM   24  C38   D T 401     -19.052   5.181   0.571  1.00 41.32     0.276 C 
BRANCH  24  25
HETATM   25  N4    D T 401     -19.594   3.824   0.466  1.00 49.47     0.139 N 
BRANCH  25  26
HETATM   26  C39   D T 401     -19.263   3.066   1.699  1.00 47.52     0.250 C 
HETATM   27  C42   D T 401     -20.279   2.988   2.770  1.00 42.88     0.037 C 
ENDBRANCH  25  26
BRANCH  25  28
HETATM   28  C40   D T 401     -19.117   3.131  -0.726  1.00 47.71     0.250 C 
HETATM   29  C41   D T 401     -17.931   2.220  -0.614  1.00 49.11     0.037 C 
ENDBRANCH  25  28
ENDBRANCH  24  25
ENDBRANCH  23  24
ENDBRANCH  21  23
ENDBRANCH   6  20
TORSDOF 7
ENDMDL
MODEL 3
REMARK VINA RESULT:    -7.556      2.288      3.041
REMARK INTER + INTRA:         -11.857
REMARK INTER:                 -11.160
REMARK INTRA:                  -0.697
REMARK UNBOUND:                -1.208
REMARK  7 active torsions:
REMARK  status: ('A' for Active; 'I' for Inactive)
REMARK    1  A    between atoms: C22_10  and  C19_16 
REMARK       I    between atoms: C22_10  and  N25_19 
REMARK    2  A    between atoms: C12_12  and  C18_15 
REMARK    3  A    between atoms: N25_19  and  C37_23 
REMARK    4  A    between atoms: C37_23  and  C38_24 
REMARK    5  A    between atoms: C38_24  and  N4_25 
REMARK    6  A    between atoms: N4_25  and  C39_26 
REMARK    7  A    between atoms: N4_25  and  C40_27 
ROOT
HETATM    1  C4    D T 401     -12.466   7.933  -2.709  1.00 25.65     0.052 C 
HETATM    2  C13   D T 401     -13.544   4.347  -2.693  1.00 28.91     0.002 A 
HETATM    3  C3    D T 401     -14.259   3.113  -2.165  1.00 31.15     0.033 C 
HETATM    4  C14   D T 401     -12.764   6.454  -2.914  1.00 29.63     0.064 A 
HETATM    5  C18   D T 401     -12.759   4.430  -3.830  1.00 27.57     0.077 A 
HETATM    6  C19   D T 401     -13.548   5.648  -2.100  1.00 27.94     0.069 A 
HETATM    7  N23   D T 401     -12.309   5.702  -3.942  1.00 23.32    -0.250 NA
ENDROOT
BRANCH   5   8
HETATM    8  C12   D T 401     -12.466   3.310  -4.756  1.00 27.08     0.024 C 
HETATM    9  C20   D T 401     -11.269   3.127  -5.441  1.00 23.71     0.061 A 
HETATM   10  C17   D T 401     -11.170   2.248  -6.578  1.00 26.90     0.025 A 
HETATM   11  C21   D T 401      -9.994   3.662  -5.233  1.00 23.79     0.279 A 
HETATM   12  C7    D T 401     -12.128   1.441  -7.245  1.00 28.25     0.031 A 
HETATM   13  C16   D T 401      -9.865   2.289  -7.018  1.00 23.25     0.085 A 
HETATM   14  C15   D T 401     -11.729   0.677  -8.372  1.00 30.52     0.140 A 
HETATM   15  C5    D T 401     -10.402   0.712  -8.820  1.00 27.96     0.031 A 
HETATM   16  F29   D T 401     -12.617  -0.085  -9.012  1.00 36.08    -0.204 F 
HETATM   17  C6    D T 401      -9.464   1.494  -8.164  1.00 30.63     0.021 A 
HETATM   18  N24   D T 401      -9.157   3.149  -6.189  1.00 22.38    -0.208 NA
HETATM   19  O27   D T 401      -9.630   4.426  -4.379  1.00 24.04    -0.265 OA
ENDBRANCH   5   8
BRANCH   6  20
HETATM   20  C22   D T 401     -14.291   6.065  -0.818  1.00 30.01     0.276 C 
HETATM   21  N25   D T 401     -15.691   6.375  -0.898  1.00 32.50    -0.232 NA
HETATM   22  O28   D T 401     -13.673   6.136   0.258  1.00 32.52    -0.266 OA
BRANCH  21  23
HETATM   23  C37   D T 401     -16.450   6.776   0.270  1.00 43.36     0.164 C 
BRANCH  23  24
HETATM   24  C38   D T 401     -17.566   5.865   0.741  1.00 41.32     0.276 C 
BRANCH  24  25
HETATM   25  N4    D T 401     -17.211   4.531   1.231  1.00 49.47     0.139 N 
BRANCH  25  26
HETATM   26  C39   D T 401     -18.082   3.520   0.581  1.00 47.52     0.250 C 
HETATM   27  C42   D T 401     -17.490   2.636  -0.444  1.00 42.88     0.037 C 
ENDBRANCH  25  26
BRANCH  25  28
HETATM   28  C40   D T 401     -17.286   4.440   2.686  1.00 47.71     0.250 C 
HETATM   29  C41   D T 401     -18.423   3.686   3.310  1.00 49.11     0.037 C 
ENDBRANCH  25  28
ENDBRANCH  24  25
ENDBRANCH  23  24
ENDBRANCH  21  23
ENDBRANCH   6  20
TORSDOF 7
ENDMDL
MODEL 4
REMARK VINA RESULT:    -7.555      1.403      2.231
REMARK INTER + INTRA:         -11.855
REMARK INTER:                 -10.893
REMARK INTRA:                  -0.962
REMARK UNBOUND:                -1.208
REMARK  7 active torsions:
REMARK  status: ('A' for Active; 'I' for Inactive)
REMARK    1  A    between atoms: C22_10  and  C19_16 
REMARK       I    between atoms: C22_10  and  N25_19 
REMARK    2  A    between atoms: C12_12  and  C18_15 
REMARK    3  A    between atoms: N25_19  and  C37_23 
REMARK    4  A    between atoms: C37_23  and  C38_24 
REMARK    5  A    between atoms: C38_24  and  N4_25 
REMARK    6  A    between atoms: N4_25  and  C39_26 
REMARK    7  A    between atoms: N4_25  and  C40_27 
ROOT
HETATM    1  C4    D T 401     -15.896   2.594  -0.878  1.00 25.65     0.052 C 
HETATM    2  C13   D T 401     -13.769   5.149  -2.600  1.00 28.91     0.002 A 
HETATM    3  C3    D T 401     -13.276   6.547  -2.939  1.00 31.15     0.033 C 
HETATM    4  C14   D T 401     -14.925   3.434  -1.697  1.00 29.63     0.064 A 
HETATM    5  C18   D T 401     -13.303   3.955  -3.123  1.00 27.57     0.077 A 
HETATM    6  C19   D T 401     -14.815   4.817  -1.683  1.00 27.94     0.069 A 
HETATM    7  N23   D T 401     -14.008   2.944  -2.562  1.00 23.32    -0.250 NA
ENDROOT
BRANCH   5   8
HETATM    8  C12   D T 401     -12.221   3.819  -4.126  1.00 27.08     0.024 C 
HETATM    9  C20   D T 401     -12.325   3.132  -5.331  1.00 23.71     0.061 A 
HETATM   10  C17   D T 401     -11.161   2.732  -6.082  1.00 26.90     0.025 A 
HETATM   11  C21   D T 401     -13.440   2.710  -6.061  1.00 23.79     0.279 A 
HETATM   12  C7    D T 401      -9.773   2.885  -5.839  1.00 28.25     0.031 A 
HETATM   13  C16   D T 401     -11.605   2.083  -7.214  1.00 23.25     0.085 A 
HETATM   14  C15   D T 401      -8.842   2.363  -6.774  1.00 30.52     0.140 A 
HETATM   15  C5    D T 401      -9.288   1.706  -7.929  1.00 27.96     0.031 A 
HETATM   16  F29   D T 401      -7.532   2.495  -6.561  1.00 36.08    -0.204 F 
HETATM   17  C6    D T 401     -10.646   1.563  -8.170  1.00 30.63     0.021 A 
HETATM   18  N24   D T 401     -12.994   2.080  -7.194  1.00 22.38    -0.208 NA
HETATM   19  O27   D T 401     -14.606   2.856  -5.804  1.00 24.04    -0.265 OA
ENDBRANCH   5   8
BRANCH   6  20
HETATM   20  C22   D T 401     -15.639   5.808  -0.842  1.00 30.01     0.276 C 
HETATM   21  N25   D T 401     -17.061   5.872  -1.041  1.00 32.50    -0.232 NA
HETATM   22  O28   D T 401     -15.068   6.540  -0.015  1.00 32.52    -0.266 OA
BRANCH  21  23
HETATM   23  C37   D T 401     -17.895   6.783  -0.284  1.00 43.36     0.164 C 
BRANCH  23  24
HETATM   24  C38   D T 401     -18.659   6.229   0.902  1.00 41.32     0.276 C 
BRANCH  24  25
HETATM   25  N4    D T 401     -18.342   4.875   1.360  1.00 49.47     0.139 N 
BRANCH  25  26
HETATM   26  C39   D T 401     -19.599   4.100   1.515  1.00 47.52     0.250 C 
HETATM   27  C42   D T 401     -19.764   2.863   0.724  1.00 42.88     0.037 C 
ENDBRANCH  25  26
BRANCH  25  28
HETATM   28  C40   D T 401     -17.566   4.879   2.596  1.00 47.71     0.250 C 
HETATM   29  C41   D T 401     -17.913   3.898   3.677  1.00 49.11     0.037 C 
ENDBRANCH  25  28
ENDBRANCH  24  25
ENDBRANCH  23  24
ENDBRANCH  21  23
ENDBRANCH   6  20
TORSDOF 7
ENDMDL
MODEL 5
REMARK VINA RESULT:    -7.207      2.966      4.339
REMARK INTER + INTRA:         -11.365
REMARK INTER:                 -10.652
REMARK INTRA:                  -0.713
REMARK UNBOUND:                -1.208
REMARK  7 active torsions:
REMARK  status: ('A' for Active; 'I' for Inactive)
REMARK    1  A    between atoms: C22_10  and  C19_16 
REMARK       I    between atoms: C22_10  and  N25_19 
REMARK    2  A    between atoms: C12_12  and  C18_15 
REMARK    3  A    between atoms: N25_19  and  C37_23 
REMARK    4  A    between atoms: C37_23  and  C38_24 
REMARK    5  A    between atoms: C38_24  and  N4_25 
REMARK    6  A    between atoms: N4_25  and  C39_26 
REMARK    7  A    between atoms: N4_25  and  C40_27 
ROOT
HETATM    1  C4    D T 401      -9.739   6.296  -2.522  1.00 25.65     0.052 C 
HETATM    2  C13   D T 401     -13.029   5.272  -3.988  1.00 28.91     0.002 A 
HETATM    3  C3    D T 401     -14.539   5.296  -4.166  1.00 31.15     0.033 C 
HETATM    4  C14   D T 401     -10.940   5.715  -3.256  1.00 29.63     0.064 A 
HETATM    5  C18   D T 401     -12.126   4.467  -4.661  1.00 27.57     0.077 A 
HETATM    6  C19   D T 401     -12.268   6.075  -3.082  1.00 27.94     0.069 A 
HETATM    7  N23   D T 401     -10.882   4.755  -4.208  1.00 23.32    -0.250 NA
ENDROOT
BRANCH   5   8
HETATM    8  C12   D T 401     -12.473   3.463  -5.694  1.00 27.08     0.024 C 
HETATM    9  C20   D T 401     -13.035   2.215  -5.444  1.00 23.71     0.061 A 
HETATM   10  C17   D T 401     -13.014   1.161  -6.427  1.00 26.90     0.025 A 
HETATM   11  C21   D T 401     -13.703   1.710  -4.325  1.00 23.79     0.279 A 
HETATM   12  C7    D T 401     -12.479   1.092  -7.738  1.00 28.25     0.031 A 
HETATM   13  C16   D T 401     -13.649   0.071  -5.873  1.00 23.25     0.085 A 
HETATM   14  C15   D T 401     -12.603  -0.113  -8.477  1.00 30.52     0.140 A 
HETATM   15  C5    D T 401     -13.252  -1.224  -7.920  1.00 27.96     0.031 A 
HETATM   16  F29   D T 401     -12.103  -0.197  -9.711  1.00 36.08    -0.204 F 
HETATM   17  C6    D T 401     -13.782  -1.154  -6.640  1.00 30.63     0.021 A 
HETATM   18  N24   D T 401     -14.069   0.417  -4.596  1.00 22.38    -0.208 NA
HETATM   19  O27   D T 401     -13.956   2.263  -3.288  1.00 24.04    -0.265 OA
ENDBRANCH   5   8
BRANCH   6  20
HETATM   20  C22   D T 401     -12.824   7.138  -2.117  1.00 30.01     0.276 C 
HETATM   21  N25   D T 401     -13.668   6.717  -1.033  1.00 32.50    -0.232 NA
HETATM   22  O28   D T 401     -12.546   8.337  -2.292  1.00 32.52    -0.266 OA
BRANCH  21  23
HETATM   23  C37   D T 401     -14.227   7.665  -0.090  1.00 43.36     0.164 C 
BRANCH  23  24
HETATM   24  C38   D T 401     -14.732   7.136   1.237  1.00 41.32     0.276 C 
BRANCH  24  25
HETATM   25  N4    D T 401     -16.128   6.702   1.323  1.00 49.47     0.139 N 
BRANCH  25  26
HETATM   26  C39   D T 401     -16.176   5.271   1.717  1.00 47.52     0.250 C 
HETATM   27  C42   D T 401     -16.516   4.269   0.685  1.00 42.88     0.037 C 
ENDBRANCH  25  26
BRANCH  25  28
HETATM   28  C40   D T 401     -16.855   6.933   0.078  1.00 47.71     0.250 C 
HETATM   29  C41   D T 401     -18.113   7.750   0.111  1.00 49.11     0.037 C 
ENDBRANCH  25  28
ENDBRANCH  24  25
ENDBRANCH  23  24
ENDBRANCH  21  23
ENDBRANCH   6  20
TORSDOF 7
ENDMDL
MODEL 6
REMARK VINA RESULT:    -7.048      5.778      7.983
REMARK INTER + INTRA:         -11.141
REMARK INTER:                 -10.344
REMARK INTRA:                  -0.797
REMARK UNBOUND:                -1.208
REMARK  7 active torsions:
REMARK  status: ('A' for Active; 'I' for Inactive)
REMARK    1  A    between atoms: C22_10  and  C19_16 
REMARK       I    between atoms: C22_10  and  N25_19 
REMARK    2  A    between atoms: C12_12  and  C18_15 
REMARK    3  A    between atoms: N25_19  and  C37_23 
REMARK    4  A    between atoms: C37_23  and  C38_24 
REMARK    5  A    between atoms: C38_24  and  N4_25 
REMARK    6  A    between atoms: N4_25  and  C39_26 
REMARK    7  A    between atoms: N4_25  and  C40_27 
ROOT
HETATM    1  C4    D T 401     -12.057  -0.831  -9.681  1.00 25.65     0.052 C 
HETATM    2  C13   D T 401     -13.472   0.433  -6.453  1.00 28.91     0.002 A 
HETATM    3  C3    D T 401     -14.312   0.377  -5.188  1.00 31.15     0.033 C 
HETATM    4  C14   D T 401     -12.499  -0.105  -8.418  1.00 29.63     0.064 A 
HETATM    5  C18   D T 401     -12.671   1.483  -6.873  1.00 27.57     0.077 A 
HETATM    6  C19   D T 401     -13.364  -0.589  -7.447  1.00 27.94     0.069 A 
HETATM    7  N23   D T 401     -12.097   1.133  -8.048  1.00 23.32    -0.250 NA
ENDROOT
BRANCH   5   8
HETATM    8  C12   D T 401     -12.486   2.765  -6.153  1.00 27.08     0.024 C 
HETATM    9  C20   D T 401     -11.265   3.280  -5.731  1.00 23.71     0.061 A 
HETATM   10  C17   D T 401     -11.180   4.323  -4.741  1.00 26.90     0.025 A 
HETATM   11  C21   D T 401      -9.954   2.980  -6.115  1.00 23.79     0.279 A 
HETATM   12  C7    D T 401     -12.171   5.017  -4.002  1.00 28.25     0.031 A 
HETATM   13  C16   D T 401      -9.844   4.604  -4.554  1.00 23.25     0.085 A 
HETATM   14  C15   D T 401     -11.774   6.006  -3.065  1.00 30.52     0.140 A 
HETATM   15  C5    D T 401     -10.416   6.300  -2.874  1.00 27.96     0.031 A 
HETATM   16  F29   D T 401     -12.692   6.667  -2.359  1.00 36.08    -0.204 F 
HETATM   17  C6    D T 401      -9.448   5.626  -3.603  1.00 30.63     0.021 A 
HETATM   18  N24   D T 401      -9.107   3.785  -5.399  1.00 22.38    -0.208 NA
HETATM   19  O27   D T 401      -9.573   2.182  -6.929  1.00 24.04    -0.265 OA
ENDBRANCH   5   8
BRANCH   6  20
HETATM   20  C22   D T 401     -14.064  -1.960  -7.425  1.00 30.01     0.276 C 
HETATM   21  N25   D T 401     -14.884  -2.338  -8.543  1.00 32.50    -0.232 NA
HETATM   22  O28   D T 401     -13.921  -2.711  -6.445  1.00 32.52    -0.266 OA
BRANCH  21  23
HETATM   23  C37   D T 401     -15.572  -3.612  -8.586  1.00 43.36     0.164 C 
BRANCH  23  24
HETATM   24  C38   D T 401     -17.084  -3.601  -8.690  1.00 41.32     0.276 C 
BRANCH  24  25
HETATM   25  N4    D T 401     -17.864  -3.693  -7.454  1.00 49.47     0.139 N 
BRANCH  25  26
HETATM   26  C39   D T 401     -18.012  -2.340  -6.862  1.00 47.52     0.250 C 
HETATM   27  C42   D T 401     -17.311  -2.046  -5.595  1.00 42.88     0.037 C 
ENDBRANCH  25  26
BRANCH  25  28
HETATM   28  C40   D T 401     -17.275  -4.627  -6.499  1.00 47.71     0.250 C 
HETATM   29  C41   D T 401     -17.938  -5.954  -6.275  1.00 49.11     0.037 C 
ENDBRANCH  25  28
ENDBRANCH  24  25
ENDBRANCH  23  24
ENDBRANCH  21  23
ENDBRANCH   6  20
TORSDOF 7
ENDMDL
MODEL 7
REMARK VINA RESULT:    -7.026      4.461      9.951
REMARK INTER + INTRA:         -11.110
REMARK INTER:                 -10.262
REMARK INTRA:                  -0.848
REMARK UNBOUND:                -1.208
REMARK  7 active torsions:
REMARK  status: ('A' for Active; 'I' for Inactive)
REMARK    1  A    between atoms: C22_10  and  C19_16 
REMARK       I    between atoms: C22_10  and  N25_19 
REMARK    2  A    between atoms: C12_12  and  C18_15 
REMARK    3  A    between atoms: N25_19  and  C37_23 
REMARK    4  A    between atoms: C37_23  and  C38_24 
REMARK    5  A    between atoms: C38_24  and  N4_25 
REMARK    6  A    between atoms: N4_25  and  C39_26 
REMARK    7  A    between atoms: N4_25  and  C40_27 
ROOT
HETATM    1  C4    D T 401     -15.518  -1.328  -5.872  1.00 25.65     0.052 C 
HETATM    2  C13   D T 401     -12.839   1.114  -6.809  1.00 28.91     0.002 A 
HETATM    3  C3    D T 401     -11.806   1.764  -7.716  1.00 31.15     0.033 C 
HETATM    4  C14   D T 401     -14.455  -0.247  -6.015  1.00 29.63     0.064 A 
HETATM    5  C18   D T 401     -13.139   1.468  -5.504  1.00 27.57     0.077 A 
HETATM    6  C19   D T 401     -13.684   0.009  -7.140  1.00 27.94     0.069 A 
HETATM    7  N23   D T 401     -14.113   0.642  -5.055  1.00 23.32    -0.250 NA
ENDROOT
BRANCH   5   8
HETATM    8  C12   D T 401     -12.495   2.564  -4.741  1.00 27.08     0.024 C 
HETATM    9  C20   D T 401     -13.092   3.780  -4.424  1.00 23.71     0.061 A 
HETATM   10  C17   D T 401     -12.318   4.922  -4.008  1.00 26.90     0.025 A 
HETATM   11  C21   D T 401     -14.434   4.173  -4.405  1.00 23.79     0.279 A 
HETATM   12  C7    D T 401     -10.924   5.117  -3.841  1.00 28.25     0.031 A 
HETATM   13  C16   D T 401     -13.202   5.952  -3.769  1.00 23.25     0.085 A 
HETATM   14  C15   D T 401     -10.445   6.386  -3.425  1.00 30.52     0.140 A 
HETATM   15  C5    D T 401     -11.339   7.436  -3.175  1.00 27.96     0.031 A 
HETATM   16  F29   D T 401      -9.136   6.589  -3.265  1.00 36.08    -0.204 F 
HETATM   17  C6    D T 401     -12.703   7.243  -3.331  1.00 30.63     0.021 A 
HETATM   18  N24   D T 401     -14.487   5.484  -4.008  1.00 22.38    -0.208 NA
HETATM   19  O27   D T 401     -15.412   3.524  -4.665  1.00 24.04    -0.265 OA
ENDBRANCH   5   8
BRANCH   6  20
HETATM   20  C22   D T 401     -13.729  -0.734  -8.487  1.00 30.01     0.276 C 
HETATM   21  N25   D T 401     -12.829  -1.832  -8.704  1.00 32.50    -0.232 NA
HETATM   22  O28   D T 401     -14.529  -0.370  -9.366  1.00 32.52    -0.266 OA
BRANCH  21  23
HETATM   23  C37   D T 401     -12.818  -2.573  -9.950  1.00 43.36     0.164 C 
BRANCH  23  24
HETATM   24  C38   D T 401     -11.741  -2.243 -10.964  1.00 41.32     0.276 C 
BRANCH  24  25
HETATM   25  N4    D T 401     -11.870  -2.795 -12.314  1.00 49.47     0.139 N 
BRANCH  25  26
HETATM   26  C39   D T 401     -12.426  -4.170 -12.233  1.00 47.52     0.250 C 
HETATM   27  C42   D T 401     -13.543  -4.530 -13.131  1.00 42.88     0.037 C 
ENDBRANCH  25  26
BRANCH  25  28
HETATM   28  C40   D T 401     -10.603  -2.778 -13.040  1.00 47.71     0.250 C 
HETATM   29  C41   D T 401     -10.592  -2.337 -14.474  1.00 49.11     0.037 C 
ENDBRANCH  25  28
ENDBRANCH  24  25
ENDBRANCH  23  24
ENDBRANCH  21  23
ENDBRANCH   6  20
TORSDOF 7
ENDMDL
MODEL 8
REMARK VINA RESULT:    -7.013      2.214      2.759
REMARK INTER + INTRA:         -11.091
REMARK INTER:                  -9.848
REMARK INTRA:                  -1.243
REMARK UNBOUND:                -1.208
REMARK  7 active torsions:
REMARK  status: ('A' for Active; 'I' for Inactive)
REMARK    1  A    between atoms: C22_10  and  C19_16 
REMARK       I    between atoms: C22_10  and  N25_19 
REMARK    2  A    between atoms: C12_12  and  C18_15 
REMARK    3  A    between atoms: N25_19  and  C37_23 
REMARK    4  A    between atoms: C37_23  and  C38_24 
REMARK    5  A    between atoms: C38_24  and  N4_25 
REMARK    6  A    between atoms: N4_25  and  C39_26 
REMARK    7  A    between atoms: N4_25  and  C40_27 
ROOT
HETATM    1  C4    D T 401     -18.781   4.221  -3.173  1.00 25.65     0.052 C 
HETATM    2  C13   D T 401     -15.252   2.975  -3.109  1.00 28.91     0.002 A 
HETATM    3  C3    D T 401     -13.967   2.471  -2.470  1.00 31.15     0.033 C 
HETATM    4  C14   D T 401     -17.353   3.744  -3.400  1.00 29.63     0.064 A 
HETATM    5  C18   D T 401     -15.484   3.177  -4.459  1.00 27.57     0.077 A 
HETATM    6  C19   D T 401     -16.453   3.341  -2.425  1.00 27.94     0.069 A 
HETATM    7  N23   D T 401     -16.751   3.632  -4.606  1.00 23.32    -0.250 NA
ENDROOT
BRANCH   5   8
HETATM    8  C12   D T 401     -14.506   2.935  -5.546  1.00 27.08     0.024 C 
HETATM    9  C20   D T 401     -14.353   1.738  -6.237  1.00 23.71     0.061 A 
HETATM   10  C17   D T 401     -13.173   1.452  -7.012  1.00 26.90     0.025 A 
HETATM   11  C21   D T 401     -15.200   0.632  -6.368  1.00 23.79     0.279 A 
HETATM   12  C7    D T 401     -11.987   2.192  -7.249  1.00 28.25     0.031 A 
HETATM   13  C16   D T 401     -13.337   0.201  -7.566  1.00 23.25     0.085 A 
HETATM   14  C15   D T 401     -10.969   1.632  -8.063  1.00 30.52     0.140 A 
HETATM   15  C5    D T 401     -11.133   0.362  -8.633  1.00 27.96     0.031 A 
HETATM   16  F29   D T 401      -9.846   2.314  -8.295  1.00 36.08    -0.204 F 
HETATM   17  C6    D T 401     -12.296  -0.359  -8.407  1.00 30.63     0.021 A 
HETATM   18  N24   D T 401     -14.576  -0.287  -7.172  1.00 22.38    -0.208 NA
HETATM   19  O27   D T 401     -16.294   0.463  -5.899  1.00 24.04    -0.265 OA
ENDBRANCH   5   8
BRANCH   6  20
HETATM   20  C22   D T 401     -16.692   3.282  -0.905  1.00 30.01     0.276 C 
HETATM   21  N25   D T 401     -16.619   4.498  -0.144  1.00 32.50    -0.232 NA
HETATM   22  O28   D T 401     -16.933   2.191  -0.360  1.00 32.52    -0.266 OA
BRANCH  21  23
HETATM   23  C37   D T 401     -16.831   4.513   1.289  1.00 43.36     0.164 C 
BRANCH  23  24
HETATM   24  C38   D T 401     -18.228   4.803   1.799  1.00 41.32     0.276 C 
BRANCH  24  25
HETATM   25  N4    D T 401     -19.365   4.265   1.048  1.00 49.47     0.139 N 
BRANCH  25  26
HETATM   26  C39   D T 401     -20.319   5.362   0.745  1.00 47.52     0.250 C 
HETATM   27  C42   D T 401     -19.991   6.295  -0.353  1.00 42.88     0.037 C 
ENDBRANCH  25  26
BRANCH  25  28
HETATM   28  C40   D T 401     -20.023   3.171   1.754  1.00 47.71     0.250 C 
HETATM   29  C41   D T 401     -19.979   1.792   1.164  1.00 49.11     0.037 C 
ENDBRANCH  25  28
ENDBRANCH  24  25
ENDBRANCH  23  24
ENDBRANCH  21  23
ENDBRANCH   6  20
TORSDOF 7
ENDMDL
MODEL 9
REMARK VINA RESULT:    -6.983      2.295      3.438
REMARK INTER + INTRA:         -11.050
REMARK INTER:                  -9.845
REMARK INTRA:                  -1.204
REMARK UNBOUND:                -1.208
REMARK  7 active torsions:
REMARK  status: ('A' for Active; 'I' for Inactive)
REMARK    1  A    between atoms: C22_10  and  C19_16 
REMARK       I    between atoms: C22_10  and  N25_19 
REMARK    2  A    between atoms: C12_12  and  C18_15 
REMARK    3  A    between atoms: N25_19  and  C37_23 
REMARK    4  A    between atoms: C37_23  and  C38_24 
REMARK    5  A    between atoms: C38_24  and  N4_25 
REMARK    6  A    between atoms: N4_25  and  C39_26 
REMARK    7  A    between atoms: N4_25  and  C40_27 
ROOT
HETATM    1  C4    D T 401     -19.267   4.198  -4.925  1.00 25.65     0.052 C 
HETATM    2  C13   D T 401     -16.455   3.344  -2.606  1.00 28.91     0.002 A 
HETATM    3  C3    D T 401     -15.801   3.039  -1.268  1.00 31.15     0.033 C 
HETATM    4  C14   D T 401     -17.978   3.856  -4.191  1.00 29.63     0.064 A 
HETATM    5  C18   D T 401     -15.832   3.397  -3.842  1.00 27.57     0.077 A 
HETATM    6  C19   D T 401     -17.835   3.641  -2.828  1.00 27.94     0.069 A 
HETATM    7  N23   D T 401     -16.767   3.700  -4.774  1.00 23.32    -0.250 NA
ENDROOT
BRANCH   5   8
HETATM    8  C12   D T 401     -14.390   3.163  -4.089  1.00 27.08     0.024 C 
HETATM    9  C20   D T 401     -13.384   4.110  -3.927  1.00 23.71     0.061 A 
HETATM   10  C17   D T 401     -12.079   3.943  -4.515  1.00 26.90     0.025 A 
HETATM   11  C21   D T 401     -13.358   5.319  -3.224  1.00 23.79     0.279 A 
HETATM   12  C7    D T 401     -11.525   2.921  -5.328  1.00 28.25     0.031 A 
HETATM   13  C16   D T 401     -11.326   5.042  -4.165  1.00 23.25     0.085 A 
HETATM   14  C15   D T 401     -10.185   3.042  -5.779  1.00 30.52     0.140 A 
HETATM   15  C5    D T 401      -9.413   4.156  -5.422  1.00 27.96     0.031 A 
HETATM   16  F29   D T 401      -9.648   2.092  -6.546  1.00 36.08    -0.204 F 
HETATM   17  C6    D T 401      -9.953   5.151  -4.621  1.00 30.63     0.021 A 
HETATM   18  N24   D T 401     -12.112   5.871  -3.375  1.00 22.38    -0.208 NA
HETATM   19  O27   D T 401     -14.230   5.830  -2.574  1.00 24.04    -0.265 OA
ENDBRANCH   5   8
BRANCH   6  20
HETATM   20  C22   D T 401     -18.941   3.695  -1.757  1.00 30.01     0.276 C 
HETATM   21  N25   D T 401     -19.213   4.946  -1.104  1.00 32.50    -0.232 NA
HETATM   22  O28   D T 401     -19.570   2.664  -1.468  1.00 32.52    -0.266 OA
BRANCH  21  23
HETATM   23  C37   D T 401     -20.237   5.066  -0.087  1.00 43.36     0.164 C 
BRANCH  23  24
HETATM   24  C38   D T 401     -19.824   4.904   1.362  1.00 41.32     0.276 C 
BRANCH  24  25
HETATM   25  N4    D T 401     -19.074   3.704   1.739  1.00 49.47     0.139 N 
BRANCH  25  26
HETATM   26  C39   D T 401     -19.982   2.754   2.430  1.00 47.52     0.250 C 
HETATM   27  C42   D T 401     -20.279   2.979   3.860  1.00 42.88     0.037 C 
ENDBRANCH  25  26
BRANCH  25  28
HETATM   28  C40   D T 401     -17.910   4.017   2.561  1.00 47.71     0.250 C 
HETATM   29  C41   D T 401     -16.991   5.123   2.133  1.00 49.11     0.037 C 
ENDBRANCH  25  28
ENDBRANCH  24  25
ENDBRANCH  23  24
ENDBRANCH  21  23
ENDBRANCH   6  20
TORSDOF 7
ENDMDL
