MODEL 1
REMARK VINA RESULT:    -8.503      0.000      0.000
REMARK INTER + INTRA:         -12.553
REMARK INTER:                 -11.982
REMARK INTRA:                  -0.571
REMARK UNBOUND:                -0.571
REMARK  7 active torsions:
REMARK  status: ('A' for Active; 'I' for Inactive)
REMARK    1  A    between atoms: C22_10  and  C19_16 
REMARK       I    between atoms: C22_10  and  N25_19 
REMARK    2  A    between atoms: C12_12  and  C18_15 
REMARK    3  A    between atoms: N25_19  and  C37_23 
REMARK    4  A    between atoms: C37_23  and  C38_24 
REMARK    5  A    between atoms: C38_24  and  N4_25 
REMARK    6  A    between atoms: N4_25  and  C39_26 
REMARK    7  A    between atoms: N4_25  and  C40_27 
ROOT
HETATM    1  C4    D T 401       5.124  13.978   0.221  1.00 25.65     0.052 C 
HETATM    2  C13   D T 401       5.114  11.516   3.040  1.00 28.91     0.002 A 
HETATM    3  C3    D T 401       4.509  10.501   3.998  1.00 31.15     0.033 C 
HETATM    4  C14   D T 401       5.367  13.037   1.392  1.00 29.63     0.064 A 
HETATM    5  C18   D T 401       6.430  11.945   3.010  1.00 27.57     0.077 A 
HETATM    6  C19   D T 401       4.428  12.218   2.002  1.00 27.94     0.069 A 
HETATM    7  N23   D T 401       6.556  12.851   2.011  1.00 23.32    -0.250 NA
ENDROOT
BRANCH   5   8
HETATM    8  C12   D T 401       7.507  11.487   3.921  1.00 27.08     0.024 C 
HETATM    9  C20   D T 401       8.801  11.161   3.532  1.00 23.71     0.061 A 
HETATM   10  C17   D T 401       9.679  10.392   4.379  1.00 26.90     0.025 A 
HETATM   11  C21   D T 401       9.522  11.462   2.371  1.00 23.79     0.279 A 
HETATM   12  C7    D T 401       9.500   9.815   5.661  1.00 28.25     0.031 A 
HETATM   13  C16   D T 401      10.874  10.248   3.708  1.00 23.25     0.085 A 
HETATM   14  C15   D T 401      10.564   9.086   6.251  1.00 30.52     0.140 A 
HETATM   15  C5    D T 401      11.785   8.940   5.575  1.00 27.96     0.031 A 
HETATM   16  F29   D T 401      10.413   8.535   7.455  1.00 36.08    -0.204 F 
HETATM   17  C6    D T 401      11.962   9.511   4.323  1.00 30.63     0.021 A 
HETATM   18  N24   D T 401      10.770  10.907   2.490  1.00 22.38    -0.208 NA
HETATM   19  O27   D T 401       9.174  12.099   1.413  1.00 24.04    -0.265 OA
ENDBRANCH   5   8
BRANCH   6  20
HETATM   20  C22   D T 401       2.940  12.074   1.632  1.00 30.01     0.276 C 
HETATM   21  N25   D T 401       1.971  12.870   2.334  1.00 32.50    -0.232 NA
HETATM   22  O28   D T 401       2.599  11.274   0.744  1.00 32.52    -0.266 OA
BRANCH  21  23
HETATM   23  C37   D T 401       0.556  12.782   2.036  1.00 43.36     0.164 C 
BRANCH  23  24
HETATM   24  C38   D T 401      -0.010  13.720   0.988  1.00 41.32     0.276 C 
BRANCH  24  25
HETATM   25  N4    D T 401      -0.147  13.226  -0.383  1.00 49.47     0.139 N 
BRANCH  25  26
HETATM   26  C39   D T 401       0.951  13.774  -1.216  1.00 47.52     0.250 C 
HETATM   27  C42   D T 401       1.696  14.948  -0.714  1.00 42.88     0.037 C 
ENDBRANCH  25  26
BRANCH  25  28
HETATM   28  C40   D T 401      -1.454  13.540  -0.955  1.00 47.71     0.250 C 
HETATM   29  C41   D T 401      -2.385  12.418  -1.302  1.00 49.11     0.037 C 
ENDBRANCH  25  28
ENDBRANCH  24  25
ENDBRANCH  23  24
ENDBRANCH  21  23
ENDBRANCH   6  20
TORSDOF 7
ENDMDL
MODEL 2
REMARK VINA RESULT:    -8.457      3.601     10.284
REMARK INTER + INTRA:         -12.489
REMARK INTER:                 -11.417
REMARK INTRA:                  -1.072
REMARK UNBOUND:                -0.571
REMARK  7 active torsions:
REMARK  status: ('A' for Active; 'I' for Inactive)
REMARK    1  A    between atoms: C22_10  and  C19_16 
REMARK       I    between atoms: C22_10  and  N25_19 
REMARK    2  A    between atoms: C12_12  and  C18_15 
REMARK    3  A    between atoms: N25_19  and  C37_23 
REMARK    4  A    between atoms: C37_23  and  C38_24 
REMARK    5  A    between atoms: C38_24  and  N4_25 
REMARK    6  A    between atoms: N4_25  and  C39_26 
REMARK    7  A    between atoms: N4_25  and  C40_27 
ROOT
HETATM    1  C4    D T 401       4.680  10.683   4.033  1.00 25.65     0.052 C 
HETATM    2  C13   D T 401       4.178  12.810   0.994  1.00 28.91     0.002 A 
HETATM    3  C3    D T 401       4.599  13.706  -0.161  1.00 31.15     0.033 C 
HETATM    4  C14   D T 401       4.228  11.497   2.830  1.00 29.63     0.064 A 
HETATM    5  C18   D T 401       2.890  12.412   1.308  1.00 27.57     0.077 A 
HETATM    6  C19   D T 401       5.041  12.224   1.972  1.00 27.94     0.069 A 
HETATM    7  N23   D T 401       2.949  11.623   2.407  1.00 23.32    -0.250 NA
ENDROOT
BRANCH   5   8
HETATM    8  C12   D T 401       1.665  12.793   0.565  1.00 27.08     0.024 C 
HETATM    9  C20   D T 401       0.494  13.271   1.141  1.00 23.71     0.061 A 
HETATM   10  C17   D T 401      -0.758  13.280   0.425  1.00 26.90     0.025 A 
HETATM   11  C21   D T 401       0.241  13.821   2.402  1.00 23.79     0.279 A 
HETATM   12  C7    D T 401      -1.112  12.851  -0.878  1.00 28.25     0.031 A 
HETATM   13  C16   D T 401      -1.709  13.813   1.267  1.00 23.25     0.085 A 
HETATM   14  C15   D T 401      -2.456  12.975  -1.311  1.00 30.52     0.140 A 
HETATM   15  C5    D T 401      -3.428  13.522  -0.460  1.00 27.96     0.031 A 
HETATM   16  F29   D T 401      -2.808  12.574  -2.533  1.00 36.08    -0.204 F 
HETATM   17  C6    D T 401      -3.081  13.949   0.813  1.00 30.63     0.021 A 
HETATM   18  N24   D T 401      -1.090  14.144   2.466  1.00 22.38    -0.208 NA
HETATM   19  O27   D T 401       1.009  14.016   3.306  1.00 24.04    -0.265 OA
ENDBRANCH   5   8
BRANCH   6  20
HETATM   20  C22   D T 401       6.572  12.368   2.041  1.00 30.01     0.276 C 
HETATM   21  N25   D T 401       7.385  11.566   1.169  1.00 32.50    -0.232 NA
HETATM   22  O28   D T 401       7.082  13.164   2.849  1.00 32.52    -0.266 OA
BRANCH  21  23
HETATM   23  C37   D T 401       8.830  11.651   1.184  1.00 43.36     0.164 C 
BRANCH  23  24
HETATM   24  C38   D T 401       9.606  10.499   1.791  1.00 41.32     0.276 C 
BRANCH  24  25
HETATM   25  N4    D T 401      10.422  10.762   2.978  1.00 49.47     0.139 N 
BRANCH  25  26
HETATM   26  C39   D T 401       9.855  10.030   4.138  1.00 47.52     0.250 C 
HETATM   27  C42   D T 401       8.403  10.136   4.395  1.00 42.88     0.037 C 
ENDBRANCH  25  26
BRANCH  25  28
HETATM   28  C40   D T 401      10.541  12.190   3.260  1.00 47.71     0.250 C 
HETATM   29  C41   D T 401      11.119  12.627   4.572  1.00 49.11     0.037 C 
ENDBRANCH  25  28
ENDBRANCH  24  25
ENDBRANCH  23  24
ENDBRANCH  21  23
ENDBRANCH   6  20
TORSDOF 7
ENDMDL
MODEL 3
REMARK VINA RESULT:    -8.370      5.312      8.031
REMARK INTER + INTRA:         -12.366
REMARK INTER:                 -11.112
REMARK INTRA:                  -1.254
REMARK UNBOUND:                -0.571
REMARK  7 active torsions:
REMARK  status: ('A' for Active; 'I' for Inactive)
REMARK    1  A    between atoms: C22_10  and  C19_16 
REMARK       I    between atoms: C22_10  and  N25_19 
REMARK    2  A    between atoms: C12_12  and  C18_15 
REMARK    3  A    between atoms: N25_19  and  C37_23 
REMARK    4  A    between atoms: C37_23  and  C38_24 
REMARK    5  A    between atoms: C38_24  and  N4_25 
REMARK    6  A    between atoms: N4_25  and  C39_26 
REMARK    7  A    between atoms: N4_25  and  C40_27 
ROOT
HETATM    1  C4    D T 401       4.807  17.244  -3.224  1.00 25.65     0.052 C 
HETATM    2  C13   D T 401       5.585  13.843  -1.866  1.00 28.91     0.002 A 
HETATM    3  C3    D T 401       6.340  12.526  -1.763  1.00 31.15     0.033 C 
HETATM    4  C14   D T 401       4.923  15.900  -2.519  1.00 29.63     0.064 A 
HETATM    5  C18   D T 401       4.496  14.237  -1.107  1.00 27.57     0.077 A 
HETATM    6  C19   D T 401       5.861  14.911  -2.776  1.00 27.94     0.069 A 
HETATM    7  N23   D T 401       4.124  15.473  -1.514  1.00 23.32    -0.250 NA
ENDROOT
BRANCH   5   8
HETATM    8  C12   D T 401       3.857  13.434  -0.038  1.00 27.08     0.024 C 
HETATM    9  C20   D T 401       4.488  12.992   1.120  1.00 23.71     0.061 A 
HETATM   10  C17   D T 401       3.937  11.935   1.930  1.00 26.90     0.025 A 
HETATM   11  C21   D T 401       5.667  13.409   1.747  1.00 23.79     0.279 A 
HETATM   12  C7    D T 401       2.771  11.140   1.795  1.00 28.25     0.031 A 
HETATM   13  C16   D T 401       4.793  11.743   2.993  1.00 23.25     0.085 A 
HETATM   14  C15   D T 401       2.491  10.144   2.765  1.00 30.52     0.140 A 
HETATM   15  C5    D T 401       3.356   9.948   3.851  1.00 27.96     0.031 A 
HETATM   16  F29   D T 401       1.400   9.386   2.652  1.00 36.08    -0.204 F 
HETATM   17  C6    D T 401       4.493  10.730   3.988  1.00 30.63     0.021 A 
HETATM   18  N24   D T 401       5.840  12.649   2.875  1.00 22.38    -0.208 NA
HETATM   19  O27   D T 401       6.428  14.279   1.417  1.00 24.04    -0.265 OA
ENDBRANCH   5   8
BRANCH   6  20
HETATM   20  C22   D T 401       6.989  14.949  -3.823  1.00 30.01     0.276 C 
HETATM   21  N25   D T 401       8.124  15.800  -3.590  1.00 32.50    -0.232 NA
HETATM   22  O28   D T 401       6.901  14.256  -4.851  1.00 32.52    -0.266 OA
BRANCH  21  23
HETATM   23  C37   D T 401       9.218  15.883  -4.534  1.00 43.36     0.164 C 
BRANCH  23  24
HETATM   24  C38   D T 401       9.371  17.160  -5.336  1.00 41.32     0.276 C 
BRANCH  24  25
HETATM   25  N4    D T 401       8.607  17.294  -6.578  1.00 49.47     0.139 N 
BRANCH  25  26
HETATM   26  C39   D T 401       7.239  17.778  -6.266  1.00 47.52     0.250 C 
HETATM   27  C42   D T 401       6.102  17.209  -7.020  1.00 42.88     0.037 C 
ENDBRANCH  25  26
BRANCH  25  28
HETATM   28  C40   D T 401       8.566  16.047  -7.338  1.00 47.71     0.250 C 
HETATM   29  C41   D T 401       9.691  15.731  -8.278  1.00 49.11     0.037 C 
ENDBRANCH  25  28
ENDBRANCH  24  25
ENDBRANCH  23  24
ENDBRANCH  21  23
ENDBRANCH   6  20
TORSDOF 7
ENDMDL
MODEL 4
REMARK VINA RESULT:    -8.153      3.021      9.591
REMARK INTER + INTRA:         -12.061
REMARK INTER:                 -11.046
REMARK INTRA:                  -1.015
REMARK UNBOUND:                -0.571
REMARK  7 active torsions:
REMARK  status: ('A' for Active; 'I' for Inactive)
REMARK    1  A    between atoms: C22_10  and  C19_16 
REMARK       I    between atoms: C22_10  and  N25_19 
REMARK    2  A    between atoms: C12_12  and  C18_15 
REMARK    3  A    between atoms: N25_19  and  C37_23 
REMARK    4  A    between atoms: C37_23  and  C38_24 
REMARK    5  A    between atoms: C38_24  and  N4_25 
REMARK    6  A    between atoms: N4_25  and  C39_26 
REMARK    7  A    between atoms: N4_25  and  C40_27 
ROOT
HETATM    1  C4    D T 401       9.188  14.062   0.763  1.00 25.65     0.052 C 
HETATM    2  C13   D T 401       6.838  11.897   2.713  1.00 28.91     0.002 A 
HETATM    3  C3    D T 401       6.445  10.801   3.692  1.00 31.15     0.033 C 
HETATM    4  C14   D T 401       8.048  13.310   1.434  1.00 29.63     0.064 A 
HETATM    5  C18   D T 401       5.981  12.705   1.985  1.00 27.57     0.077 A 
HETATM    6  C19   D T 401       8.168  12.283   2.359  1.00 27.94     0.069 A 
HETATM    7  N23   D T 401       6.731  13.545   1.232  1.00 23.32    -0.250 NA
ENDROOT
BRANCH   5   8
HETATM    8  C12   D T 401       4.500  12.649   2.028  1.00 27.08     0.024 C 
HETATM    9  C20   D T 401       3.663  12.715   0.920  1.00 23.71     0.061 A 
HETATM   10  C17   D T 401       2.258  13.017   1.044  1.00 26.90     0.025 A 
HETATM   11  C21   D T 401       3.913  12.517  -0.442  1.00 23.79     0.279 A 
HETATM   12  C7    D T 401       1.443  13.307   2.166  1.00 28.25     0.031 A 
HETATM   13  C16   D T 401       1.721  13.002  -0.225  1.00 23.25     0.085 A 
HETATM   14  C15   D T 401       0.065  13.584   1.973  1.00 30.52     0.140 A 
HETATM   15  C5    D T 401      -0.488  13.566   0.684  1.00 27.96     0.031 A 
HETATM   16  F29   D T 401      -0.716  13.862   3.017  1.00 36.08    -0.204 F 
HETATM   17  C6    D T 401       0.308  13.274  -0.413  1.00 30.63     0.021 A 
HETATM   18  N24   D T 401       2.735  12.692  -1.122  1.00 22.38    -0.208 NA
HETATM   19  O27   D T 401       4.948  12.228  -0.983  1.00 24.04    -0.265 OA
ENDBRANCH   5   8
BRANCH   6  20
HETATM   20  C22   D T 401       9.471  11.679   2.914  1.00 30.01     0.276 C 
HETATM   21  N25   D T 401      10.180  12.386   3.945  1.00 32.50    -0.232 NA
HETATM   22  O28   D T 401       9.894  10.601   2.461  1.00 32.52    -0.266 OA
BRANCH  21  23
HETATM   23  C37   D T 401      11.412  11.874   4.509  1.00 43.36     0.164 C 
BRANCH  23  24
HETATM   24  C38   D T 401      11.387  11.378   5.941  1.00 41.32     0.276 C 
BRANCH  24  25
HETATM   25  N4    D T 401      11.659   9.960   6.188  1.00 49.47     0.139 N 
BRANCH  25  26
HETATM   26  C39   D T 401      12.330   9.374   5.001  1.00 47.52     0.250 C 
HETATM   27  C42   D T 401      13.568   8.592   5.208  1.00 42.88     0.037 C 
ENDBRANCH  25  26
BRANCH  25  28
HETATM   28  C40   D T 401      10.450   9.218   6.533  1.00 47.71     0.250 C 
HETATM   29  C41   D T 401       9.415   8.979   5.475  1.00 49.11     0.037 C 
ENDBRANCH  25  28
ENDBRANCH  24  25
ENDBRANCH  23  24
ENDBRANCH  21  23
ENDBRANCH   6  20
TORSDOF 7
ENDMDL
MODEL 5
REMARK VINA RESULT:    -8.009      1.835      2.003
REMARK INTER + INTRA:         -11.857
REMARK INTER:                 -11.181
REMARK INTRA:                  -0.676
REMARK UNBOUND:                -0.571
REMARK  7 active torsions:
REMARK  status: ('A' for Active; 'I' for Inactive)
REMARK    1  A    between atoms: C22_10  and  C19_16 
REMARK       I    between atoms: C22_10  and  N25_19 
REMARK    2  A    between atoms: C12_12  and  C18_15 
REMARK    3  A    between atoms: N25_19  and  C37_23 
REMARK    4  A    between atoms: C37_23  and  C38_24 
REMARK    5  A    between atoms: C38_24  and  N4_25 
REMARK    6  A    between atoms: N4_25  and  C39_26 
REMARK    7  A    between atoms: N4_25  and  C40_27 
ROOT
HETATM    1  C4    D T 401       5.631  12.692  -1.542  1.00 25.65     0.052 C 
HETATM    2  C13   D T 401       6.048  12.181   2.143  1.00 28.91     0.002 A 
HETATM    3  C3    D T 401       5.591  11.948   3.575  1.00 31.15     0.033 C 
HETATM    4  C14   D T 401       6.050  12.511  -0.090  1.00 29.63     0.064 A 
HETATM    5  C18   D T 401       7.352  12.330   1.703  1.00 27.57     0.077 A 
HETATM    6  C19   D T 401       5.209  12.299   0.992  1.00 27.94     0.069 A 
HETATM    7  N23   D T 401       7.325  12.521   0.362  1.00 23.32    -0.250 NA
ENDROOT
BRANCH   5   8
HETATM    8  C12   D T 401       8.561  12.288   2.560  1.00 27.08     0.024 C 
HETATM    9  C20   D T 401       8.974  11.194   3.311  1.00 23.71     0.061 A 
HETATM   10  C17   D T 401       9.929  11.323   4.383  1.00 26.90     0.025 A 
HETATM   11  C21   D T 401       8.636   9.838   3.234  1.00 23.79     0.279 A 
HETATM   12  C7    D T 401      10.613  12.443   4.918  1.00 28.25     0.031 A 
HETATM   13  C16   D T 401      10.122  10.066   4.915  1.00 23.25     0.085 A 
HETATM   14  C15   D T 401      11.502  12.260   6.008  1.00 30.52     0.140 A 
HETATM   15  C5    D T 401      11.706  10.983   6.551  1.00 27.96     0.031 A 
HETATM   16  F29   D T 401      12.152  13.302   6.526  1.00 36.08    -0.204 F 
HETATM   17  C6    D T 401      11.042   9.886   6.023  1.00 30.63     0.021 A 
HETATM   18  N24   D T 401       9.335   9.169   4.206  1.00 22.38    -0.208 NA
HETATM   19  O27   D T 401       7.886   9.292   2.468  1.00 24.04    -0.265 OA
ENDBRANCH   5   8
BRANCH   6  20
HETATM   20  C22   D T 401       3.673  12.196   0.969  1.00 30.01     0.276 C 
HETATM   21  N25   D T 401       2.920  12.800   2.034  1.00 32.50    -0.232 NA
HETATM   22  O28   D T 401       3.109  11.589   0.042  1.00 32.52    -0.266 OA
BRANCH  21  23
HETATM   23  C37   D T 401       1.473  12.738   2.073  1.00 43.36     0.164 C 
BRANCH  23  24
HETATM   24  C38   D T 401       0.695  13.758   1.265  1.00 41.32     0.276 C 
BRANCH  24  25
HETATM   25  N4    D T 401      -0.219  13.271   0.230  1.00 49.47     0.139 N 
BRANCH  25  26
HETATM   26  C39   D T 401       0.109  13.923  -1.062  1.00 47.52     0.250 C 
HETATM   27  C42   D T 401       1.463  14.487  -1.242  1.00 42.88     0.037 C 
ENDBRANCH  25  26
BRANCH  25  28
HETATM   28  C40   D T 401      -1.619  13.478   0.588  1.00 47.71     0.250 C 
HETATM   29  C41   D T 401      -2.656  13.472  -0.494  1.00 49.11     0.037 C 
ENDBRANCH  25  28
ENDBRANCH  24  25
ENDBRANCH  23  24
ENDBRANCH  21  23
ENDBRANCH   6  20
TORSDOF 7
ENDMDL
MODEL 6
REMARK VINA RESULT:    -7.984      5.660      8.660
REMARK INTER + INTRA:         -11.822
REMARK INTER:                 -10.844
REMARK INTRA:                  -0.978
REMARK UNBOUND:                -0.571
REMARK  7 active torsions:
REMARK  status: ('A' for Active; 'I' for Inactive)
REMARK    1  A    between atoms: C22_10  and  C19_16 
REMARK       I    between atoms: C22_10  and  N25_19 
REMARK    2  A    between atoms: C12_12  and  C18_15 
REMARK    3  A    between atoms: N25_19  and  C37_23 
REMARK    4  A    between atoms: C37_23  and  C38_24 
REMARK    5  A    between atoms: C38_24  and  N4_25 
REMARK    6  A    between atoms: N4_25  and  C39_26 
REMARK    7  A    between atoms: N4_25  and  C40_27 
ROOT
HETATM    1  C4    D T 401       3.104  17.996  -3.079  1.00 25.65     0.052 C 
HETATM    2  C13   D T 401       5.469  15.096  -2.990  1.00 28.91     0.002 A 
HETATM    3  C3    D T 401       6.540  14.158  -3.526  1.00 31.15     0.033 C 
HETATM    4  C14   D T 401       3.969  16.773  -2.811  1.00 29.63     0.064 A 
HETATM    5  C18   D T 401       4.847  15.025  -1.755  1.00 27.57     0.077 A 
HETATM    6  C19   D T 401       4.905  16.218  -3.671  1.00 27.94     0.069 A 
HETATM    7  N23   D T 401       3.958  16.043  -1.672  1.00 23.32    -0.250 NA
ENDROOT
BRANCH   5   8
HETATM    8  C12   D T 401       5.114  14.005  -0.713  1.00 27.08     0.024 C 
HETATM    9  C20   D T 401       4.144  13.250  -0.063  1.00 23.71     0.061 A 
HETATM   10  C17   D T 401       4.422  12.553   1.168  1.00 26.90     0.025 A 
HETATM   11  C21   D T 401       2.811  12.980  -0.387  1.00 23.79     0.279 A 
HETATM   12  C7    D T 401       5.589  12.459   1.967  1.00 28.25     0.031 A 
HETATM   13  C16   D T 401       3.264  11.906   1.544  1.00 23.25     0.085 A 
HETATM   14  C15   D T 401       5.557  11.692   3.159  1.00 30.52     0.140 A 
HETATM   15  C5    D T 401       4.383  11.028   3.545  1.00 27.96     0.031 A 
HETATM   16  F29   D T 401       6.644  11.595   3.924  1.00 36.08    -0.204 F 
HETATM   17  C6    D T 401       3.243  11.114   2.760  1.00 30.63     0.021 A 
HETATM   18  N24   D T 401       2.291  12.168   0.589  1.00 22.38    -0.208 NA
HETATM   19  O27   D T 401       2.179  13.348  -1.341  1.00 24.04    -0.265 OA
ENDBRANCH   5   8
BRANCH   6  20
HETATM   20  C22   D T 401       5.281  16.714  -5.080  1.00 30.01     0.276 C 
HETATM   21  N25   D T 401       6.056  17.918  -5.208  1.00 32.50    -0.232 NA
HETATM   22  O28   D T 401       4.907  16.076  -6.079  1.00 32.52    -0.266 OA
BRANCH  21  23
HETATM   23  C37   D T 401       6.442  18.439  -6.503  1.00 43.36     0.164 C 
BRANCH  23  24
HETATM   24  C38   D T 401       7.765  17.985  -7.088  1.00 41.32     0.276 C 
BRANCH  24  25
HETATM   25  N4    D T 401       8.592  17.067  -6.301  1.00 49.47     0.139 N 
BRANCH  25  26
HETATM   26  C39   D T 401       9.890  17.716  -5.992  1.00 47.52     0.250 C 
HETATM   27  C42   D T 401      10.220  18.986  -6.670  1.00 42.88     0.037 C 
ENDBRANCH  25  26
BRANCH  25  28
HETATM   28  C40   D T 401       8.787  15.786  -6.975  1.00 47.71     0.250 C 
HETATM   29  C41   D T 401       9.448  15.764  -8.320  1.00 49.11     0.037 C 
ENDBRANCH  25  28
ENDBRANCH  24  25
ENDBRANCH  23  24
ENDBRANCH  21  23
ENDBRANCH   6  20
TORSDOF 7
ENDMDL
MODEL 7
REMARK VINA RESULT:    -7.875      6.686     10.001
REMARK INTER + INTRA:         -11.668
REMARK INTER:                 -10.512
REMARK INTRA:                  -1.156
REMARK UNBOUND:                -0.571
REMARK  7 active torsions:
REMARK  status: ('A' for Active; 'I' for Inactive)
REMARK    1  A    between atoms: C22_10  and  C19_16 
REMARK       I    between atoms: C22_10  and  N25_19 
REMARK    2  A    between atoms: C12_12  and  C18_15 
REMARK    3  A    between atoms: N25_19  and  C37_23 
REMARK    4  A    between atoms: C37_23  and  C38_24 
REMARK    5  A    between atoms: C38_24  and  N4_25 
REMARK    6  A    between atoms: N4_25  and  C39_26 
REMARK    7  A    between atoms: N4_25  and  C40_27 
ROOT
HETATM    1  C4    D T 401       5.955  15.647  -6.233  1.00 25.65     0.052 C 
HETATM    2  C13   D T 401       6.091  16.353  -2.559  1.00 28.91     0.002 A 
HETATM    3  C3    D T 401       6.667  16.928  -1.274  1.00 31.15     0.033 C 
HETATM    4  C14   D T 401       5.797  15.796  -4.727  1.00 29.63     0.064 A 
HETATM    5  C18   D T 401       4.937  15.599  -2.686  1.00 27.57     0.077 A 
HETATM    6  C19   D T 401       6.647  16.479  -3.870  1.00 27.94     0.069 A 
HETATM    7  N23   D T 401       4.781  15.284  -3.994  1.00 23.32    -0.250 NA
ENDROOT
BRANCH   5   8
HETATM    8  C12   D T 401       4.036  15.210  -1.575  1.00 27.08     0.024 C 
HETATM    9  C20   D T 401       4.203  14.095  -0.761  1.00 23.71     0.061 A 
HETATM   10  C17   D T 401       3.128  13.574   0.046  1.00 26.90     0.025 A 
HETATM   11  C21   D T 401       5.319  13.286  -0.517  1.00 23.79     0.279 A 
HETATM   12  C7    D T 401       1.779  13.977   0.210  1.00 28.25     0.031 A 
HETATM   13  C16   D T 401       3.619  12.481   0.728  1.00 23.25     0.085 A 
HETATM   14  C15   D T 401       0.935  13.245   1.083  1.00 30.52     0.140 A 
HETATM   15  C5    D T 401       1.430  12.135   1.783  1.00 27.96     0.031 A 
HETATM   16  F29   D T 401      -0.337  13.608   1.247  1.00 36.08    -0.204 F 
HETATM   17  C6    D T 401       2.752  11.745   1.629  1.00 30.63     0.021 A 
HETATM   18  N24   D T 401       4.954  12.318   0.382  1.00 22.38    -0.208 NA
HETATM   19  O27   D T 401       6.428  13.378  -0.970  1.00 24.04    -0.265 OA
ENDBRANCH   5   8
BRANCH   6  20
HETATM   20  C22   D T 401       7.932  17.239  -4.247  1.00 30.01     0.276 C 
HETATM   21  N25   D T 401       7.820  18.475  -4.972  1.00 32.50    -0.232 NA
HETATM   22  O28   D T 401       9.041  16.775  -3.928  1.00 32.52    -0.266 OA
BRANCH  21  23
HETATM   23  C37   D T 401       8.988  19.238  -5.358  1.00 43.36     0.164 C 
BRANCH  23  24
HETATM   24  C38   D T 401       9.525  19.057  -6.764  1.00 41.32     0.276 C 
BRANCH  24  25
HETATM   25  N4    D T 401      10.300  17.850  -7.060  1.00 49.47     0.139 N 
BRANCH  25  26
HETATM   26  C39   D T 401      11.722  18.217  -7.272  1.00 47.52     0.250 C 
HETATM   27  C42   D T 401      12.648  17.180  -7.775  1.00 42.88     0.037 C 
ENDBRANCH  25  26
BRANCH  25  28
HETATM   28  C40   D T 401       9.765  17.118  -8.205  1.00 47.71     0.250 C 
HETATM   29  C41   D T 401       9.259  15.721  -8.004  1.00 49.11     0.037 C 
ENDBRANCH  25  28
ENDBRANCH  24  25
ENDBRANCH  23  24
ENDBRANCH  21  23
ENDBRANCH   6  20
TORSDOF 7
ENDMDL
MODEL 8
REMARK VINA RESULT:    -7.863      1.354      2.346
REMARK INTER + INTRA:         -11.652
REMARK INTER:                 -10.992
REMARK INTRA:                  -0.660
REMARK UNBOUND:                -0.571
REMARK  7 active torsions:
REMARK  status: ('A' for Active; 'I' for Inactive)
REMARK    1  A    between atoms: C22_10  and  C19_16 
REMARK       I    between atoms: C22_10  and  N25_19 
REMARK    2  A    between atoms: C12_12  and  C18_15 
REMARK    3  A    between atoms: N25_19  and  C37_23 
REMARK    4  A    between atoms: C37_23  and  C38_24 
REMARK    5  A    between atoms: C38_24  and  N4_25 
REMARK    6  A    between atoms: N4_25  and  C39_26 
REMARK    7  A    between atoms: N4_25  and  C40_27 
ROOT
HETATM    1  C4    D T 401       2.607   9.721   3.218  1.00 25.65     0.052 C 
HETATM    2  C13   D T 401       5.303  12.290   2.840  1.00 28.91     0.002 A 
HETATM    3  C3    D T 401       5.914  13.609   2.391  1.00 31.15     0.033 C 
HETATM    4  C14   D T 401       3.851  10.598   3.188  1.00 29.63     0.064 A 
HETATM    5  C18   D T 401       5.939  11.277   3.536  1.00 27.57     0.077 A 
HETATM    6  C19   D T 401       3.961  11.856   2.613  1.00 27.94     0.069 A 
HETATM    7  N23   D T 401       5.046  10.278   3.736  1.00 23.32    -0.250 NA
ENDROOT
BRANCH   5   8
HETATM    8  C12   D T 401       7.353  11.292   3.979  1.00 27.08     0.024 C 
HETATM    9  C20   D T 401       8.451  11.044   3.163  1.00 23.71     0.061 A 
HETATM   10  C17   D T 401       9.746  10.719   3.707  1.00 26.90     0.025 A 
HETATM   11  C21   D T 401       8.591  11.056   1.771  1.00 23.79     0.279 A 
HETATM   12  C7    D T 401      10.208  10.564   5.038  1.00 28.25     0.031 A 
HETATM   13  C16   D T 401      10.605  10.538   2.644  1.00 23.25     0.085 A 
HETATM   14  C15   D T 401      11.564  10.220   5.269  1.00 30.52     0.140 A 
HETATM   15  C5    D T 401      12.444  10.039   4.192  1.00 27.96     0.031 A 
HETATM   16  F29   D T 401      12.015  10.068   6.514  1.00 36.08    -0.204 F 
HETATM   17  C6    D T 401      11.995  10.198   2.889  1.00 30.63     0.021 A 
HETATM   18  N24   D T 401       9.893  10.750   1.471  1.00 22.38    -0.208 NA
HETATM   19  O27   D T 401       7.762  11.297   0.933  1.00 24.04    -0.265 OA
ENDBRANCH   5   8
BRANCH   6  20
HETATM   20  C22   D T 401       2.857  12.644   1.885  1.00 30.01     0.276 C 
HETATM   21  N25   D T 401       1.722  13.106   2.636  1.00 32.50    -0.232 NA
HETATM   22  O28   D T 401       2.956  12.862   0.665  1.00 32.52    -0.266 OA
BRANCH  21  23
HETATM   23  C37   D T 401       0.649  13.852   2.012  1.00 43.36     0.164 C 
BRANCH  23  24
HETATM   24  C38   D T 401      -0.430  13.074   1.285  1.00 41.32     0.276 C 
BRANCH  24  25
HETATM   25  N4    D T 401      -1.000  13.652   0.067  1.00 49.47     0.139 N 
BRANCH  25  26
HETATM   26  C39   D T 401      -2.343  13.069  -0.174  1.00 47.52     0.250 C 
HETATM   27  C42   D T 401      -2.573  12.327  -1.431  1.00 42.88     0.037 C 
ENDBRANCH  25  26
BRANCH  25  28
HETATM   28  C40   D T 401      -0.128  13.469  -1.090  1.00 47.71     0.250 C 
HETATM   29  C41   D T 401       0.937  14.487  -1.368  1.00 49.11     0.037 C 
ENDBRANCH  25  28
ENDBRANCH  24  25
ENDBRANCH  23  24
ENDBRANCH  21  23
ENDBRANCH   6  20
TORSDOF 7
ENDMDL
MODEL 9
REMARK VINA RESULT:    -7.760      6.313      8.982
REMARK INTER + INTRA:         -11.506
REMARK INTER:                 -10.585
REMARK INTRA:                  -0.921
REMARK UNBOUND:                -0.571
REMARK  7 active torsions:
REMARK  status: ('A' for Active; 'I' for Inactive)
REMARK    1  A    between atoms: C22_10  and  C19_16 
REMARK       I    between atoms: C22_10  and  N25_19 
REMARK    2  A    between atoms: C12_12  and  C18_15 
REMARK    3  A    between atoms: N25_19  and  C37_23 
REMARK    4  A    between atoms: C37_23  and  C38_24 
REMARK    5  A    between atoms: C38_24  and  N4_25 
REMARK    6  A    between atoms: N4_25  and  C39_26 
REMARK    7  A    between atoms: N4_25  and  C40_27 
ROOT
HETATM    1  C4    D T 401       7.050  14.584  -5.366  1.00 25.65     0.052 C 
HETATM    2  C13   D T 401       4.857  16.082  -2.727  1.00 28.91     0.002 A 
HETATM    3  C3    D T 401       4.073  17.185  -2.033  1.00 31.15     0.033 C 
HETATM    4  C14   D T 401       6.163  14.961  -4.187  1.00 29.63     0.064 A 
HETATM    5  C18   D T 401       4.980  14.766  -2.315  1.00 27.57     0.077 A 
HETATM    6  C19   D T 401       5.618  16.210  -3.930  1.00 27.94     0.069 A 
HETATM    7  N23   D T 401       5.762  14.116  -3.209  1.00 23.32    -0.250 NA
ENDROOT
BRANCH   5   8
HETATM    8  C12   D T 401       4.360  14.182  -1.102  1.00 27.08     0.024 C 
HETATM    9  C20   D T 401       5.036  13.871   0.073  1.00 23.71     0.061 A 
HETATM   10  C17   D T 401       4.471  12.991   1.065  1.00 26.90     0.025 A 
HETATM   11  C21   D T 401       6.279  14.286   0.562  1.00 23.79     0.279 A 
HETATM   12  C7    D T 401       3.249  12.275   1.118  1.00 28.25     0.031 A 
HETATM   13  C16   D T 401       5.381  12.896   2.096  1.00 23.25     0.085 A 
HETATM   14  C15   D T 401       2.968  11.459   2.243  1.00 30.52     0.140 A 
HETATM   15  C5    D T 401       3.888  11.362   3.297  1.00 27.96     0.031 A 
HETATM   16  F29   D T 401       1.824  10.777   2.308  1.00 36.08    -0.204 F 
HETATM   17  C6    D T 401       5.081  12.067   3.249  1.00 30.63     0.021 A 
HETATM   18  N24   D T 401       6.475  13.692   1.782  1.00 22.38    -0.208 NA
HETATM   19  O27   D T 401       7.072  15.037   0.061  1.00 24.04    -0.265 OA
ENDBRANCH   5   8
BRANCH   6  20
HETATM   20  C22   D T 401       5.783  17.487  -4.774  1.00 30.01     0.276 C 
HETATM   21  N25   D T 401       7.103  18.016  -4.984  1.00 32.50    -0.232 NA
HETATM   22  O28   D T 401       4.780  18.045  -5.253  1.00 32.52    -0.266 OA
BRANCH  21  23
HETATM   23  C37   D T 401       7.328  19.213  -5.767  1.00 43.36     0.164 C 
BRANCH  23  24
HETATM   24  C38   D T 401       7.428  19.071  -7.273  1.00 41.32     0.276 C 
BRANCH  24  25
HETATM   25  N4    D T 401       8.618  18.424  -7.830  1.00 49.47     0.139 N 
BRANCH  25  26
HETATM   26  C39   D T 401       8.321  16.995  -8.098  1.00 47.52     0.250 C 
HETATM   27  C42   D T 401       9.447  16.038  -8.136  1.00 42.88     0.037 C 
ENDBRANCH  25  26
BRANCH  25  28
HETATM   28  C40   D T 401       9.783  18.569  -6.961  1.00 47.71     0.250 C 
HETATM   29  C41   D T 401      10.911  19.454  -7.399  1.00 49.11     0.037 C 
ENDBRANCH  25  28
ENDBRANCH  24  25
ENDBRANCH  23  24
ENDBRANCH  21  23
ENDBRANCH   6  20
TORSDOF 7
ENDMDL
