MODEL 1
REMARK VINA RESULT:    -8.592      0.000      0.000
REMARK INTER + INTRA:         -13.003
REMARK INTER:                 -12.109
REMARK INTRA:                  -0.894
REMARK UNBOUND:                -0.894
REMARK  7 active torsions:
REMARK  status: ('A' for Active; 'I' for Inactive)
REMARK    1  A    between atoms: C22_10  and  C19_16 
REMARK       I    between atoms: C22_10  and  N25_19 
REMARK    2  A    between atoms: C12_12  and  C18_15 
REMARK    3  A    between atoms: N25_19  and  C37_23 
REMARK    4  A    between atoms: C37_23  and  C38_24 
REMARK    5  A    between atoms: C38_24  and  N4_25 
REMARK    6  A    between atoms: N4_25  and  C39_26 
REMARK    7  A    between atoms: N4_25  and  C40_27 
ROOT
HETATM    1  C4    D T 401      -6.171  -3.381   8.567  1.00 25.65     0.052 C 
HETATM    2  C13   D T 401      -3.629  -3.724  11.293  1.00 28.91     0.002 A 
HETATM    3  C3    D T 401      -2.568  -3.246  12.273  1.00 31.15     0.033 C 
HETATM    4  C14   D T 401      -5.196  -3.769   9.668  1.00 29.63     0.064 A 
HETATM    5  C18   D T 401      -4.087  -5.020  11.133  1.00 27.57     0.077 A 
HETATM    6  C19   D T 401      -4.339  -2.917  10.350  1.00 27.94     0.069 A 
HETATM    7  N23   D T 401      -5.026  -5.019  10.159  1.00 23.32    -0.250 NA
ENDROOT
BRANCH   5   8
HETATM    8  C12   D T 401      -3.618  -6.199  11.899  1.00 27.08     0.024 C 
HETATM    9  C20   D T 401      -2.655  -7.104  11.468  1.00 23.71     0.061 A 
HETATM   10  C17   D T 401      -2.504  -8.403  12.076  1.00 26.90     0.025 A 
HETATM   11  C21   D T 401      -1.682  -7.013  10.467  1.00 23.79     0.279 A 
HETATM   12  C7    D T 401      -3.201  -9.048  13.127  1.00 28.25     0.031 A 
HETATM   13  C16   D T 401      -1.471  -9.044  11.426  1.00 23.25     0.085 A 
HETATM   14  C15   D T 401      -2.827 -10.364  13.507  1.00 30.52     0.140 A 
HETATM   15  C5    D T 401      -1.774 -11.018  12.852  1.00 27.96     0.031 A 
HETATM   16  F29   D T 401      -3.474 -10.986  14.492  1.00 36.08    -0.204 F 
HETATM   17  C6    D T 401      -1.087 -10.384  11.828  1.00 30.63     0.021 A 
HETATM   18  N24   D T 401      -0.975  -8.187  10.453  1.00 22.38    -0.208 NA
HETATM   19  O27   D T 401      -1.446  -6.093   9.728  1.00 24.04    -0.265 OA
ENDBRANCH   5   8
BRANCH   6  20
HETATM   20  C22   D T 401      -4.185  -1.398  10.151  1.00 30.01     0.276 C 
HETATM   21  N25   D T 401      -5.344  -0.558  10.282  1.00 32.50    -0.232 NA
HETATM   22  O28   D T 401      -3.071  -0.922   9.873  1.00 32.52    -0.266 OA
BRANCH  21  23
HETATM   23  C37   D T 401      -5.268   0.877  10.106  1.00 43.36     0.164 C 
BRANCH  23  24
HETATM   24  C38   D T 401      -5.171   1.416   8.693  1.00 41.32     0.276 C 
BRANCH  24  25
HETATM   25  N4    D T 401      -4.191   2.468   8.418  1.00 49.47     0.139 N 
BRANCH  25  26
HETATM   26  C39   D T 401      -3.215   2.535   9.535  1.00 47.52     0.250 C 
HETATM   27  C42   D T 401      -1.788   2.290   9.237  1.00 42.88     0.037 C 
ENDBRANCH  25  26
BRANCH  25  28
HETATM   28  C40   D T 401      -4.823   3.764   8.187  1.00 47.71     0.250 C 
HETATM   29  C41   D T 401      -5.595   3.981   6.920  1.00 49.11     0.037 C 
ENDBRANCH  25  28
ENDBRANCH  24  25
ENDBRANCH  23  24
ENDBRANCH  21  23
ENDBRANCH   6  20
TORSDOF 7
ENDMDL
MODEL 2
REMARK VINA RESULT:    -8.544      3.289      9.953
REMARK INTER + INTRA:         -12.934
REMARK INTER:                 -12.110
REMARK INTRA:                  -0.825
REMARK UNBOUND:                -0.894
REMARK  7 active torsions:
REMARK  status: ('A' for Active; 'I' for Inactive)
REMARK    1  A    between atoms: C22_10  and  C19_16 
REMARK       I    between atoms: C22_10  and  N25_19 
REMARK    2  A    between atoms: C12_12  and  C18_15 
REMARK    3  A    between atoms: N25_19  and  C37_23 
REMARK    4  A    between atoms: C37_23  and  C38_24 
REMARK    5  A    between atoms: C38_24  and  N4_25 
REMARK    6  A    between atoms: N4_25  and  C39_26 
REMARK    7  A    between atoms: N4_25  and  C40_27 
ROOT
HETATM    1  C4    D T 401      -3.770  -8.492  12.347  1.00 25.65     0.052 C 
HETATM    2  C13   D T 401      -1.911  -5.417  11.296  1.00 28.91     0.002 A 
HETATM    3  C3    D T 401      -0.706  -4.608  10.841  1.00 31.15     0.033 C 
HETATM    4  C14   D T 401      -3.236  -7.121  11.958  1.00 29.63     0.064 A 
HETATM    5  C18   D T 401      -3.190  -4.940  11.530  1.00 27.57     0.077 A 
HETATM    6  C19   D T 401      -1.938  -6.820  11.571  1.00 27.94     0.069 A 
HETATM    7  N23   D T 401      -3.963  -5.980  11.921  1.00 23.32    -0.250 NA
ENDROOT
BRANCH   5   8
HETATM    8  C12   D T 401      -3.623  -3.531  11.381  1.00 27.08     0.024 C 
HETATM    9  C20   D T 401      -4.420  -3.042  10.351  1.00 23.71     0.061 A 
HETATM   10  C17   D T 401      -4.507  -1.632  10.060  1.00 26.90     0.025 A 
HETATM   11  C21   D T 401      -5.261  -3.694   9.444  1.00 23.79     0.279 A 
HETATM   12  C7    D T 401      -3.885  -0.500  10.642  1.00 28.25     0.031 A 
HETATM   13  C16   D T 401      -5.374  -1.485   8.998  1.00 23.25     0.085 A 
HETATM   14  C15   D T 401      -4.161   0.791  10.120  1.00 30.52     0.140 A 
HETATM   15  C5    D T 401      -5.045   0.947   9.043  1.00 27.96     0.031 A 
HETATM   16  F29   D T 401      -3.582   1.866  10.654  1.00 36.08    -0.204 F 
HETATM   17  C6    D T 401      -5.660  -0.161   8.478  1.00 30.63     0.021 A 
HETATM   18  N24   D T 401      -5.831  -2.745   8.634  1.00 22.38    -0.208 NA
HETATM   19  O27   D T 401      -5.498  -4.869   9.347  1.00 24.04    -0.265 OA
ENDBRANCH   5   8
BRANCH   6  20
HETATM   20  C22   D T 401      -0.754  -7.796  11.447  1.00 30.01     0.276 C 
HETATM   21  N25   D T 401      -0.964  -9.066  10.807  1.00 32.50    -0.232 NA
HETATM   22  O28   D T 401       0.357  -7.480  11.906  1.00 32.52    -0.266 OA
BRANCH  21  23
HETATM   23  C37   D T 401       0.106 -10.029  10.659  1.00 43.36     0.164 C 
BRANCH  23  24
HETATM   24  C38   D T 401       0.203 -11.148  11.677  1.00 41.32     0.276 C 
BRANCH  24  25
HETATM   25  N4    D T 401      -0.995 -11.493  12.445  1.00 49.47     0.139 N 
BRANCH  25  26
HETATM   26  C39   D T 401      -0.756 -11.212  13.883  1.00 47.52     0.250 C 
HETATM   27  C42   D T 401      -1.120  -9.879  14.408  1.00 42.88     0.037 C 
ENDBRANCH  25  26
BRANCH  25  28
HETATM   28  C40   D T 401      -1.403 -12.879  12.236  1.00 47.71     0.250 C 
HETATM   29  C41   D T 401      -1.336 -13.457  10.854  1.00 49.11     0.037 C 
ENDBRANCH  25  28
ENDBRANCH  24  25
ENDBRANCH  23  24
ENDBRANCH  21  23
ENDBRANCH   6  20
TORSDOF 7
ENDMDL
MODEL 3
REMARK VINA RESULT:    -8.422      4.838      7.501
REMARK INTER + INTRA:         -12.763
REMARK INTER:                 -11.666
REMARK INTRA:                  -1.097
REMARK UNBOUND:                -0.894
REMARK  7 active torsions:
REMARK  status: ('A' for Active; 'I' for Inactive)
REMARK    1  A    between atoms: C22_10  and  C19_16 
REMARK       I    between atoms: C22_10  and  N25_19 
REMARK    2  A    between atoms: C12_12  and  C18_15 
REMARK    3  A    between atoms: N25_19  and  C37_23 
REMARK    4  A    between atoms: C37_23  and  C38_24 
REMARK    5  A    between atoms: C38_24  and  N4_25 
REMARK    6  A    between atoms: N4_25  and  C39_26 
REMARK    7  A    between atoms: N4_25  and  C40_27 
ROOT
HETATM    1  C4    D T 401       0.403   3.215  12.174  1.00 25.65     0.052 C 
HETATM    2  C13   D T 401      -0.156   0.029  10.290  1.00 28.91     0.002 A 
HETATM    3  C3    D T 401       0.225  -1.149   9.406  1.00 31.15     0.033 C 
HETATM    4  C14   D T 401      -0.065   1.939  11.490  1.00 29.63     0.064 A 
HETATM    5  C18   D T 401      -1.400   0.284  10.842  1.00 27.57     0.077 A 
HETATM    6  C19   D T 401       0.704   1.093  10.704  1.00 27.94     0.069 A 
HETATM    7  N23   D T 401      -1.317   1.430  11.558  1.00 23.32    -0.250 NA
ENDROOT
BRANCH   5   8
HETATM    8  C12   D T 401      -2.607  -0.557  10.668  1.00 27.08     0.024 C 
HETATM    9  C20   D T 401      -2.730  -1.880  11.079  1.00 23.71     0.061 A 
HETATM   10  C17   D T 401      -3.768  -2.742  10.571  1.00 26.90     0.025 A 
HETATM   11  C21   D T 401      -1.988  -2.636  11.992  1.00 23.79     0.279 A 
HETATM   12  C7    D T 401      -4.805  -2.530   9.630  1.00 28.25     0.031 A 
HETATM   13  C16   D T 401      -3.613  -3.972  11.175  1.00 23.25     0.085 A 
HETATM   14  C15   D T 401      -5.687  -3.597   9.313  1.00 30.52     0.140 A 
HETATM   15  C5    D T 401      -5.537  -4.847   9.928  1.00 27.96     0.031 A 
HETATM   16  F29   D T 401      -6.667  -3.415   8.428  1.00 36.08    -0.204 F 
HETATM   17  C6    D T 401      -4.526  -5.053  10.854  1.00 30.63     0.021 A 
HETATM   18  N24   D T 401      -2.531  -3.895  12.042  1.00 22.38    -0.208 NA
HETATM   19  O27   D T 401      -1.044  -2.300  12.657  1.00 24.04    -0.265 OA
ENDBRANCH   5   8
BRANCH   6  20
HETATM   20  C22   D T 401       2.195   1.250  10.351  1.00 30.01     0.276 C 
HETATM   21  N25   D T 401       2.562   1.513   8.987  1.00 32.50    -0.232 NA
HETATM   22  O28   D T 401       3.055   1.138  11.242  1.00 32.52    -0.266 OA
BRANCH  21  23
HETATM   23  C37   D T 401       3.945   1.670   8.588  1.00 43.36     0.164 C 
BRANCH  23  24
HETATM   24  C38   D T 401       4.350   2.968   7.919  1.00 41.32     0.276 C 
BRANCH  24  25
HETATM   25  N4    D T 401       4.269   4.205   8.698  1.00 49.47     0.139 N 
BRANCH  25  26
HETATM   26  C39   D T 401       4.747   5.340   7.870  1.00 47.52     0.250 C 
HETATM   27  C42   D T 401       3.748   6.131   7.120  1.00 42.88     0.037 C 
ENDBRANCH  25  26
BRANCH  25  28
HETATM   28  C40   D T 401       5.011   4.115   9.953  1.00 47.71     0.250 C 
HETATM   29  C41   D T 401       4.282   4.335  11.245  1.00 49.11     0.037 C 
ENDBRANCH  25  28
ENDBRANCH  24  25
ENDBRANCH  23  24
ENDBRANCH  21  23
ENDBRANCH   6  20
TORSDOF 7
ENDMDL
MODEL 4
REMARK VINA RESULT:    -8.249      3.543     10.469
REMARK INTER + INTRA:         -12.519
REMARK INTER:                 -11.710
REMARK INTRA:                  -0.809
REMARK UNBOUND:                -0.894
REMARK  7 active torsions:
REMARK  status: ('A' for Active; 'I' for Inactive)
REMARK    1  A    between atoms: C22_10  and  C19_16 
REMARK       I    between atoms: C22_10  and  N25_19 
REMARK    2  A    between atoms: C12_12  and  C18_15 
REMARK    3  A    between atoms: N25_19  and  C37_23 
REMARK    4  A    between atoms: C37_23  and  C38_24 
REMARK    5  A    between atoms: C38_24  and  N4_25 
REMARK    6  A    between atoms: N4_25  and  C39_26 
REMARK    7  A    between atoms: N4_25  and  C40_27 
ROOT
HETATM    1  C4    D T 401       1.248  -8.145  12.727  1.00 25.65     0.052 C 
HETATM    2  C13   D T 401      -2.467  -7.903  12.340  1.00 28.91     0.002 A 
HETATM    3  C3    D T 401      -3.919  -8.291  12.580  1.00 31.15     0.033 C 
HETATM    4  C14   D T 401      -0.212  -7.855  12.409  1.00 29.63     0.064 A 
HETATM    5  C18   D T 401      -2.005  -6.883  11.526  1.00 27.57     0.077 A 
HETATM    6  C19   D T 401      -1.315  -8.531  12.908  1.00 27.94     0.069 A 
HETATM    7  N23   D T 401      -0.653  -6.873  11.588  1.00 23.32    -0.250 NA
ENDROOT
BRANCH   5   8
HETATM    8  C12   D T 401      -2.853  -5.970  10.725  1.00 27.08     0.024 C 
HETATM    9  C20   D T 401      -3.022  -4.611  10.969  1.00 23.71     0.061 A 
HETATM   10  C17   D T 401      -4.115  -3.865  10.397  1.00 26.90     0.025 A 
HETATM   11  C21   D T 401      -2.268  -3.707  11.723  1.00 23.79     0.279 A 
HETATM   12  C7    D T 401      -5.189  -4.245   9.555  1.00 28.25     0.031 A 
HETATM   13  C16   D T 401      -3.992  -2.561  10.828  1.00 23.25     0.085 A 
HETATM   14  C15   D T 401      -6.141  -3.270   9.157  1.00 30.52     0.140 A 
HETATM   15  C5    D T 401      -6.018  -1.942   9.588  1.00 27.96     0.031 A 
HETATM   16  F29   D T 401      -7.160  -3.611   8.368  1.00 36.08    -0.204 F 
HETATM   17  C6    D T 401      -4.963  -1.568  10.407  1.00 30.63     0.021 A 
HETATM   18  N24   D T 401      -2.862  -2.475  11.629  1.00 22.38    -0.208 NA
HETATM   19  O27   D T 401      -1.262  -3.906  12.352  1.00 24.04    -0.265 OA
ENDBRANCH   5   8
BRANCH   6  20
HETATM   20  C22   D T 401      -1.315  -9.715  13.892  1.00 30.01     0.276 C 
HETATM   21  N25   D T 401      -1.558 -11.039  13.386  1.00 32.50    -0.232 NA
HETATM   22  O28   D T 401      -1.116  -9.513  15.102  1.00 32.52    -0.266 OA
BRANCH  21  23
HETATM   23  C37   D T 401      -1.573 -12.195  14.257  1.00 43.36     0.164 C 
BRANCH  23  24
HETATM   24  C38   D T 401      -2.228 -13.463  13.746  1.00 41.32     0.276 C 
BRANCH  24  25
HETATM   25  N4    D T 401      -2.659 -13.506  12.347  1.00 49.47     0.139 N 
BRANCH  25  26
HETATM   26  C39   D T 401      -3.888 -14.331  12.236  1.00 47.52     0.250 C 
HETATM   27  C42   D T 401      -5.179 -13.643  12.027  1.00 42.88     0.037 C 
ENDBRANCH  25  26
BRANCH  25  28
HETATM   28  C40   D T 401      -1.608 -13.999  11.462  1.00 47.71     0.250 C 
HETATM   29  C41   D T 401      -1.989 -14.586  10.136  1.00 49.11     0.037 C 
ENDBRANCH  25  28
ENDBRANCH  24  25
ENDBRANCH  23  24
ENDBRANCH  21  23
ENDBRANCH   6  20
TORSDOF 7
ENDMDL
MODEL 5
REMARK VINA RESULT:    -8.176      5.408      8.955
REMARK INTER + INTRA:         -12.415
REMARK INTER:                 -10.962
REMARK INTRA:                  -1.453
REMARK UNBOUND:                -0.894
REMARK  7 active torsions:
REMARK  status: ('A' for Active; 'I' for Inactive)
REMARK    1  A    between atoms: C22_10  and  C19_16 
REMARK       I    between atoms: C22_10  and  N25_19 
REMARK    2  A    between atoms: C12_12  and  C18_15 
REMARK    3  A    between atoms: N25_19  and  C37_23 
REMARK    4  A    between atoms: C37_23  and  C38_24 
REMARK    5  A    between atoms: C38_24  and  N4_25 
REMARK    6  A    between atoms: N4_25  and  C39_26 
REMARK    7  A    between atoms: N4_25  and  C40_27 
ROOT
HETATM    1  C4    D T 401       0.456   3.715  13.393  1.00 25.65     0.052 C 
HETATM    2  C13   D T 401       0.361   1.595  10.309  1.00 28.91     0.002 A 
HETATM    3  C3    D T 401       0.847   1.071   8.966  1.00 31.15     0.033 C 
HETATM    4  C14   D T 401       0.199   2.761  12.235  1.00 29.63     0.064 A 
HETATM    5  C18   D T 401      -0.777   1.199  10.991  1.00 27.57     0.077 A 
HETATM    6  C19   D T 401       0.990   2.601  11.107  1.00 27.94     0.069 A 
HETATM    7  N23   D T 401      -0.848   1.909  12.142  1.00 23.32    -0.250 NA
ENDROOT
BRANCH   5   8
HETATM    8  C12   D T 401      -1.746   0.178  10.528  1.00 27.08     0.024 C 
HETATM    9  C20   D T 401      -3.008   0.446  10.009  1.00 23.71     0.061 A 
HETATM   10  C17   D T 401      -4.025  -0.571   9.918  1.00 26.90     0.025 A 
HETATM   11  C21   D T 401      -3.561   1.618   9.485  1.00 23.79     0.279 A 
HETATM   12  C7    D T 401      -4.041  -1.938  10.290  1.00 28.25     0.031 A 
HETATM   13  C16   D T 401      -5.143   0.015   9.362  1.00 23.25     0.085 A 
HETATM   14  C15   D T 401      -5.220  -2.702  10.086  1.00 30.52     0.140 A 
HETATM   15  C5    D T 401      -6.357  -2.113   9.517  1.00 27.96     0.031 A 
HETATM   16  F29   D T 401      -5.252  -3.989  10.434  1.00 36.08    -0.204 F 
HETATM   17  C6    D T 401      -6.340  -0.777   9.146  1.00 30.63     0.021 A 
HETATM   18  N24   D T 401      -4.848   1.345   9.098  1.00 22.38    -0.208 NA
HETATM   19  O27   D T 401      -3.051   2.700   9.355  1.00 24.04    -0.265 OA
ENDBRANCH   5   8
BRANCH   6  20
HETATM   20  C22   D T 401       2.297   3.343  10.774  1.00 30.01     0.276 C 
HETATM   21  N25   D T 401       3.520   2.908  11.391  1.00 32.50    -0.232 NA
HETATM   22  O28   D T 401       2.277   4.307   9.989  1.00 32.52    -0.266 OA
BRANCH  21  23
HETATM   23  C37   D T 401       4.783   3.564  11.122  1.00 43.36     0.164 C 
BRANCH  23  24
HETATM   24  C38   D T 401       5.758   2.875  10.188  1.00 41.32     0.276 C 
BRANCH  24  25
HETATM   25  N4    D T 401       5.688   3.187   8.759  1.00 49.47     0.139 N 
BRANCH  25  26
HETATM   26  C39   D T 401       5.515   4.652   8.584  1.00 47.52     0.250 C 
HETATM   27  C42   D T 401       4.631   5.130   7.501  1.00 42.88     0.037 C 
ENDBRANCH  25  26
BRANCH  25  28
HETATM   28  C40   D T 401       4.628   2.444   8.084  1.00 47.71     0.250 C 
HETATM   29  C41   D T 401       4.513   0.967   8.319  1.00 49.11     0.037 C 
ENDBRANCH  25  28
ENDBRANCH  24  25
ENDBRANCH  23  24
ENDBRANCH  21  23
ENDBRANCH   6  20
TORSDOF 7
ENDMDL
MODEL 6
REMARK VINA RESULT:    -8.142      2.023      2.611
REMARK INTER + INTRA:         -12.367
REMARK INTER:                 -11.220
REMARK INTRA:                  -1.147
REMARK UNBOUND:                -0.894
REMARK  7 active torsions:
REMARK  status: ('A' for Active; 'I' for Inactive)
REMARK    1  A    between atoms: C22_10  and  C19_16 
REMARK       I    between atoms: C22_10  and  N25_19 
REMARK    2  A    between atoms: C12_12  and  C18_15 
REMARK    3  A    between atoms: N25_19  and  C37_23 
REMARK    4  A    between atoms: C37_23  and  C38_24 
REMARK    5  A    between atoms: C38_24  and  N4_25 
REMARK    6  A    between atoms: N4_25  and  C39_26 
REMARK    7  A    between atoms: N4_25  and  C40_27 
ROOT
HETATM    1  C4    D T 401      -6.051  -3.679   8.926  1.00 25.65     0.052 C 
HETATM    2  C13   D T 401      -3.026  -4.767  10.845  1.00 28.91     0.002 A 
HETATM    3  C3    D T 401      -1.837  -4.599  11.778  1.00 31.15     0.033 C 
HETATM    4  C14   D T 401      -4.862  -4.349   9.599  1.00 29.63     0.064 A 
HETATM    5  C18   D T 401      -3.415  -5.927  10.196  1.00 27.57     0.077 A 
HETATM    6  C19   D T 401      -3.955  -3.750  10.461  1.00 27.94     0.069 A 
HETATM    7  N23   D T 401      -4.517  -5.651   9.462  1.00 23.32    -0.250 NA
ENDROOT
BRANCH   5   8
HETATM    8  C12   D T 401      -2.730  -7.237  10.294  1.00 27.08     0.024 C 
HETATM    9  C20   D T 401      -2.781  -8.089  11.392  1.00 23.71     0.061 A 
HETATM   10  C17   D T 401      -1.826  -9.154  11.574  1.00 26.90     0.025 A 
HETATM   11  C21   D T 401      -3.666  -8.152  12.473  1.00 23.79     0.279 A 
HETATM   12  C7    D T 401      -0.710  -9.573  10.809  1.00 28.25     0.031 A 
HETATM   13  C16   D T 401      -2.155  -9.804  12.745  1.00 23.25     0.085 A 
HETATM   14  C15   D T 401       0.069 -10.671  11.258  1.00 30.52     0.140 A 
HETATM   15  C5    D T 401      -0.264 -11.339  12.444  1.00 27.96     0.031 A 
HETATM   16  F29   D T 401       1.124 -11.077  10.551  1.00 36.08    -0.204 F 
HETATM   17  C6    D T 401      -1.360 -10.934  13.190  1.00 30.63     0.021 A 
HETATM   18  N24   D T 401      -3.279  -9.190  13.280  1.00 22.38    -0.208 NA
HETATM   19  O27   D T 401      -4.623  -7.460  12.704  1.00 24.04    -0.265 OA
ENDBRANCH   5   8
BRANCH   6  20
HETATM   20  C22   D T 401      -3.947  -2.284  10.931  1.00 30.01     0.276 C 
HETATM   21  N25   D T 401      -2.859  -1.433  10.533  1.00 32.50    -0.232 NA
HETATM   22  O28   D T 401      -4.869  -1.861  11.650  1.00 32.52    -0.266 OA
BRANCH  21  23
HETATM   23  C37   D T 401      -2.790  -0.045  10.942  1.00 43.36     0.164 C 
BRANCH  23  24
HETATM   24  C38   D T 401      -3.771   0.929  10.321  1.00 41.32     0.276 C 
BRANCH  24  25
HETATM   25  N4    D T 401      -3.653   1.215   8.890  1.00 49.47     0.139 N 
BRANCH  25  26
HETATM   26  C39   D T 401      -3.360   2.658   8.699  1.00 47.52     0.250 C 
HETATM   27  C42   D T 401      -4.495   3.588   8.522  1.00 42.88     0.037 C 
ENDBRANCH  25  26
BRANCH  25  28
HETATM   28  C40   D T 401      -4.844   0.813   8.148  1.00 47.71     0.250 C 
HETATM   29  C41   D T 401      -5.976   0.163   8.886  1.00 49.11     0.037 C 
ENDBRANCH  25  28
ENDBRANCH  24  25
ENDBRANCH  23  24
ENDBRANCH  21  23
ENDBRANCH   6  20
TORSDOF 7
ENDMDL
MODEL 7
REMARK VINA RESULT:    -8.008      5.308      7.939
REMARK INTER + INTRA:         -12.179
REMARK INTER:                 -11.053
REMARK INTRA:                  -1.126
REMARK UNBOUND:                -0.894
REMARK  7 active torsions:
REMARK  status: ('A' for Active; 'I' for Inactive)
REMARK    1  A    between atoms: C22_10  and  C19_16 
REMARK       I    between atoms: C22_10  and  N25_19 
REMARK    2  A    between atoms: C12_12  and  C18_15 
REMARK    3  A    between atoms: N25_19  and  C37_23 
REMARK    4  A    between atoms: C37_23  and  C38_24 
REMARK    5  A    between atoms: C38_24  and  N4_25 
REMARK    6  A    between atoms: N4_25  and  C39_26 
REMARK    7  A    between atoms: N4_25  and  C40_27 
ROOT
HETATM    1  C4    D T 401       0.332   3.246  12.393  1.00 25.65     0.052 C 
HETATM    2  C13   D T 401      -0.154   0.090  10.440  1.00 28.91     0.002 A 
HETATM    3  C3    D T 401       0.260  -1.071   9.547  1.00 31.15     0.033 C 
HETATM    4  C14   D T 401      -0.109   1.980  11.674  1.00 29.63     0.064 A 
HETATM    5  C18   D T 401      -1.415   0.329  10.959  1.00 27.57     0.077 A 
HETATM    6  C19   D T 401       0.688   1.152  10.897  1.00 27.94     0.069 A 
HETATM    7  N23   D T 401      -1.359   1.463  11.697  1.00 23.32    -0.250 NA
ENDROOT
BRANCH   5   8
HETATM    8  C12   D T 401      -2.612  -0.515  10.735  1.00 27.08     0.024 C 
HETATM    9  C20   D T 401      -2.735  -1.848  11.112  1.00 23.71     0.061 A 
HETATM   10  C17   D T 401      -3.754  -2.705  10.559  1.00 26.90     0.025 A 
HETATM   11  C21   D T 401      -2.012  -2.621  12.026  1.00 23.79     0.279 A 
HETATM   12  C7    D T 401      -4.769  -2.477   9.597  1.00 28.25     0.031 A 
HETATM   13  C16   D T 401      -3.606  -3.947  11.138  1.00 23.25     0.085 A 
HETATM   14  C15   D T 401      -5.635  -3.541   9.234  1.00 30.52     0.140 A 
HETATM   15  C5    D T 401      -5.492  -4.805   9.823  1.00 27.96     0.031 A 
HETATM   16  F29   D T 401      -6.594  -3.345   8.328  1.00 36.08    -0.204 F 
HETATM   17  C6    D T 401      -4.503  -5.027  10.770  1.00 30.63     0.021 A 
HETATM   18  N24   D T 401      -2.547  -3.883  12.033  1.00 22.38    -0.208 NA
HETATM   19  O27   D T 401      -1.086  -2.295  12.722  1.00 24.04    -0.265 OA
ENDBRANCH   5   8
BRANCH   6  20
HETATM   20  C22   D T 401       2.187   1.322  10.591  1.00 30.01     0.276 C 
HETATM   21  N25   D T 401       3.142   1.081  11.637  1.00 32.50    -0.232 NA
HETATM   22  O28   D T 401       2.549   1.675   9.455  1.00 32.52    -0.266 OA
BRANCH  21  23
HETATM   23  C37   D T 401       4.566   1.225  11.416  1.00 43.36     0.164 C 
BRANCH  23  24
HETATM   24  C38   D T 401       5.422  -0.025  11.450  1.00 41.32     0.276 C 
BRANCH  24  25
HETATM   25  N4    D T 401       5.724  -0.693  10.183  1.00 49.47     0.139 N 
BRANCH  25  26
HETATM   26  C39   D T 401       6.243   0.304   9.213  1.00 47.52     0.250 C 
HETATM   27  C42   D T 401       6.581  -0.154   7.848  1.00 42.88     0.037 C 
ENDBRANCH  25  26
BRANCH  25  28
HETATM   28  C40   D T 401       4.568  -1.404   9.645  1.00 47.71     0.250 C 
HETATM   29  C41   D T 401       4.530  -2.901   9.731  1.00 49.11     0.037 C 
ENDBRANCH  25  28
ENDBRANCH  24  25
ENDBRANCH  23  24
ENDBRANCH  21  23
ENDBRANCH   6  20
TORSDOF 7
ENDMDL
MODEL 8
REMARK VINA RESULT:    -7.641      3.672      9.847
REMARK INTER + INTRA:         -11.662
REMARK INTER:                 -11.005
REMARK INTRA:                  -0.657
REMARK UNBOUND:                -0.894
REMARK  7 active torsions:
REMARK  status: ('A' for Active; 'I' for Inactive)
REMARK    1  A    between atoms: C22_10  and  C19_16 
REMARK       I    between atoms: C22_10  and  N25_19 
REMARK    2  A    between atoms: C12_12  and  C18_15 
REMARK    3  A    between atoms: N25_19  and  C37_23 
REMARK    4  A    between atoms: C37_23  and  C38_24 
REMARK    5  A    between atoms: C38_24  and  N4_25 
REMARK    6  A    between atoms: N4_25  and  C39_26 
REMARK    7  A    between atoms: N4_25  and  C40_27 
ROOT
HETATM    1  C4    D T 401      -3.834  -8.469  12.259  1.00 25.65     0.052 C 
HETATM    2  C13   D T 401      -1.963  -5.347  11.385  1.00 28.91     0.002 A 
HETATM    3  C3    D T 401      -0.745  -4.512  11.020  1.00 31.15     0.033 C 
HETATM    4  C14   D T 401      -3.299  -7.083  11.931  1.00 29.63     0.064 A 
HETATM    5  C18   D T 401      -3.260  -4.893  11.553  1.00 27.57     0.077 A 
HETATM    6  C19   D T 401      -1.985  -6.756  11.629  1.00 27.94     0.069 A 
HETATM    7  N23   D T 401      -4.039  -5.952  11.875  1.00 23.32    -0.250 NA
ENDROOT
BRANCH   5   8
HETATM    8  C12   D T 401      -3.705  -3.487  11.408  1.00 27.08     0.024 C 
HETATM    9  C20   D T 401      -4.487  -2.996  10.369  1.00 23.71     0.061 A 
HETATM   10  C17   D T 401      -4.583  -1.585  10.088  1.00 26.90     0.025 A 
HETATM   11  C21   D T 401      -5.304  -3.648   9.440  1.00 23.79     0.279 A 
HETATM   12  C7    D T 401      -3.983  -0.452  10.691  1.00 28.25     0.031 A 
HETATM   13  C16   D T 401      -5.430  -1.437   9.011  1.00 23.25     0.085 A 
HETATM   14  C15   D T 401      -4.262   0.840  10.176  1.00 30.52     0.140 A 
HETATM   15  C5    D T 401      -5.127   0.997   9.084  1.00 27.96     0.031 A 
HETATM   16  F29   D T 401      -3.704   1.917  10.730  1.00 36.08    -0.204 F 
HETATM   17  C6    D T 401      -5.720  -0.111   8.498  1.00 30.63     0.021 A 
HETATM   18  N24   D T 401      -5.868  -2.698   8.628  1.00 22.38    -0.208 NA
HETATM   19  O27   D T 401      -5.528  -4.825   9.328  1.00 24.04    -0.265 OA
ENDBRANCH   5   8
BRANCH   6  20
HETATM   20  C22   D T 401      -0.781  -7.713  11.554  1.00 30.01     0.276 C 
HETATM   21  N25   D T 401       0.246  -7.618  12.555  1.00 32.50    -0.232 NA
HETATM   22  O28   D T 401      -0.708  -8.542  10.630  1.00 32.52    -0.266 OA
BRANCH  21  23
HETATM   23  C37   D T 401       1.404  -8.486  12.541  1.00 43.36     0.164 C 
BRANCH  23  24
HETATM   24  C38   D T 401       1.523  -9.532  13.632  1.00 41.32     0.276 C 
BRANCH  24  25
HETATM   25  N4    D T 401       1.270  -9.124  15.015  1.00 49.47     0.139 N 
BRANCH  25  26
HETATM   26  C39   D T 401       2.112  -9.935  15.929  1.00 47.52     0.250 C 
HETATM   27  C42   D T 401       3.019  -9.231  16.859  1.00 42.88     0.037 C 
ENDBRANCH  25  26
BRANCH  25  28
HETATM   28  C40   D T 401      -0.143  -9.223  15.368  1.00 47.71     0.250 C 
HETATM   29  C41   D T 401      -0.546 -10.097  16.518  1.00 49.11     0.037 C 
ENDBRANCH  25  28
ENDBRANCH  24  25
ENDBRANCH  23  24
ENDBRANCH  21  23
ENDBRANCH   6  20
TORSDOF 7
ENDMDL
MODEL 9
REMARK VINA RESULT:    -7.602      4.097      9.400
REMARK INTER + INTRA:         -11.606
REMARK INTER:                 -10.789
REMARK INTRA:                  -0.818
REMARK UNBOUND:                -0.894
REMARK  7 active torsions:
REMARK  status: ('A' for Active; 'I' for Inactive)
REMARK    1  A    between atoms: C22_10  and  C19_16 
REMARK       I    between atoms: C22_10  and  N25_19 
REMARK    2  A    between atoms: C12_12  and  C18_15 
REMARK    3  A    between atoms: N25_19  and  C37_23 
REMARK    4  A    between atoms: C37_23  and  C38_24 
REMARK    5  A    between atoms: C38_24  and  N4_25 
REMARK    6  A    between atoms: N4_25  and  C39_26 
REMARK    7  A    between atoms: N4_25  and  C40_27 
ROOT
HETATM    1  C4    D T 401      -3.747  -8.717  12.362  1.00 25.65     0.052 C 
HETATM    2  C13   D T 401      -1.893  -5.606  11.415  1.00 28.91     0.002 A 
HETATM    3  C3    D T 401      -0.681  -4.774  11.021  1.00 31.15     0.033 C 
HETATM    4  C14   D T 401      -3.218  -7.335  12.005  1.00 29.63     0.064 A 
HETATM    5  C18   D T 401      -3.189  -5.151  11.592  1.00 27.57     0.077 A 
HETATM    6  C19   D T 401      -1.909  -7.010  11.681  1.00 27.94     0.069 A 
HETATM    7  N23   D T 401      -3.962  -6.206  11.940  1.00 23.32    -0.250 NA
ENDROOT
BRANCH   5   8
HETATM    8  C12   D T 401      -3.639  -3.749  11.430  1.00 27.08     0.024 C 
HETATM    9  C20   D T 401      -4.442  -3.278  10.396  1.00 23.71     0.061 A 
HETATM   10  C17   D T 401      -4.545  -1.873  10.092  1.00 26.90     0.025 A 
HETATM   11  C21   D T 401      -5.276  -3.948   9.495  1.00 23.79     0.279 A 
HETATM   12  C7    D T 401      -3.935  -0.728  10.663  1.00 28.25     0.031 A 
HETATM   13  C16   D T 401      -5.413  -1.745   9.029  1.00 23.25     0.085 A 
HETATM   14  C15   D T 401      -4.226   0.555  10.130  1.00 30.52     0.140 A 
HETATM   15  C5    D T 401      -5.112   0.690   9.052  1.00 27.96     0.031 A 
HETATM   16  F29   D T 401      -3.659   1.642  10.653  1.00 36.08    -0.204 F 
HETATM   17  C6    D T 401      -5.715  -0.429   8.497  1.00 30.63     0.021 A 
HETATM   18  N24   D T 401      -5.856  -3.013   8.677  1.00 22.38    -0.208 NA
HETATM   19  O27   D T 401      -5.499  -5.127   9.410  1.00 24.04    -0.265 OA
ENDBRANCH   5   8
BRANCH   6  20
HETATM   20  C22   D T 401      -0.704  -7.966  11.607  1.00 30.01     0.276 C 
HETATM   21  N25   D T 401       0.221  -8.005  12.707  1.00 32.50    -0.232 NA
HETATM   22  O28   D T 401      -0.542  -8.678  10.601  1.00 32.52    -0.266 OA
BRANCH  21  23
HETATM   23  C37   D T 401       1.375  -8.879  12.699  1.00 43.36     0.164 C 
BRANCH  23  24
HETATM   24  C38   D T 401       2.569  -8.490  13.547  1.00 41.32     0.276 C 
BRANCH  24  25
HETATM   25  N4    D T 401       3.330  -7.298  13.167  1.00 49.47     0.139 N 
BRANCH  25  26
HETATM   26  C39   D T 401       4.696  -7.700  12.748  1.00 47.52     0.250 C 
HETATM   27  C42   D T 401       5.472  -6.772  11.899  1.00 42.88     0.037 C 
ENDBRANCH  25  26
BRANCH  25  28
HETATM   28  C40   D T 401       3.373  -6.307  14.239  1.00 47.71     0.250 C 
HETATM   29  C41   D T 401       4.181  -6.601  15.468  1.00 49.11     0.037 C 
ENDBRANCH  25  28
ENDBRANCH  24  25
ENDBRANCH  23  24
ENDBRANCH  21  23
ENDBRANCH   6  20
TORSDOF 7
ENDMDL
