MODEL 1
REMARK VINA RESULT:    -8.144      0.000      0.000
REMARK INTER + INTRA:         -12.641
REMARK INTER:                 -11.477
REMARK INTRA:                  -1.165
REMARK UNBOUND:                -1.165
REMARK  7 active torsions:
REMARK  status: ('A' for Active; 'I' for Inactive)
REMARK    1  A    between atoms: C22_10  and  C19_16 
REMARK       I    between atoms: C22_10  and  N25_19 
REMARK    2  A    between atoms: C12_12  and  C18_15 
REMARK    3  A    between atoms: N25_19  and  C37_23 
REMARK    4  A    between atoms: C37_23  and  C38_24 
REMARK    5  A    between atoms: C38_24  and  N4_25 
REMARK    6  A    between atoms: N4_25  and  C39_26 
REMARK    7  A    between atoms: N4_25  and  C40_27 
ROOT
HETATM    1  C4    D T 401       8.418   3.663  -0.184  1.00 25.65     0.052 C 
HETATM    2  C13   D T 401       9.635   1.592  -3.055  1.00 28.91     0.002 A 
HETATM    3  C3    D T 401      10.540   0.599  -3.768  1.00 31.15     0.033 C 
HETATM    4  C14   D T 401       8.723   2.929  -1.482  1.00 29.63     0.064 A 
HETATM    5  C18   D T 401       8.548   2.259  -3.594  1.00 27.57     0.077 A 
HETATM    6  C19   D T 401       9.750   2.022  -1.697  1.00 27.94     0.069 A 
HETATM    7  N23   D T 401       8.017   3.049  -2.631  1.00 23.32    -0.250 NA
ENDROOT
BRANCH   5   8
HETATM    8  C12   D T 401       8.062   2.128  -4.988  1.00 27.08     0.024 C 
HETATM    9  C20   D T 401       7.880   3.181  -5.878  1.00 23.71     0.061 A 
HETATM   10  C17   D T 401       7.079   3.044  -7.067  1.00 26.90     0.025 A 
HETATM   11  C21   D T 401       8.376   4.490  -5.873  1.00 23.79     0.279 A 
HETATM   12  C7    D T 401       6.335   1.958  -7.594  1.00 28.25     0.031 A 
HETATM   13  C16   D T 401       7.107   4.256  -7.724  1.00 23.25     0.085 A 
HETATM   14  C15   D T 401       5.618   2.129  -8.807  1.00 30.52     0.140 A 
HETATM   15  C5    D T 401       5.647   3.359  -9.481  1.00 27.96     0.031 A 
HETATM   16  F29   D T 401       4.911   1.120  -9.315  1.00 36.08    -0.204 F 
HETATM   17  C6    D T 401       6.380   4.418  -8.970  1.00 30.63     0.021 A 
HETATM   18  N24   D T 401       7.904   5.126  -6.992  1.00 22.38    -0.208 NA
HETATM   19  O27   D T 401       9.101   5.018  -5.073  1.00 24.04    -0.265 OA
ENDBRANCH   5   8
BRANCH   6  20
HETATM   20  C22   D T 401      10.803   1.553  -0.677  1.00 30.01     0.276 C 
HETATM   21  N25   D T 401      10.379   0.757   0.442  1.00 32.50    -0.232 NA
HETATM   22  O28   D T 401      11.995   1.872  -0.829  1.00 32.52    -0.266 OA
BRANCH  21  23
HETATM   23  C37   D T 401      11.319   0.285   1.438  1.00 43.36     0.164 C 
BRANCH  23  24
HETATM   24  C38   D T 401      11.961  -1.071   1.224  1.00 41.32     0.276 C 
BRANCH  24  25
HETATM   25  N4    D T 401      11.204  -2.092   0.498  1.00 49.47     0.139 N 
BRANCH  25  26
HETATM   26  C39   D T 401      10.819  -3.178   1.434  1.00 47.52     0.250 C 
HETATM   27  C42   D T 401      11.428  -4.512   1.251  1.00 42.88     0.037 C 
ENDBRANCH  25  26
BRANCH  25  28
HETATM   28  C40   D T 401      11.944  -2.618  -0.646  1.00 47.71     0.250 C 
HETATM   29  C41   D T 401      12.552  -1.657  -1.623  1.00 49.11     0.037 C 
ENDBRANCH  25  28
ENDBRANCH  24  25
ENDBRANCH  23  24
ENDBRANCH  21  23
ENDBRANCH   6  20
TORSDOF 7
ENDMDL
MODEL 2
REMARK VINA RESULT:    -8.134      0.589      1.321
REMARK INTER + INTRA:         -12.627
REMARK INTER:                 -11.634
REMARK INTRA:                  -0.993
REMARK UNBOUND:                -1.165
REMARK  7 active torsions:
REMARK  status: ('A' for Active; 'I' for Inactive)
REMARK    1  A    between atoms: C22_10  and  C19_16 
REMARK       I    between atoms: C22_10  and  N25_19 
REMARK    2  A    between atoms: C12_12  and  C18_15 
REMARK    3  A    between atoms: N25_19  and  C37_23 
REMARK    4  A    between atoms: C37_23  and  C38_24 
REMARK    5  A    between atoms: C38_24  and  N4_25 
REMARK    6  A    between atoms: N4_25  and  C39_26 
REMARK    7  A    between atoms: N4_25  and  C40_27 
ROOT
HETATM    1  C4    D T 401       8.750   4.001  -0.344  1.00 25.65     0.052 C 
HETATM    2  C13   D T 401       9.757   1.698  -3.119  1.00 28.91     0.002 A 
HETATM    3  C3    D T 401      10.570   0.602  -3.790  1.00 31.15     0.033 C 
HETATM    4  C14   D T 401       8.977   3.181  -1.606  1.00 29.63     0.064 A 
HETATM    5  C18   D T 401       8.719   2.422  -3.679  1.00 27.57     0.077 A 
HETATM    6  C19   D T 401       9.926   2.185  -1.786  1.00 27.94     0.069 A 
HETATM    7  N23   D T 401       8.266   3.299  -2.752  1.00 23.32    -0.250 NA
ENDROOT
BRANCH   5   8
HETATM    8  C12   D T 401       8.203   2.260  -5.059  1.00 27.08     0.024 C 
HETATM    9  C20   D T 401       7.989   3.295  -5.963  1.00 23.71     0.061 A 
HETATM   10  C17   D T 401       7.162   3.128  -7.131  1.00 26.90     0.025 A 
HETATM   11  C21   D T 401       8.468   4.609  -5.993  1.00 23.79     0.279 A 
HETATM   12  C7    D T 401       6.420   2.024  -7.622  1.00 28.25     0.031 A 
HETATM   13  C16   D T 401       7.161   4.328  -7.810  1.00 23.25     0.085 A 
HETATM   14  C15   D T 401       5.674   2.165  -8.821  1.00 30.52     0.140 A 
HETATM   15  C5    D T 401       5.673   3.382  -9.517  1.00 27.96     0.031 A 
HETATM   16  F29   D T 401       4.968   1.139  -9.295  1.00 36.08    -0.204 F 
HETATM   17  C6    D T 401       6.405   4.459  -9.042  1.00 30.63     0.021 A 
HETATM   18  N24   D T 401       7.964   5.220  -7.112  1.00 22.38    -0.208 NA
HETATM   19  O27   D T 401       9.205   5.160  -5.218  1.00 24.04    -0.265 OA
ENDBRANCH   5   8
BRANCH   6  20
HETATM   20  C22   D T 401      10.954   1.685  -0.755  1.00 30.01     0.276 C 
HETATM   21  N25   D T 401      10.483   1.018   0.428  1.00 32.50    -0.232 NA
HETATM   22  O28   D T 401      12.167   1.871  -0.952  1.00 32.52    -0.266 OA
BRANCH  21  23
HETATM   23  C37   D T 401      11.397   0.524   1.437  1.00 43.36     0.164 C 
BRANCH  23  24
HETATM   24  C38   D T 401      11.320  -0.942   1.812  1.00 41.32     0.276 C 
BRANCH  24  25
HETATM   25  N4    D T 401      12.350  -1.846   1.299  1.00 49.47     0.139 N 
BRANCH  25  26
HETATM   26  C39   D T 401      11.930  -2.373  -0.024  1.00 47.52     0.250 C 
HETATM   27  C42   D T 401      12.467  -1.729  -1.240  1.00 42.88     0.037 C 
ENDBRANCH  25  26
BRANCH  25  28
HETATM   28  C40   D T 401      12.647  -2.930   2.231  1.00 47.71     0.250 C 
HETATM   29  C41   D T 401      12.495  -4.349   1.769  1.00 49.11     0.037 C 
ENDBRANCH  25  28
ENDBRANCH  24  25
ENDBRANCH  23  24
ENDBRANCH  21  23
ENDBRANCH   6  20
TORSDOF 7
ENDMDL
MODEL 3
REMARK VINA RESULT:    -7.948      1.971      2.764
REMARK INTER + INTRA:         -12.365
REMARK INTER:                 -11.339
REMARK INTRA:                  -1.026
REMARK UNBOUND:                -1.165
REMARK  7 active torsions:
REMARK  status: ('A' for Active; 'I' for Inactive)
REMARK    1  A    between atoms: C22_10  and  C19_16 
REMARK       I    between atoms: C22_10  and  N25_19 
REMARK    2  A    between atoms: C12_12  and  C18_15 
REMARK    3  A    between atoms: N25_19  and  C37_23 
REMARK    4  A    between atoms: C37_23  and  C38_24 
REMARK    5  A    between atoms: C38_24  and  N4_25 
REMARK    6  A    between atoms: N4_25  and  C39_26 
REMARK    7  A    between atoms: N4_25  and  C40_27 
ROOT
HETATM    1  C4    D T 401      11.961  -0.344  -3.011  1.00 25.65     0.052 C 
HETATM    2  C13   D T 401       9.431   2.381  -2.577  1.00 28.91     0.002 A 
HETATM    3  C3    D T 401       8.591   3.390  -1.808  1.00 31.15     0.033 C 
HETATM    4  C14   D T 401      10.902   0.746  -3.087  1.00 29.63     0.064 A 
HETATM    5  C18   D T 401       9.414   2.159  -3.943  1.00 27.57     0.077 A 
HETATM    6  C19   D T 401      10.386   1.473  -2.024  1.00 27.94     0.069 A 
HETATM    7  N23   D T 401      10.307   1.179  -4.223  1.00 23.32    -0.250 NA
ENDROOT
BRANCH   5   8
HETATM    8  C12   D T 401       8.559   2.872  -4.922  1.00 27.08     0.024 C 
HETATM    9  C20   D T 401       7.697   2.263  -5.828  1.00 23.71     0.061 A 
HETATM   10  C17   D T 401       7.178   2.966  -6.974  1.00 26.90     0.025 A 
HETATM   11  C21   D T 401       7.152   0.975  -5.862  1.00 23.79     0.279 A 
HETATM   12  C7    D T 401       7.378   4.284  -7.454  1.00 28.25     0.031 A 
HETATM   13  C16   D T 401       6.360   2.090  -7.657  1.00 23.25     0.085 A 
HETATM   14  C15   D T 401       6.728   4.698  -8.645  1.00 30.52     0.140 A 
HETATM   15  C5    D T 401       5.892   3.812  -9.341  1.00 27.96     0.031 A 
HETATM   16  F29   D T 401       6.907   5.933  -9.112  1.00 36.08    -0.204 F 
HETATM   17  C6    D T 401       5.689   2.525  -8.869  1.00 30.63     0.021 A 
HETATM   18  N24   D T 401       6.347   0.885  -6.968  1.00 22.38    -0.208 NA
HETATM   19  O27   D T 401       7.307   0.071  -5.086  1.00 24.04    -0.265 OA
ENDBRANCH   5   8
BRANCH   6  20
HETATM   20  C22   D T 401      10.770   1.345  -0.538  1.00 30.01     0.276 C 
HETATM   21  N25   D T 401       9.828   0.753   0.373  1.00 32.50    -0.232 NA
HETATM   22  O28   D T 401      11.875   1.759  -0.148  1.00 32.52    -0.266 OA
BRANCH  21  23
HETATM   23  C37   D T 401      10.126   0.604   1.782  1.00 43.36     0.164 C 
BRANCH  23  24
HETATM   24  C38   D T 401      10.559  -0.760   2.279  1.00 41.32     0.276 C 
BRANCH  24  25
HETATM   25  N4    D T 401      10.933  -1.773   1.290  1.00 49.47     0.139 N 
BRANCH  25  26
HETATM   26  C39   D T 401      10.144  -3.008   1.527  1.00 47.52     0.250 C 
HETATM   27  C42   D T 401      10.775  -4.312   1.234  1.00 42.88     0.037 C 
ENDBRANCH  25  26
BRANCH  25  28
HETATM   28  C40   D T 401      12.367  -2.051   1.300  1.00 47.71     0.250 C 
HETATM   29  C41   D T 401      13.196  -1.554   2.446  1.00 49.11     0.037 C 
ENDBRANCH  25  28
ENDBRANCH  24  25
ENDBRANCH  23  24
ENDBRANCH  21  23
ENDBRANCH   6  20
TORSDOF 7
ENDMDL
MODEL 4
REMARK VINA RESULT:    -7.426      2.508      3.350
REMARK INTER + INTRA:         -11.630
REMARK INTER:                 -10.547
REMARK INTRA:                  -1.083
REMARK UNBOUND:                -1.165
REMARK  7 active torsions:
REMARK  status: ('A' for Active; 'I' for Inactive)
REMARK    1  A    between atoms: C22_10  and  C19_16 
REMARK       I    between atoms: C22_10  and  N25_19 
REMARK    2  A    between atoms: C12_12  and  C18_15 
REMARK    3  A    between atoms: N25_19  and  C37_23 
REMARK    4  A    between atoms: C37_23  and  C38_24 
REMARK    5  A    between atoms: C38_24  and  N4_25 
REMARK    6  A    between atoms: N4_25  and  C39_26 
REMARK    7  A    between atoms: N4_25  and  C40_27 
ROOT
HETATM    1  C4    D T 401       8.040   3.554  -1.029  1.00 25.65     0.052 C 
HETATM    2  C13   D T 401       9.423   1.754  -4.006  1.00 28.91     0.002 A 
HETATM    3  C3    D T 401      10.471   1.003  -4.814  1.00 31.15     0.033 C 
HETATM    4  C14   D T 401       8.377   2.872  -2.347  1.00 29.63     0.064 A 
HETATM    5  C18   D T 401       8.144   2.091  -4.415  1.00 27.57     0.077 A 
HETATM    6  C19   D T 401       9.575   2.256  -2.676  1.00 27.94     0.069 A 
HETATM    7  N23   D T 401       7.538   2.755  -3.402  1.00 23.32    -0.250 NA
ENDROOT
BRANCH   5   8
HETATM    8  C12   D T 401       7.553   1.779  -5.738  1.00 27.08     0.024 C 
HETATM    9  C20   D T 401       7.133   2.721  -6.672  1.00 23.71     0.061 A 
HETATM   10  C17   D T 401       6.252   2.375  -7.758  1.00 26.90     0.025 A 
HETATM   11  C21   D T 401       7.426   4.082  -6.807  1.00 23.79     0.279 A 
HETATM   12  C7    D T 401       5.632   1.155  -8.130  1.00 28.25     0.031 A 
HETATM   13  C16   D T 401       6.036   3.521  -8.494  1.00 23.25     0.085 A 
HETATM   14  C15   D T 401       4.786   1.123  -9.269  1.00 30.52     0.140 A 
HETATM   15  C5    D T 401       4.568   2.285 -10.023  1.00 27.96     0.031 A 
HETATM   16  F29   D T 401       4.193  -0.014  -9.631  1.00 36.08    -0.204 F 
HETATM   17  C6    D T 401       5.179   3.476  -9.664  1.00 30.63     0.021 A 
HETATM   18  N24   D T 401       6.760   4.551  -7.910  1.00 22.38    -0.208 NA
HETATM   19  O27   D T 401       8.137   4.771  -6.125  1.00 24.04    -0.265 OA
ENDBRANCH   5   8
BRANCH   6  20
HETATM   20  C22   D T 401      10.825   2.121  -1.787  1.00 30.01     0.276 C 
HETATM   21  N25   D T 401      11.521   3.312  -1.383  1.00 32.50    -0.232 NA
HETATM   22  O28   D T 401      11.218   0.994  -1.440  1.00 32.52    -0.266 OA
BRANCH  21  23
HETATM   23  C37   D T 401      12.703   3.256  -0.549  1.00 43.36     0.164 C 
BRANCH  23  24
HETATM   24  C38   D T 401      12.531   3.448   0.945  1.00 41.32     0.276 C 
BRANCH  24  25
HETATM   25  N4    D T 401      11.263   3.047   1.555  1.00 49.47     0.139 N 
BRANCH  25  26
HETATM   26  C39   D T 401      10.726   4.172   2.361  1.00 47.52     0.250 C 
HETATM   27  C42   D T 401      10.678   5.516   1.747  1.00 42.88     0.037 C 
ENDBRANCH  25  26
BRANCH  25  28
HETATM   28  C40   D T 401      11.398   1.836   2.361  1.00 47.71     0.250 C 
HETATM   29  C41   D T 401      12.698   1.566   3.057  1.00 49.11     0.037 C 
ENDBRANCH  25  28
ENDBRANCH  24  25
ENDBRANCH  23  24
ENDBRANCH  21  23
ENDBRANCH   6  20
TORSDOF 7
ENDMDL
MODEL 5
REMARK VINA RESULT:    -7.418      1.743      3.031
REMARK INTER + INTRA:         -11.618
REMARK INTER:                 -10.672
REMARK INTRA:                  -0.946
REMARK UNBOUND:                -1.165
REMARK  7 active torsions:
REMARK  status: ('A' for Active; 'I' for Inactive)
REMARK    1  A    between atoms: C22_10  and  C19_16 
REMARK       I    between atoms: C22_10  and  N25_19 
REMARK    2  A    between atoms: C12_12  and  C18_15 
REMARK    3  A    between atoms: N25_19  and  C37_23 
REMARK    4  A    between atoms: C37_23  and  C38_24 
REMARK    5  A    between atoms: C38_24  and  N4_25 
REMARK    6  A    between atoms: N4_25  and  C39_26 
REMARK    7  A    between atoms: N4_25  and  C40_27 
ROOT
HETATM    1  C4    D T 401      11.058   0.279  -3.790  1.00 25.65     0.052 C 
HETATM    2  C13   D T 401       7.993   2.337  -4.411  1.00 28.91     0.002 A 
HETATM    3  C3    D T 401       6.870   3.300  -4.058  1.00 31.15     0.033 C 
HETATM    4  C14   D T 401       9.820   1.018  -4.278  1.00 29.63     0.064 A 
HETATM    5  C18   D T 401       8.208   1.725  -5.634  1.00 27.57     0.077 A 
HETATM    6  C19   D T 401       9.029   1.882  -3.537  1.00 27.94     0.069 A 
HETATM    7  N23   D T 401       9.310   0.945  -5.529  1.00 23.32    -0.250 NA
ENDROOT
BRANCH   5   8
HETATM    8  C12   D T 401       7.367   1.897  -6.842  1.00 27.08     0.024 C 
HETATM    9  C20   D T 401       7.134   3.104  -7.494  1.00 23.71     0.061 A 
HETATM   10  C17   D T 401       6.043   3.271  -8.421  1.00 26.90     0.025 A 
HETATM   11  C21   D T 401       7.815   4.325  -7.448  1.00 23.79     0.279 A 
HETATM   12  C7    D T 401       5.027   2.387  -8.864  1.00 28.25     0.031 A 
HETATM   13  C16   D T 401       6.094   4.567  -8.888  1.00 23.25     0.085 A 
HETATM   14  C15   D T 401       4.060   2.850  -9.795  1.00 30.52     0.140 A 
HETATM   15  C5    D T 401       4.111   4.166 -10.275  1.00 27.96     0.031 A 
HETATM   16  F29   D T 401       3.096   2.033 -10.220  1.00 36.08    -0.204 F 
HETATM   17  C6    D T 401       5.109   5.028  -9.849  1.00 30.63     0.021 A 
HETATM   18  N24   D T 401       7.180   5.197  -8.294  1.00 22.38    -0.208 NA
HETATM   19  O27   D T 401       8.795   4.617  -6.816  1.00 24.04    -0.265 OA
ENDBRANCH   5   8
BRANCH   6  20
HETATM   20  C22   D T 401       9.225   2.291  -2.065  1.00 30.01     0.276 C 
HETATM   21  N25   D T 401       8.965   1.322  -1.036  1.00 32.50    -0.232 NA
HETATM   22  O28   D T 401       9.594   3.445  -1.789  1.00 32.52    -0.266 OA
BRANCH  21  23
HETATM   23  C37   D T 401       9.129   1.641   0.367  1.00 43.36     0.164 C 
BRANCH  23  24
HETATM   24  C38   D T 401       9.358   0.499   1.336  1.00 41.32     0.276 C 
BRANCH  24  25
HETATM   25  N4    D T 401      10.578   0.507   2.144  1.00 49.47     0.139 N 
BRANCH  25  26
HETATM   26  C39   D T 401      11.381   1.712   1.813  1.00 47.52     0.250 C 
HETATM   27  C42   D T 401      12.479   2.096   2.723  1.00 42.88     0.037 C 
ENDBRANCH  25  26
BRANCH  25  28
HETATM   28  C40   D T 401      11.361  -0.714   1.973  1.00 47.71     0.250 C 
HETATM   29  C41   D T 401      11.619  -1.225   0.588  1.00 49.11     0.037 C 
ENDBRANCH  25  28
ENDBRANCH  24  25
ENDBRANCH  23  24
ENDBRANCH  21  23
ENDBRANCH   6  20
TORSDOF 7
ENDMDL
MODEL 6
REMARK VINA RESULT:    -7.340      2.858      5.557
REMARK INTER + INTRA:         -11.508
REMARK INTER:                 -10.579
REMARK INTRA:                  -0.929
REMARK UNBOUND:                -1.165
REMARK  7 active torsions:
REMARK  status: ('A' for Active; 'I' for Inactive)
REMARK    1  A    between atoms: C22_10  and  C19_16 
REMARK       I    between atoms: C22_10  and  N25_19 
REMARK    2  A    between atoms: C12_12  and  C18_15 
REMARK    3  A    between atoms: N25_19  and  C37_23 
REMARK    4  A    between atoms: C37_23  and  C38_24 
REMARK    5  A    between atoms: C38_24  and  N4_25 
REMARK    6  A    between atoms: N4_25  and  C39_26 
REMARK    7  A    between atoms: N4_25  and  C40_27 
ROOT
HETATM    1  C4    D T 401      11.621   1.198  -1.268  1.00 25.65     0.052 C 
HETATM    2  C13   D T 401       8.492   2.717  -2.651  1.00 28.91     0.002 A 
HETATM    3  C3    D T 401       7.207   3.533  -2.615  1.00 31.15     0.033 C 
HETATM    4  C14   D T 401      10.413   1.699  -2.047  1.00 29.63     0.064 A 
HETATM    5  C18   D T 401       9.011   2.036  -3.738  1.00 27.57     0.077 A 
HETATM    6  C19   D T 401       9.391   2.501  -1.562  1.00 27.94     0.069 A 
HETATM    7  N23   D T 401      10.163   1.439  -3.352  1.00 23.32    -0.250 NA
ENDROOT
BRANCH   5   8
HETATM    8  C12   D T 401       8.400   1.973  -5.087  1.00 27.08     0.024 C 
HETATM    9  C20   D T 401       8.184   3.063  -5.923  1.00 23.71     0.061 A 
HETATM   10  C17   D T 401       7.277   2.998  -7.041  1.00 26.90     0.025 A 
HETATM   11  C21   D T 401       8.731   4.351  -5.922  1.00 23.79     0.279 A 
HETATM   12  C7    D T 401       6.446   1.960  -7.534  1.00 28.25     0.031 A 
HETATM   13  C16   D T 401       7.297   4.230  -7.659  1.00 23.25     0.085 A 
HETATM   14  C15   D T 401       5.634   2.201  -8.672  1.00 30.52     0.140 A 
HETATM   15  C5    D T 401       5.654   3.451  -9.307  1.00 27.96     0.031 A 
HETATM   16  F29   D T 401       4.845   1.237  -9.147  1.00 36.08    -0.204 F 
HETATM   17  C6    D T 401       6.471   4.463  -8.830  1.00 30.63     0.021 A 
HETATM   18  N24   D T 401       8.189   5.043  -6.974  1.00 22.38    -0.208 NA
HETATM   19  O27   D T 401       9.544   4.822  -5.173  1.00 24.04    -0.265 OA
ENDBRANCH   5   8
BRANCH   6  20
HETATM   20  C22   D T 401       9.251   3.065  -0.136  1.00 30.01     0.276 C 
HETATM   21  N25   D T 401       9.533   4.456   0.091  1.00 32.50    -0.232 NA
HETATM   22  O28   D T 401       8.905   2.316   0.793  1.00 32.52    -0.266 OA
BRANCH  21  23
HETATM   23  C37   D T 401       9.421   5.049   1.407  1.00 43.36     0.164 C 
BRANCH  23  24
HETATM   24  C38   D T 401      10.201   6.319   1.685  1.00 41.32     0.276 C 
BRANCH  24  25
HETATM   25  N4    D T 401       9.455   7.562   1.883  1.00 49.47     0.139 N 
BRANCH  25  26
HETATM   26  C39   D T 401       9.616   8.428   0.687  1.00 47.52     0.250 C 
HETATM   27  C42   D T 401       8.399   8.939   0.022  1.00 42.88     0.037 C 
ENDBRANCH  25  26
BRANCH  25  28
HETATM   28  C40   D T 401       9.861   8.261   3.100  1.00 47.71     0.250 C 
HETATM   29  C41   D T 401       8.926   9.261   3.711  1.00 49.11     0.037 C 
ENDBRANCH  25  28
ENDBRANCH  24  25
ENDBRANCH  23  24
ENDBRANCH  21  23
ENDBRANCH   6  20
TORSDOF 7
ENDMDL
MODEL 7
REMARK VINA RESULT:    -7.280      4.107      5.804
REMARK INTER + INTRA:         -11.424
REMARK INTER:                 -10.435
REMARK INTRA:                  -0.990
REMARK UNBOUND:                -1.165
REMARK  7 active torsions:
REMARK  status: ('A' for Active; 'I' for Inactive)
REMARK    1  A    between atoms: C22_10  and  C19_16 
REMARK       I    between atoms: C22_10  and  N25_19 
REMARK    2  A    between atoms: C12_12  and  C18_15 
REMARK    3  A    between atoms: N25_19  and  C37_23 
REMARK    4  A    between atoms: C37_23  and  C38_24 
REMARK    5  A    between atoms: C38_24  and  N4_25 
REMARK    6  A    between atoms: N4_25  and  C39_26 
REMARK    7  A    between atoms: N4_25  and  C40_27 
ROOT
HETATM    1  C4    D T 401       8.543   3.218   0.462  1.00 25.65     0.052 C 
HETATM    2  C13   D T 401       9.319   4.014  -3.113  1.00 28.91     0.002 A 
HETATM    3  C3    D T 401      10.193   4.427  -4.288  1.00 31.15     0.033 C 
HETATM    4  C14   D T 401       8.612   3.495  -1.033  1.00 29.63     0.064 A 
HETATM    5  C18   D T 401       7.971   3.701  -3.152  1.00 27.57     0.077 A 
HETATM    6  C19   D T 401       9.733   3.883  -1.751  1.00 27.94     0.069 A 
HETATM    7  N23   D T 401       7.574   3.389  -1.895  1.00 23.32    -0.250 NA
ENDROOT
BRANCH   5   8
HETATM    8  C12   D T 401       7.118   3.714  -4.364  1.00 27.08     0.024 C 
HETATM    9  C20   D T 401       7.010   2.674  -5.281  1.00 23.71     0.061 A 
HETATM   10  C17   D T 401       6.465   2.875  -6.599  1.00 26.90     0.025 A 
HETATM   11  C21   D T 401       7.341   1.318  -5.183  1.00 23.79     0.279 A 
HETATM   12  C7    D T 401       5.967   4.027  -7.258  1.00 28.25     0.031 A 
HETATM   13  C16   D T 401       6.494   1.658  -7.247  1.00 23.25     0.085 A 
HETATM   14  C15   D T 401       5.497   3.917  -8.593  1.00 30.52     0.140 A 
HETATM   15  C5    D T 401       5.521   2.681  -9.254  1.00 27.96     0.031 A 
HETATM   16  F29   D T 401       5.028   4.991  -9.229  1.00 36.08    -0.204 F 
HETATM   17  C6    D T 401       6.001   1.553  -8.608  1.00 30.63     0.021 A 
HETATM   18  N24   D T 401       7.024   0.717  -6.374  1.00 22.38    -0.208 NA
HETATM   19  O27   D T 401       7.806   0.722  -4.249  1.00 24.04    -0.265 OA
ENDBRANCH   5   8
BRANCH   6  20
HETATM   20  C22   D T 401      11.152   4.116  -1.202  1.00 30.01     0.276 C 
HETATM   21  N25   D T 401      11.561   5.456  -0.881  1.00 32.50    -0.232 NA
HETATM   22  O28   D T 401      11.923   3.152  -1.053  1.00 32.52    -0.266 OA
BRANCH  21  23
HETATM   23  C37   D T 401      12.881   5.745  -0.363  1.00 43.36     0.164 C 
BRANCH  23  24
HETATM   24  C38   D T 401      13.061   6.996   0.474  1.00 41.32     0.276 C 
BRANCH  24  25
HETATM   25  N4    D T 401      14.284   7.780   0.296  1.00 49.47     0.139 N 
BRANCH  25  26
HETATM   26  C39   D T 401      15.035   7.821   1.576  1.00 47.52     0.250 C 
HETATM   27  C42   D T 401      15.224   9.129   2.238  1.00 42.88     0.037 C 
ENDBRANCH  25  26
BRANCH  25  28
HETATM   28  C40   D T 401      14.008   9.126  -0.199  1.00 47.71     0.250 C 
HETATM   29  C41   D T 401      12.640   9.443  -0.725  1.00 49.11     0.037 C 
ENDBRANCH  25  28
ENDBRANCH  24  25
ENDBRANCH  23  24
ENDBRANCH  21  23
ENDBRANCH   6  20
TORSDOF 7
ENDMDL
MODEL 8
REMARK VINA RESULT:    -7.260      3.955      5.636
REMARK INTER + INTRA:         -11.395
REMARK INTER:                 -10.206
REMARK INTRA:                  -1.189
REMARK UNBOUND:                -1.165
REMARK  7 active torsions:
REMARK  status: ('A' for Active; 'I' for Inactive)
REMARK    1  A    between atoms: C22_10  and  C19_16 
REMARK       I    between atoms: C22_10  and  N25_19 
REMARK    2  A    between atoms: C12_12  and  C18_15 
REMARK    3  A    between atoms: N25_19  and  C37_23 
REMARK    4  A    between atoms: C37_23  and  C38_24 
REMARK    5  A    between atoms: C38_24  and  N4_25 
REMARK    6  A    between atoms: N4_25  and  C39_26 
REMARK    7  A    between atoms: N4_25  and  C40_27 
ROOT
HETATM    1  C4    D T 401       8.492   3.459   0.444  1.00 25.65     0.052 C 
HETATM    2  C13   D T 401       9.039   4.538  -3.098  1.00 28.91     0.002 A 
HETATM    3  C3    D T 401       9.762   5.228  -4.247  1.00 31.15     0.033 C 
HETATM    4  C14   D T 401       8.495   3.778  -1.044  1.00 29.63     0.064 A 
HETATM    5  C18   D T 401       7.856   3.825  -3.173  1.00 27.57     0.077 A 
HETATM    6  C19   D T 401       9.452   4.510  -1.730  1.00 27.94     0.069 A 
HETATM    7  N23   D T 401       7.555   3.376  -1.931  1.00 23.32    -0.250 NA
ENDROOT
BRANCH   5   8
HETATM    8  C12   D T 401       7.061   3.601  -4.403  1.00 27.08     0.024 C 
HETATM    9  C20   D T 401       7.083   2.445  -5.175  1.00 23.71     0.061 A 
HETATM   10  C17   D T 401       6.582   2.421  -6.526  1.00 26.90     0.025 A 
HETATM   11  C21   D T 401       7.525   1.149  -4.886  1.00 23.79     0.279 A 
HETATM   12  C7    D T 401       6.017   3.427  -7.350  1.00 28.25     0.031 A 
HETATM   13  C16   D T 401       6.746   1.137  -7.003  1.00 23.25     0.085 A 
HETATM   14  C15   D T 401       5.619   3.101  -8.672  1.00 30.52     0.140 A 
HETATM   15  C5    D T 401       5.780   1.796  -9.160  1.00 27.96     0.031 A 
HETATM   16  F29   D T 401       5.089   4.035  -9.462  1.00 36.08    -0.204 F 
HETATM   17  C6    D T 401       6.325   0.810  -8.353  1.00 30.63     0.021 A 
HETATM   18  N24   D T 401       7.314   0.371  -5.995  1.00 22.38    -0.208 NA
HETATM   19  O27   D T 401       7.998   0.726  -3.865  1.00 24.04    -0.265 OA
ENDBRANCH   5   8
BRANCH   6  20
HETATM   20  C22   D T 401      10.721   5.159  -1.146  1.00 30.01     0.276 C 
HETATM   21  N25   D T 401      10.682   6.546  -0.774  1.00 32.50    -0.232 NA
HETATM   22  O28   D T 401      11.755   4.482  -1.012  1.00 32.52    -0.266 OA
BRANCH  21  23
HETATM   23  C37   D T 401      11.840   7.217  -0.220  1.00 43.36     0.164 C 
BRANCH  23  24
HETATM   24  C38   D T 401      12.104   7.072   1.265  1.00 41.32     0.276 C 
BRANCH  24  25
HETATM   25  N4    D T 401      11.327   7.896   2.192  1.00 49.47     0.139 N 
BRANCH  25  26
HETATM   26  C39   D T 401      10.226   7.084   2.769  1.00 47.52     0.250 C 
HETATM   27  C42   D T 401      10.391   5.617   2.826  1.00 42.88     0.037 C 
ENDBRANCH  25  26
BRANCH  25  28
HETATM   28  C40   D T 401      10.815   9.107   1.557  1.00 47.71     0.250 C 
HETATM   29  C41   D T 401       9.351   9.417   1.655  1.00 49.11     0.037 C 
ENDBRANCH  25  28
ENDBRANCH  24  25
ENDBRANCH  23  24
ENDBRANCH  21  23
ENDBRANCH   6  20
TORSDOF 7
ENDMDL
MODEL 9
REMARK VINA RESULT:    -7.134      4.365      7.160
REMARK INTER + INTRA:         -11.218
REMARK INTER:                 -10.216
REMARK INTRA:                  -1.002
REMARK UNBOUND:                -1.165
REMARK  7 active torsions:
REMARK  status: ('A' for Active; 'I' for Inactive)
REMARK    1  A    between atoms: C22_10  and  C19_16 
REMARK       I    between atoms: C22_10  and  N25_19 
REMARK    2  A    between atoms: C12_12  and  C18_15 
REMARK    3  A    between atoms: N25_19  and  C37_23 
REMARK    4  A    between atoms: C37_23  and  C38_24 
REMARK    5  A    between atoms: C38_24  and  N4_25 
REMARK    6  A    between atoms: N4_25  and  C39_26 
REMARK    7  A    between atoms: N4_25  and  C40_27 
ROOT
HETATM    1  C4    D T 401       8.924   4.272   0.720  1.00 25.65     0.052 C 
HETATM    2  C13   D T 401       9.243   4.787  -2.974  1.00 28.91     0.002 A 
HETATM    3  C3    D T 401       9.818   5.383  -4.251  1.00 31.15     0.033 C 
HETATM    4  C14   D T 401       8.861   4.317  -0.800  1.00 29.63     0.064 A 
HETATM    5  C18   D T 401       8.214   3.867  -2.879  1.00 27.57     0.077 A 
HETATM    6  C19   D T 401       9.660   5.079  -1.639  1.00 27.94     0.069 A 
HETATM    7  N23   D T 401       8.008   3.599  -1.567  1.00 23.32    -0.250 NA
ENDROOT
BRANCH   5   8
HETATM    8  C12   D T 401       7.469   3.287  -4.021  1.00 27.08     0.024 C 
HETATM    9  C20   D T 401       7.817   2.125  -4.700  1.00 23.71     0.061 A 
HETATM   10  C17   D T 401       7.281   1.812  -6.001  1.00 26.90     0.025 A 
HETATM   11  C21   D T 401       8.661   1.066  -4.347  1.00 23.79     0.279 A 
HETATM   12  C7    D T 401       6.385   2.506  -6.853  1.00 28.25     0.031 A 
HETATM   13  C16   D T 401       7.819   0.603  -6.388  1.00 23.25     0.085 A 
HETATM   14  C15   D T 401       6.044   1.944  -8.110  1.00 30.52     0.140 A 
HETATM   15  C5    D T 401       6.584   0.712  -8.506  1.00 27.96     0.031 A 
HETATM   16  F29   D T 401       5.205   2.583  -8.925  1.00 36.08    -0.204 F 
HETATM   17  C6    D T 401       7.455   0.029  -7.671  1.00 30.63     0.021 A 
HETATM   18  N24   D T 401       8.651   0.155  -5.371  1.00 22.38    -0.208 NA
HETATM   19  O27   D T 401       9.295   0.913  -3.337  1.00 24.04    -0.265 OA
ENDBRANCH   5   8
BRANCH   6  20
HETATM   20  C22   D T 401      10.788   6.042  -1.224  1.00 30.01     0.276 C 
HETATM   21  N25   D T 401      10.470   7.425  -0.994  1.00 32.50    -0.232 NA
HETATM   22  O28   D T 401      11.950   5.617  -1.103  1.00 32.52    -0.266 OA
BRANCH  21  23
HETATM   23  C37   D T 401      11.483   8.382  -0.603  1.00 43.36     0.164 C 
BRANCH  23  24
HETATM   24  C38   D T 401      11.039   9.791  -0.264  1.00 41.32     0.276 C 
BRANCH  24  25
HETATM   25  N4    D T 401      10.791  10.725  -1.364  1.00 49.47     0.139 N 
BRANCH  25  26
HETATM   26  C39   D T 401      11.767  11.841  -1.293  1.00 47.52     0.250 C 
HETATM   27  C42   D T 401      13.190  11.549  -1.566  1.00 42.88     0.037 C 
ENDBRANCH  25  26
BRANCH  25  28
HETATM   28  C40   D T 401       9.418  11.222  -1.366  1.00 47.71     0.250 C 
HETATM   29  C41   D T 401       8.506  10.838  -2.492  1.00 49.11     0.037 C 
ENDBRANCH  25  28
ENDBRANCH  24  25
ENDBRANCH  23  24
ENDBRANCH  21  23
ENDBRANCH   6  20
TORSDOF 7
ENDMDL
