MODEL 1
REMARK VINA RESULT:    -8.242      0.000      0.000
REMARK INTER + INTRA:         -11.506
REMARK INTER:                 -10.651
REMARK INTRA:                  -0.855
REMARK UNBOUND:                -0.855
REMARK  5 active torsions:
REMARK  status: ('A' for Active; 'I' for Inactive)
REMARK       I    between atoms: N1_1  and  C25_25 
REMARK       I    between atoms: N5_5  and  C6_6 
REMARK    1  A    between atoms: C6_6  and  C7_7 
REMARK    2  A    between atoms: N17_17  and  C24_24 
REMARK    3  A    between atoms: C25_25  and  C20_32 
REMARK    4  A    between atoms: C27_27  and  C20_32 
REMARK    5  A    between atoms: C20_32  and  O34_35 
ROOT
HETATM    1  N1    D T 404       9.677  11.499   2.210  1.00 17.40    -0.308 N 
HETATM    2  N2    D T 404       9.757   8.402   3.928  1.00 15.80    -0.149 NA
HETATM    3  C3    D T 404       9.719   7.945   1.649  1.00 20.99     0.186 A 
HETATM    4  N4    D T 404       9.746   7.458   2.988  1.00 14.98    -0.129 NA
HETATM    5  N5    D T 404       9.690   7.193   0.655  1.00 14.25    -0.187 NA
HETATM    6  C6    D T 404       9.507   7.488  -0.632  1.00 20.91     0.281 C 
HETATM    7  O8    D T 404       9.338   8.672  -1.001  1.00 20.64    -0.265 OA
HETATM    8  C13   D T 404       9.743   9.443   3.383  1.00 15.72     0.104 A 
HETATM    9  C14   D T 404       9.720   9.167   1.784  1.00 16.99     0.055 A 
HETATM   10  C15   D T 404       9.714  10.392   1.117  1.00 11.92     0.136 A 
HETATM   11  C16   D T 404       9.754  10.845   3.620  1.00 12.55     0.152 A 
HETATM   12  C25   D T 404       9.717  13.123   1.902  1.00 17.08     0.266 C 
HETATM   13  O26   D T 404       9.734  13.886   2.904  1.00 18.79    -0.269 OA
ENDROOT
BRANCH   6  14
HETATM   14  C7    D T 404       9.476   6.555  -1.687  1.00 20.72     0.058 A 
HETATM   15  C9    D T 404      10.108   6.833  -2.924  1.00 20.76     0.006 A 
HETATM   16  C10   D T 404      10.065   5.895  -3.978  1.00 23.27     0.017 A 
HETATM   17  C24   D T 404       9.403   4.659  -3.836  1.00 27.37     0.056 A 
HETATM   18  C11   D T 404       8.768   4.382  -2.580  1.00 25.87     0.017 A 
HETATM   19  C12   D T 404       8.808   5.317  -1.532  1.00 22.35     0.006 A 
BRANCH  17  20
HETATM   20  N17   D T 404       9.392   3.763  -4.888  1.00 26.72    -0.344 N 
HETATM   21  C18   D T 404       8.255   3.613  -5.770  1.00 27.97     0.137 C 
HETATM   22  C19   D T 404       7.414   2.342  -5.357  1.00 27.41     0.274 C 
HETATM   23  N20   D T 404       8.283   1.115  -5.189  1.00 25.74     0.143 N 
HETATM   24  C21   D T 404       9.452   1.380  -4.301  1.00 25.73     0.274 C 
HETATM   25  C23   D T 404       7.508  -0.099  -4.710  1.00 22.56     0.286 C 
HETATM   26  C22   D T 404      10.265   2.597  -4.833  1.00 25.35     0.137 C 
ENDBRANCH  17  20
ENDBRANCH   6  14
BRANCH  12  27
HETATM   27  C20   D T 404       9.730  13.628   0.681  1.00 16.20     0.216 C 
BRANCH  27  28
HETATM   28  C27   D T 404       8.378  13.844   0.168  1.00 15.98     0.014 A 
HETATM   29  C28   D T 404       7.849  13.069  -0.795  1.00 17.50    -0.001 A 
HETATM   30  C31   D T 404       6.530  13.295  -1.264  1.00 22.04    -0.000 A 
HETATM   31  C35   D T 404       5.746  14.341  -0.724  1.00 17.01    -0.000 A 
HETATM   32  C33   D T 404       6.284  15.147   0.258  1.00 16.34    -0.000 A 
HETATM   33  C29   D T 404       7.553  14.923   0.714  1.00 14.11    -0.001 A 
ENDBRANCH  27  28
BRANCH  27  34
HETATM   34  O34   D T 404      10.553  14.812   0.597  1.00 16.74    -0.340 OA
HETATM   35  C36   D T 404      11.885  14.620  -0.008  1.00 18.61     0.175 C 
ENDBRANCH  27  34
ENDBRANCH  12  27
TORSDOF 5
ENDMDL
MODEL 2
REMARK VINA RESULT:    -7.994      3.177     10.123
REMARK INTER + INTRA:         -11.186
REMARK INTER:                 -10.325
REMARK INTRA:                  -0.860
REMARK UNBOUND:                -0.855
REMARK  5 active torsions:
REMARK  status: ('A' for Active; 'I' for Inactive)
REMARK       I    between atoms: N1_1  and  C25_25 
REMARK       I    between atoms: N5_5  and  C6_6 
REMARK    1  A    between atoms: C6_6  and  C7_7 
REMARK    2  A    between atoms: N17_17  and  C24_24 
REMARK    3  A    between atoms: C25_25  and  C20_32 
REMARK    4  A    between atoms: C27_27  and  C20_32 
REMARK    5  A    between atoms: C20_32  and  O34_35 
ROOT
HETATM    1  N1    D T 404      12.173   5.543  -0.591  1.00 17.40    -0.308 N 
HETATM    2  N2    D T 404      14.281   8.216   0.388  1.00 15.80    -0.149 NA
HETATM    3  C3    D T 404      12.190   9.107  -0.098  1.00 20.99     0.186 A 
HETATM    4  N4    D T 404      13.536   9.319   0.316  1.00 14.98    -0.129 NA
HETATM    5  N5    D T 404      11.369  10.035  -0.232  1.00 14.25    -0.187 NA
HETATM    6  C6    D T 404      10.141  10.019  -0.753  1.00 20.91     0.281 C 
HETATM    7  O8    D T 404       9.645   8.958  -1.194  1.00 20.64    -0.265 OA
HETATM    8  C13   D T 404      13.601   7.310   0.079  1.00 15.72     0.104 A 
HETATM    9  C14   D T 404      12.124   7.891  -0.267  1.00 16.99     0.055 A 
HETATM   10  C15   D T 404      11.297   6.828  -0.627  1.00 11.92     0.136 A 
HETATM   11  C16   D T 404      13.602   5.897  -0.086  1.00 12.55     0.152 A 
HETATM   12  C25   D T 404      11.612   4.016  -0.890  1.00 17.08     0.266 C 
HETATM   13  O26   D T 404      12.443   3.077  -0.768  1.00 18.79    -0.269 OA
ENDROOT
BRANCH   6  14
HETATM   14  C7    D T 404       9.291  11.135  -0.873  1.00 20.72     0.058 A 
HETATM   15  C9    D T 404       9.464  12.276  -0.049  1.00 20.76     0.006 A 
HETATM   16  C10   D T 404       8.602  13.386  -0.171  1.00 23.27     0.017 A 
HETATM   17  C24   D T 404       7.552  13.403  -1.111  1.00 27.37     0.056 A 
HETATM   18  C11   D T 404       7.383  12.247  -1.943  1.00 25.87     0.017 A 
HETATM   19  C12   D T 404       8.239  11.140  -1.820  1.00 22.35     0.006 A 
BRANCH  17  20
HETATM   20  N17   D T 404       6.735  14.514  -1.205  1.00 26.72    -0.344 N 
HETATM   21  C18   D T 404       7.103  15.687  -1.966  1.00 27.97     0.137 C 
HETATM   22  C19   D T 404       7.646  16.811  -1.000  1.00 27.41     0.274 C 
HETATM   23  N20   D T 404       6.718  17.051   0.172  1.00 25.74     0.143 N 
HETATM   24  C21   D T 404       6.361  15.779   0.865  1.00 25.73     0.274 C 
HETATM   25  C23   D T 404       7.261  18.067   1.159  1.00 22.56     0.286 C 
HETATM   26  C22   D T 404       5.759  14.764  -0.153  1.00 25.35     0.137 C 
ENDBRANCH  17  20
ENDBRANCH   6  14
BRANCH  12  27
HETATM   27  C20   D T 404      10.365   3.759  -1.241  1.00 16.20     0.216 C 
BRANCH  27  28
HETATM   28  C27   D T 404      10.190   3.800  -2.693  1.00 15.98     0.014 A 
HETATM   29  C28   D T 404      10.349   2.708  -3.461  1.00 17.50    -0.001 A 
HETATM   30  C31   D T 404      10.161   2.775  -4.865  1.00 22.04    -0.000 A 
HETATM   31  C35   D T 404       9.802   3.996  -5.483  1.00 17.01    -0.000 A 
HETATM   32  C33   D T 404       9.646   5.124  -4.703  1.00 16.34    -0.000 A 
HETATM   33  C29   D T 404       9.821   5.056  -3.349  1.00 14.11    -0.001 A 
ENDBRANCH  27  28
BRANCH  27  34
HETATM   34  O34   D T 404       9.883   2.530  -0.656  1.00 16.74    -0.340 OA
HETATM   35  C36   D T 404       9.104   2.679   0.587  1.00 18.61     0.175 C 
ENDBRANCH  27  34
ENDBRANCH  12  27
TORSDOF 5
ENDMDL
MODEL 3
REMARK VINA RESULT:    -7.936      4.301     10.444
REMARK INTER + INTRA:         -11.111
REMARK INTER:                 -11.530
REMARK INTRA:                   0.419
REMARK UNBOUND:                -0.855
REMARK  5 active torsions:
REMARK  status: ('A' for Active; 'I' for Inactive)
REMARK       I    between atoms: N1_1  and  C25_25 
REMARK       I    between atoms: N5_5  and  C6_6 
REMARK    1  A    between atoms: C6_6  and  C7_7 
REMARK    2  A    between atoms: N17_17  and  C24_24 
REMARK    3  A    between atoms: C25_25  and  C20_32 
REMARK    4  A    between atoms: C27_27  and  C20_32 
REMARK    5  A    between atoms: C20_32  and  O34_35 
ROOT
HETATM    1  N1    D T 404       7.598   2.971  -5.084  1.00 17.40    -0.308 N 
HETATM    2  N2    D T 404       8.594   1.735  -1.918  1.00 15.80    -0.149 NA
HETATM    3  C3    D T 404       9.286   3.950  -2.061  1.00 20.99     0.186 A 
HETATM    4  N4    D T 404       9.219   2.742  -1.308  1.00 14.98    -0.129 NA
HETATM    5  N5    D T 404       9.849   4.979  -1.640  1.00 14.25    -0.187 NA
HETATM    6  C6    D T 404      10.129   6.118  -2.276  1.00 20.91     0.281 C 
HETATM    7  O8    D T 404       9.811   6.278  -3.476  1.00 20.64    -0.265 OA
HETATM    8  C13   D T 404       8.242   2.123  -2.969  1.00 15.72     0.104 A 
HETATM    9  C14   D T 404       8.704   3.673  -3.108  1.00 16.99     0.055 A 
HETATM   10  C15   D T 404       8.285   4.157  -4.347  1.00 11.92     0.136 A 
HETATM   11  C16   D T 404       7.549   1.730  -4.147  1.00 12.55     0.152 A 
HETATM   12  C25   D T 404       6.887   3.078  -6.574  1.00 17.08     0.266 C 
HETATM   13  O26   D T 404       6.327   2.036  -7.007  1.00 18.79    -0.269 OA
ENDROOT
BRANCH   6  14
HETATM   14  C7    D T 404      10.788   7.227  -1.711  1.00 20.72     0.058 A 
HETATM   15  C9    D T 404      10.088   8.427  -1.433  1.00 20.76     0.006 A 
HETATM   16  C10   D T 404      10.759   9.536  -0.874  1.00 23.27     0.017 A 
HETATM   17  C24   D T 404      12.134   9.486  -0.570  1.00 27.37     0.056 A 
HETATM   18  C11   D T 404      12.837   8.268  -0.851  1.00 25.87     0.017 A 
HETATM   19  C12   D T 404      12.170   7.166  -1.410  1.00 22.35     0.006 A 
BRANCH  17  20
HETATM   20  N17   D T 404      12.753  10.591  -0.014  1.00 26.72    -0.344 N 
HETATM   21  C18   D T 404      13.629  11.455  -0.773  1.00 27.97     0.137 C 
HETATM   22  C19   D T 404      15.137  11.102  -0.465  1.00 27.41     0.274 C 
HETATM   23  N20   D T 404      15.412  11.027   1.021  1.00 25.74     0.143 N 
HETATM   24  C21   D T 404      14.431  10.150   1.723  1.00 25.73     0.274 C 
HETATM   25  C23   D T 404      16.834  10.606   1.340  1.00 22.56     0.286 C 
HETATM   26  C22   D T 404      12.978  10.624   1.425  1.00 25.35     0.137 C 
ENDBRANCH  17  20
ENDBRANCH   6  14
BRANCH  12  27
HETATM   27  C20   D T 404       6.888   4.183  -7.298  1.00 16.20     0.216 C 
BRANCH  27  28
HETATM   28  C27   D T 404       5.845   4.160  -8.323  1.00 15.98     0.014 A 
HETATM   29  C28   D T 404       5.888   3.313  -9.366  1.00 17.50    -0.001 A 
HETATM   30  C31   D T 404       4.856   3.306 -10.338  1.00 22.04    -0.000 A 
HETATM   31  C35   D T 404       3.759   4.192 -10.226  1.00 17.01    -0.000 A 
HETATM   32  C33   D T 404       3.711   5.072  -9.164  1.00 16.34    -0.000 A 
HETATM   33  C29   D T 404       4.704   5.073  -8.224  1.00 14.11    -0.001 A 
ENDBRANCH  27  28
BRANCH  27  34
HETATM   34  O34   D T 404       6.833   5.368  -6.474  1.00 16.74    -0.340 OA
HETATM   35  C36   D T 404       7.656   6.502  -6.934  1.00 18.61     0.175 C 
ENDBRANCH  27  34
ENDBRANCH  12  27
TORSDOF 5
ENDMDL
MODEL 4
REMARK VINA RESULT:    -7.663      1.445      1.965
REMARK INTER + INTRA:         -10.759
REMARK INTER:                  -9.752
REMARK INTRA:                  -1.007
REMARK UNBOUND:                -0.855
REMARK  5 active torsions:
REMARK  status: ('A' for Active; 'I' for Inactive)
REMARK       I    between atoms: N1_1  and  C25_25 
REMARK       I    between atoms: N5_5  and  C6_6 
REMARK    1  A    between atoms: C6_6  and  C7_7 
REMARK    2  A    between atoms: N17_17  and  C24_24 
REMARK    3  A    between atoms: C25_25  and  C20_32 
REMARK    4  A    between atoms: C27_27  and  C20_32 
REMARK    5  A    between atoms: C20_32  and  O34_35 
ROOT
HETATM    1  N1    D T 404       9.425  13.099   1.981  1.00 17.40    -0.308 N 
HETATM    2  N2    D T 404       9.958  10.392   4.203  1.00 15.80    -0.149 NA
HETATM    3  C3    D T 404       9.802   9.521   2.053  1.00 20.99     0.186 A 
HETATM    4  N4    D T 404       9.979   9.294   3.449  1.00 14.98    -0.129 NA
HETATM    5  N5    D T 404       9.780   8.600   1.214  1.00 14.25    -0.187 NA
HETATM    6  C6    D T 404       9.472   8.635  -0.083  1.00 20.91     0.281 C 
HETATM    7  O8    D T 404       9.153   9.711  -0.638  1.00 20.64    -0.265 OA
HETATM    8  C13   D T 404       9.794  11.309   3.487  1.00 15.72     0.104 A 
HETATM    9  C14   D T 404       9.683  10.743   1.970  1.00 16.99     0.055 A 
HETATM   10  C15   D T 404       9.499  11.818   1.101  1.00 11.92     0.136 A 
HETATM   11  C16   D T 404       9.674  12.726   3.471  1.00 12.55     0.152 A 
HETATM   12  C25   D T 404       9.269  14.636   1.390  1.00 17.08     0.266 C 
HETATM   13  O26   D T 404       9.279  15.569   2.236  1.00 18.79    -0.269 OA
ENDROOT
BRANCH   6  14
HETATM   14  C7    D T 404       9.464   7.525  -0.950  1.00 20.72     0.058 A 
HETATM   15  C9    D T 404      10.171   7.552  -2.177  1.00 20.76     0.006 A 
HETATM   16  C10   D T 404      10.149   6.438  -3.043  1.00 23.27     0.017 A 
HETATM   17  C24   D T 404       9.436   5.267  -2.717  1.00 27.37     0.056 A 
HETATM   18  C11   D T 404       8.724   5.245  -1.472  1.00 25.87     0.017 A 
HETATM   19  C12   D T 404       8.742   6.355  -0.612  1.00 22.35     0.006 A 
BRANCH  17  20
HETATM   20  N17   D T 404       9.447   4.194  -3.587  1.00 26.72    -0.344 N 
HETATM   21  C18   D T 404       9.913   4.303  -4.952  1.00 27.97     0.137 C 
HETATM   22  C19   D T 404       8.684   4.423  -5.936  1.00 27.41     0.274 C 
HETATM   23  N20   D T 404       7.644   3.354  -5.679  1.00 25.74     0.143 N 
HETATM   24  C21   D T 404       7.260   3.287  -4.239  1.00 25.73     0.274 C 
HETATM   25  C23   D T 404       6.415   3.500  -6.557  1.00 22.56     0.286 C 
HETATM   26  C22   D T 404       8.528   3.087  -3.356  1.00 25.35     0.137 C 
ENDBRANCH  17  20
ENDBRANCH   6  14
BRANCH  12  27
HETATM   27  C20   D T 404       9.140  14.906   0.103  1.00 16.20     0.216 C 
BRANCH  27  28
HETATM   28  C27   D T 404       7.781  15.333  -0.228  1.00 15.98     0.014 A 
HETATM   29  C28   D T 404       7.506  16.585  -0.635  1.00 17.50    -0.001 A 
HETATM   30  C31   D T 404       6.179  16.967  -0.959  1.00 22.04    -0.000 A 
HETATM   31  C35   D T 404       5.120  16.034  -0.861  1.00 17.01    -0.000 A 
HETATM   32  C33   D T 404       5.392  14.751  -0.436  1.00 16.34    -0.000 A 
HETATM   33  C29   D T 404       6.672  14.382  -0.130  1.00 14.11    -0.001 A 
ENDBRANCH  27  28
BRANCH  27  34
HETATM   34  O34   D T 404      10.144  15.838  -0.356  1.00 16.74    -0.340 OA
HETATM   35  C36   D T 404      11.532  15.341  -0.330  1.00 18.61     0.175 C 
ENDBRANCH  27  34
ENDBRANCH  12  27
TORSDOF 5
ENDMDL
MODEL 5
REMARK VINA RESULT:    -7.373      3.821     10.689
REMARK INTER + INTRA:         -10.383
REMARK INTER:                 -11.403
REMARK INTRA:                   1.020
REMARK UNBOUND:                -0.855
REMARK  5 active torsions:
REMARK  status: ('A' for Active; 'I' for Inactive)
REMARK       I    between atoms: N1_1  and  C25_25 
REMARK       I    between atoms: N5_5  and  C6_6 
REMARK    1  A    between atoms: C6_6  and  C7_7 
REMARK    2  A    between atoms: N17_17  and  C24_24 
REMARK    3  A    between atoms: C25_25  and  C20_32 
REMARK    4  A    between atoms: C27_27  and  C20_32 
REMARK    5  A    between atoms: C20_32  and  O34_35 
ROOT
HETATM    1  N1    D T 404       9.222   2.282  -4.429  1.00 17.40    -0.308 N 
HETATM    2  N2    D T 404      11.282   0.901  -1.901  1.00 15.80    -0.149 NA
HETATM    3  C3    D T 404      11.149   3.192  -1.530  1.00 20.99     0.186 A 
HETATM    4  N4    D T 404      11.663   1.923  -1.135  1.00 14.98    -0.129 NA
HETATM    5  N5    D T 404      11.422   4.249  -0.929  1.00 14.25    -0.187 NA
HETATM    6  C6    D T 404      11.152   5.512  -1.263  1.00 20.91     0.281 C 
HETATM    7  O8    D T 404      10.528   5.780  -2.314  1.00 20.64    -0.265 OA
HETATM    8  C13   D T 404      10.586   1.331  -2.743  1.00 15.72     0.104 A 
HETATM    9  C14   D T 404      10.463   2.933  -2.517  1.00 16.99     0.055 A 
HETATM   10  C15   D T 404       9.630   3.463  -3.502  1.00 11.92     0.136 A 
HETATM   11  C16   D T 404       9.807   0.952  -3.871  1.00 12.55     0.152 A 
HETATM   12  C25   D T 404       8.189   2.411  -5.714  1.00 17.08     0.266 C 
HETATM   13  O26   D T 404       7.920   1.346  -6.330  1.00 18.79    -0.269 OA
ENDROOT
BRANCH   6  14
HETATM   14  C7    D T 404      11.520   6.649  -0.516  1.00 20.72     0.058 A 
HETATM   15  C9    D T 404      11.850   7.868  -1.159  1.00 20.76     0.006 A 
HETATM   16  C10   D T 404      12.226   8.999  -0.403  1.00 23.27     0.017 A 
HETATM   17  C24   D T 404      12.279   8.958   1.005  1.00 27.37     0.056 A 
HETATM   18  C11   D T 404      11.942   7.722   1.650  1.00 25.87     0.017 A 
HETATM   19  C12   D T 404      11.571   6.595   0.897  1.00 22.35     0.006 A 
BRANCH  17  20
HETATM   20  N17   D T 404      12.642  10.090   1.710  1.00 26.72    -0.344 N 
HETATM   21  C18   D T 404      11.672  11.028   2.229  1.00 27.97     0.137 C 
HETATM   22  C19   D T 404      11.569  12.283   1.278  1.00 27.41     0.274 C 
HETATM   23  N20   D T 404      12.928  12.859   0.947  1.00 25.74     0.143 N 
HETATM   24  C21   D T 404      13.872  11.811   0.462  1.00 25.73     0.274 C 
HETATM   25  C23   D T 404      12.860  14.015  -0.034  1.00 22.56     0.286 C 
HETATM   26  C22   D T 404      13.969  10.655   1.503  1.00 25.35     0.137 C 
ENDBRANCH  17  20
ENDBRANCH   6  14
BRANCH  12  27
HETATM   27  C20   D T 404       7.654   3.556  -6.101  1.00 16.20     0.216 C 
BRANCH  27  28
HETATM   28  C27   D T 404       6.856   3.399  -7.316  1.00 15.98     0.014 A 
HETATM   29  C28   D T 404       6.421   2.198  -7.733  1.00 17.50    -0.001 A 
HETATM   30  C31   D T 404       5.637   2.078  -8.909  1.00 22.04    -0.000 A 
HETATM   31  C35   D T 404       5.299   3.225  -9.665  1.00 17.01    -0.000 A 
HETATM   32  C33   D T 404       5.749   4.461  -9.249  1.00 16.34    -0.000 A 
HETATM   33  C29   D T 404       6.498   4.575  -8.112  1.00 14.11    -0.001 A 
ENDBRANCH  27  28
BRANCH  27  34
HETATM   34  O34   D T 404       6.923   4.197  -5.033  1.00 16.74    -0.340 OA
HETATM   35  C36   D T 404       5.900   3.365  -4.373  1.00 18.61     0.175 C 
ENDBRANCH  27  34
ENDBRANCH  12  27
TORSDOF 5
ENDMDL
MODEL 6
REMARK VINA RESULT:    -7.312      2.895      4.759
REMARK INTER + INTRA:         -10.305
REMARK INTER:                  -9.335
REMARK INTRA:                  -0.970
REMARK UNBOUND:                -0.855
REMARK  5 active torsions:
REMARK  status: ('A' for Active; 'I' for Inactive)
REMARK       I    between atoms: N1_1  and  C25_25 
REMARK       I    between atoms: N5_5  and  C6_6 
REMARK    1  A    between atoms: C6_6  and  C7_7 
REMARK    2  A    between atoms: N17_17  and  C24_24 
REMARK    3  A    between atoms: C25_25  and  C20_32 
REMARK    4  A    between atoms: C27_27  and  C20_32 
REMARK    5  A    between atoms: C20_32  and  O34_35 
ROOT
HETATM    1  N1    D T 404       8.508  16.263   2.266  1.00 17.40    -0.308 N 
HETATM    2  N2    D T 404       9.252  14.120   4.986  1.00 15.80    -0.149 NA
HETATM    3  C3    D T 404       9.513  12.893   3.029  1.00 20.99     0.186 A 
HETATM    4  N4    D T 404       9.560  12.939   4.452  1.00 14.98    -0.129 NA
HETATM    5  N5    D T 404       9.757  11.860   2.376  1.00 14.25    -0.187 NA
HETATM    6  C6    D T 404       9.605  11.620   1.073  1.00 20.91     0.281 C 
HETATM    7  O8    D T 404       9.166  12.504   0.304  1.00 20.64    -0.265 OA
HETATM    8  C13   D T 404       9.012  14.856   4.102  1.00 15.72     0.104 A 
HETATM    9  C14   D T 404       9.187  14.036   2.712  1.00 16.99     0.055 A 
HETATM   10  C15   D T 404       8.916  14.895   1.647  1.00 11.92     0.136 A 
HETATM   11  C16   D T 404       8.641  16.198   3.815  1.00 12.55     0.152 A 
HETATM   12  C25   D T 404       8.150  17.620   1.390  1.00 17.08     0.266 C 
HETATM   13  O26   D T 404       7.891  18.662   2.046  1.00 18.79    -0.269 OA
ENDROOT
BRANCH   6  14
HETATM   14  C7    D T 404       9.900  10.402   0.429  1.00 20.72     0.058 A 
HETATM   15  C9    D T 404      11.166  10.181  -0.167  1.00 20.76     0.006 A 
HETATM   16  C10   D T 404      11.450   8.961  -0.818  1.00 23.27     0.017 A 
HETATM   17  C24   D T 404      10.494   7.927  -0.891  1.00 27.37     0.056 A 
HETATM   18  C11   D T 404       9.216   8.156  -0.283  1.00 25.87     0.017 A 
HETATM   19  C12   D T 404       8.932   9.372   0.361  1.00 22.35     0.006 A 
BRANCH  17  20
HETATM   20  N17   D T 404      10.814   6.743  -1.529  1.00 26.72    -0.344 N 
HETATM   21  C18   D T 404       9.991   6.177  -2.575  1.00 27.97     0.137 C 
HETATM   22  C19   D T 404       9.095   5.017  -1.989  1.00 27.41     0.274 C 
HETATM   23  N20   D T 404       9.903   4.027  -1.178  1.00 25.74     0.143 N 
HETATM   24  C21   D T 404      10.751   4.708  -0.158  1.00 25.73     0.274 C 
HETATM   25  C23   D T 404       9.048   2.950  -0.536  1.00 22.56     0.286 C 
HETATM   26  C22   D T 404      11.657   5.775  -0.840  1.00 25.35     0.137 C 
ENDBRANCH  17  20
ENDBRANCH   6  14
BRANCH  12  27
HETATM   27  C20   D T 404       8.129  17.643   0.068  1.00 16.20     0.216 C 
BRANCH  27  28
HETATM   28  C27   D T 404       6.764  17.583  -0.453  1.00 15.98     0.014 A 
HETATM   29  C28   D T 404       6.215  18.604  -1.134  1.00 17.50    -0.001 A 
HETATM   30  C31   D T 404       4.893  18.512  -1.638  1.00 22.04    -0.000 A 
HETATM   31  C35   D T 404       4.127  17.341  -1.432  1.00 17.01    -0.000 A 
HETATM   32  C33   D T 404       4.678  16.292  -0.725  1.00 16.34    -0.000 A 
HETATM   33  C29   D T 404       5.955  16.379  -0.247  1.00 14.11    -0.001 A 
ENDBRANCH  27  28
BRANCH  27  34
HETATM   34  O34   D T 404       8.879  18.756  -0.463  1.00 16.74    -0.340 OA
HETATM   35  C36   D T 404      10.347  18.609  -0.430  1.00 18.61     0.175 C 
ENDBRANCH  27  34
ENDBRANCH  12  27
TORSDOF 5
ENDMDL
MODEL 7
REMARK VINA RESULT:    -7.216      4.337     11.090
REMARK INTER + INTRA:         -10.180
REMARK INTER:                  -9.159
REMARK INTRA:                  -1.021
REMARK UNBOUND:                -0.855
REMARK  5 active torsions:
REMARK  status: ('A' for Active; 'I' for Inactive)
REMARK       I    between atoms: N1_1  and  C25_25 
REMARK       I    between atoms: N5_5  and  C6_6 
REMARK    1  A    between atoms: C6_6  and  C7_7 
REMARK    2  A    between atoms: N17_17  and  C24_24 
REMARK    3  A    between atoms: C25_25  and  C20_32 
REMARK    4  A    between atoms: C27_27  and  C20_32 
REMARK    5  A    between atoms: C20_32  and  O34_35 
ROOT
HETATM    1  N1    D T 404      10.840   9.699   2.583  1.00 17.40    -0.308 N 
HETATM    2  N2    D T 404      10.251  11.486   5.584  1.00 15.80    -0.149 NA
HETATM    3  C3    D T 404       9.513  12.806   3.819  1.00 20.99     0.186 A 
HETATM    4  N4    D T 404       9.701  12.644   5.222  1.00 14.98    -0.129 NA
HETATM    5  N5    D T 404       9.026  13.837   3.316  1.00 14.25    -0.187 NA
HETATM    6  C6    D T 404       8.932  14.199   2.035  1.00 20.91     0.281 C 
HETATM    7  O8    D T 404       9.362  13.454   1.125  1.00 20.64    -0.265 OA
HETATM    8  C13   D T 404      10.447  10.867   4.605  1.00 15.72     0.104 A 
HETATM    9  C14   D T 404       9.939  11.755   3.345  1.00 16.99     0.055 A 
HETATM   10  C15   D T 404      10.153  11.032   2.171  1.00 11.92     0.136 A 
HETATM   11  C16   D T 404      10.950   9.623   4.134  1.00 12.55     0.152 A 
HETATM   12  C25   D T 404      11.239   8.485   1.533  1.00 17.08     0.266 C 
HETATM   13  O26   D T 404      11.742   7.446   2.036  1.00 18.79    -0.269 OA
ENDROOT
BRANCH   6  14
HETATM   14  C7    D T 404       8.372  15.403   1.566  1.00 20.72     0.058 A 
HETATM   15  C9    D T 404       7.873  15.509   0.245  1.00 20.76     0.006 A 
HETATM   16  C10   D T 404       7.321  16.722  -0.219  1.00 23.27     0.017 A 
HETATM   17  C24   D T 404       7.241  17.858   0.611  1.00 27.37     0.056 A 
HETATM   18  C11   D T 404       7.745  17.744   1.949  1.00 25.87     0.017 A 
HETATM   19  C12   D T 404       8.298  16.538   2.409  1.00 22.35     0.006 A 
BRANCH  17  20
HETATM   20  N17   D T 404       6.685  19.026   0.123  1.00 26.72    -0.344 N 
HETATM   21  C18   D T 404       6.886  20.309   0.758  1.00 27.97     0.137 C 
HETATM   22  C19   D T 404       5.626  20.684   1.632  1.00 27.41     0.274 C 
HETATM   23  N20   D T 404       4.333  20.527   0.861  1.00 25.74     0.143 N 
HETATM   24  C21   D T 404       4.237  19.191   0.206  1.00 25.73     0.274 C 
HETATM   25  C23   D T 404       3.103  20.802   1.706  1.00 22.56     0.286 C 
HETATM   26  C22   D T 404       5.482  18.946  -0.697  1.00 25.35     0.137 C 
ENDBRANCH  17  20
ENDBRANCH   6  14
BRANCH  12  27
HETATM   27  C20   D T 404      11.052   8.567   0.227  1.00 16.20     0.216 C 
BRANCH  27  28
HETATM   28  C27   D T 404      12.260   9.012  -0.467  1.00 15.98     0.014 A 
HETATM   29  C28   D T 404      12.574  10.313  -0.588  1.00 17.50    -0.001 A 
HETATM   30  C31   D T 404      13.760  10.714  -1.256  1.00 22.04    -0.000 A 
HETATM   31  C35   D T 404      14.633   9.747  -1.807  1.00 17.01    -0.000 A 
HETATM   32  C33   D T 404      14.314   8.410  -1.695  1.00 16.34    -0.000 A 
HETATM   33  C29   D T 404      13.175   8.025  -1.045  1.00 14.11    -0.001 A 
ENDBRANCH  27  28
BRANCH  27  34
HETATM   34  O34   D T 404      10.514   7.343  -0.319  1.00 16.74    -0.340 OA
HETATM   35  C36   D T 404       9.043   7.236  -0.316  1.00 18.61     0.175 C 
ENDBRANCH  27  34
ENDBRANCH  12  27
TORSDOF 5
ENDMDL
MODEL 8
REMARK VINA RESULT:    -6.985      4.271     10.451
REMARK INTER + INTRA:          -9.882
REMARK INTER:                  -8.931
REMARK INTRA:                  -0.952
REMARK UNBOUND:                -0.855
REMARK  5 active torsions:
REMARK  status: ('A' for Active; 'I' for Inactive)
REMARK       I    between atoms: N1_1  and  C25_25 
REMARK       I    between atoms: N5_5  and  C6_6 
REMARK    1  A    between atoms: C6_6  and  C7_7 
REMARK    2  A    between atoms: N17_17  and  C24_24 
REMARK    3  A    between atoms: C25_25  and  C20_32 
REMARK    4  A    between atoms: C27_27  and  C20_32 
REMARK    5  A    between atoms: C20_32  and  O34_35 
ROOT
HETATM    1  N1    D T 404      10.698  10.017   1.990  1.00 17.40    -0.308 N 
HETATM    2  N2    D T 404       9.975  12.274   4.622  1.00 15.80    -0.149 NA
HETATM    3  C3    D T 404       9.495  13.349   2.618  1.00 20.99     0.186 A 
HETATM    4  N4    D T 404       9.545  13.393   4.041  1.00 14.98    -0.129 NA
HETATM    5  N5    D T 404       9.132  14.318   1.923  1.00 14.25    -0.187 NA
HETATM    6  C6    D T 404       9.180  14.483   0.601  1.00 20.91     0.281 C 
HETATM    7  O8    D T 404       9.634  13.585  -0.143  1.00 20.64    -0.265 OA
HETATM    8  C13   D T 404      10.212  11.501   3.769  1.00 15.72     0.104 A 
HETATM    9  C14   D T 404       9.885  12.214   2.348  1.00 16.99     0.055 A 
HETATM   10  C15   D T 404      10.149  11.310   1.321  1.00 11.92     0.136 A 
HETATM   11  C16   D T 404      10.663  10.173   3.538  1.00 12.55     0.152 A 
HETATM   12  C25   D T 404      11.099   8.635   1.174  1.00 17.08     0.266 C 
HETATM   13  O26   D T 404      11.478   7.658   1.872  1.00 18.79    -0.269 OA
ENDROOT
BRANCH   6  14
HETATM   14  C7    D T 404       8.753  15.632  -0.093  1.00 20.72     0.058 A 
HETATM   15  C9    D T 404       7.555  15.624  -0.849  1.00 20.76     0.006 A 
HETATM   16  C10   D T 404       7.140  16.778  -1.549  1.00 23.27     0.017 A 
HETATM   17  C24   D T 404       7.892  17.969  -1.514  1.00 27.37     0.056 A 
HETATM   18  C11   D T 404       9.102  17.972  -0.745  1.00 25.87     0.017 A 
HETATM   19  C12   D T 404       9.517  16.823  -0.052  1.00 22.35     0.006 A 
BRANCH  17  20
HETATM   20  N17   D T 404       7.446  19.081  -2.204  1.00 26.72    -0.344 N 
HETATM   21  C18   D T 404       6.043  19.410  -2.326  1.00 27.97     0.137 C 
HETATM   22  C19   D T 404       5.502  18.958  -3.738  1.00 27.41     0.274 C 
HETATM   23  N20   D T 404       6.390  19.434  -4.867  1.00 25.74     0.143 N 
HETATM   24  C21   D T 404       7.821  19.088  -4.630  1.00 25.73     0.274 C 
HETATM   25  C23   D T 404       5.935  18.940  -6.228  1.00 22.56     0.286 C 
HETATM   26  C22   D T 404       8.287  19.645  -3.252  1.00 25.35     0.137 C 
ENDBRANCH  17  20
ENDBRANCH   6  14
BRANCH  12  27
HETATM   27  C20   D T 404      11.036   8.527  -0.142  1.00 16.20     0.216 C 
BRANCH  27  28
HETATM   28  C27   D T 404      12.353   8.670  -0.761  1.00 15.98     0.014 A 
HETATM   29  C28   D T 404      12.995   7.629  -1.319  1.00 17.50    -0.001 A 
HETATM   30  C31   D T 404      14.267   7.800  -1.923  1.00 22.04    -0.000 A 
HETATM   31  C35   D T 404      14.882   9.073  -1.950  1.00 17.01    -0.000 A 
HETATM   32  C33   D T 404      14.235  10.145  -1.371  1.00 16.34    -0.000 A 
HETATM   33  C29   D T 404      13.007   9.980  -0.796  1.00 14.11    -0.001 A 
ENDBRANCH  27  28
BRANCH  27  34
HETATM   34  O34   D T 404      10.355   7.322  -0.552  1.00 16.74    -0.340 OA
HETATM   35  C36   D T 404       8.882   7.372  -0.495  1.00 18.61     0.175 C 
ENDBRANCH  27  34
ENDBRANCH  12  27
TORSDOF 5
ENDMDL
MODEL 9
REMARK VINA RESULT:    -6.985      3.390     10.447
REMARK INTER + INTRA:          -9.882
REMARK INTER:                 -10.459
REMARK INTRA:                   0.576
REMARK UNBOUND:                -0.855
REMARK  5 active torsions:
REMARK  status: ('A' for Active; 'I' for Inactive)
REMARK       I    between atoms: N1_1  and  C25_25 
REMARK       I    between atoms: N5_5  and  C6_6 
REMARK    1  A    between atoms: C6_6  and  C7_7 
REMARK    2  A    between atoms: N17_17  and  C24_24 
REMARK    3  A    between atoms: C25_25  and  C20_32 
REMARK    4  A    between atoms: C27_27  and  C20_32 
REMARK    5  A    between atoms: C20_32  and  O34_35 
ROOT
HETATM    1  N1    D T 404       7.674   2.800  -5.127  1.00 17.40    -0.308 N 
HETATM    2  N2    D T 404       8.356   1.279  -2.002  1.00 15.80    -0.149 NA
HETATM    3  C3    D T 404       8.815   3.549  -1.797  1.00 20.99     0.186 A 
HETATM    4  N4    D T 404       8.777   2.256  -1.199  1.00 14.98    -0.129 NA
HETATM    5  N5    D T 404       9.199   4.566  -1.188  1.00 14.25    -0.187 NA
HETATM    6  C6    D T 404       9.438   5.795  -1.647  1.00 20.91     0.281 C 
HETATM    7  O8    D T 404       9.271   6.072  -2.856  1.00 20.64    -0.265 OA
HETATM    8  C13   D T 404       8.111   1.760  -3.045  1.00 15.72     0.104 A 
HETATM    9  C14   D T 404       8.415   3.351  -2.944  1.00 16.99     0.055 A 
HETATM   10  C15   D T 404       8.120   3.944  -4.170  1.00 11.92     0.136 A 
HETATM   11  C16   D T 404       7.633   1.453  -4.349  1.00 12.55     0.152 A 
HETATM   12  C25   D T 404       7.167   3.024  -6.685  1.00 17.08     0.266 C 
HETATM   13  O26   D T 404       6.789   1.997  -7.308  1.00 18.79    -0.269 OA
ENDROOT
BRANCH   6  14
HETATM   14  C7    D T 404       9.888   6.882  -0.872  1.00 20.72     0.058 A 
HETATM   15  C9    D T 404       8.985   7.871  -0.409  1.00 20.76     0.006 A 
HETATM   16  C10   D T 404       9.446   8.961   0.359  1.00 23.27     0.017 A 
HETATM   17  C24   D T 404      10.808   9.099   0.696  1.00 27.37     0.056 A 
HETATM   18  C11   D T 404      11.717   8.093   0.227  1.00 25.87     0.017 A 
HETATM   19  C12   D T 404      11.258   7.010  -0.541  1.00 22.35     0.006 A 
BRANCH  17  20
HETATM   20  N17   D T 404      11.219  10.176   1.459  1.00 26.72    -0.344 N 
HETATM   21  C18   D T 404      10.311  10.925   2.300  1.00 27.97     0.137 C 
HETATM   22  C19   D T 404       9.885  12.262   1.578  1.00 27.41     0.274 C 
HETATM   23  N20   D T 404      11.077  13.029   1.049  1.00 25.74     0.143 N 
HETATM   24  C21   D T 404      11.976  12.163   0.233  1.00 25.73     0.274 C 
HETATM   25  C23   D T 404      10.686  14.276   0.277  1.00 22.56     0.286 C 
HETATM   26  C22   D T 404      12.409  10.913   1.056  1.00 25.35     0.137 C 
ENDBRANCH  17  20
ENDBRANCH   6  14
BRANCH  12  27
HETATM   27  C20   D T 404       7.146   4.206  -7.277  1.00 16.20     0.216 C 
BRANCH  27  28
HETATM   28  C27   D T 404       5.985   4.353  -8.153  1.00 15.98     0.014 A 
HETATM   29  C28   D T 404       4.996   5.223  -7.887  1.00 17.50    -0.001 A 
HETATM   30  C31   D T 404       3.888   5.353  -8.762  1.00 22.04    -0.000 A 
HETATM   31  C35   D T 404       3.805   4.566  -9.935  1.00 17.01    -0.000 A 
HETATM   32  C33   D T 404       4.811   3.664 -10.212  1.00 16.34    -0.000 A 
HETATM   33  C29   D T 404       5.882   3.545  -9.371  1.00 14.11    -0.001 A 
ENDBRANCH  27  28
BRANCH  27  34
HETATM   34  O34   D T 404       7.267   5.286  -6.326  1.00 16.74    -0.340 OA
HETATM   35  C36   D T 404       8.247   6.333  -6.673  1.00 18.61     0.175 C 
ENDBRANCH  27  34
ENDBRANCH  12  27
TORSDOF 5
ENDMDL
