MODEL 1
REMARK VINA RESULT:    -8.551      0.000      0.000
REMARK INTER + INTRA:         -11.768
REMARK INTER:                 -11.050
REMARK INTRA:                  -0.718
REMARK UNBOUND:                -0.718
REMARK  5 active torsions:
REMARK  status: ('A' for Active; 'I' for Inactive)
REMARK       I    between atoms: N1_1  and  C25_25 
REMARK       I    between atoms: N5_5  and  C6_6 
REMARK    1  A    between atoms: C6_6  and  C7_7 
REMARK    2  A    between atoms: N17_17  and  C24_24 
REMARK    3  A    between atoms: C25_25  and  C20_32 
REMARK    4  A    between atoms: C27_27  and  C20_32 
REMARK    5  A    between atoms: C20_32  and  O34_35 
ROOT
HETATM    1  N1    D T 404       0.285   7.141   6.676  1.00 17.40    -0.308 N 
HETATM    2  N2    D T 404      -0.981   4.180   8.149  1.00 15.80    -0.149 NA
HETATM    3  C3    D T 404       1.160   4.524   8.985  1.00 20.99     0.186 A 
HETATM    4  N4    D T 404      -0.019   3.724   8.951  1.00 14.98    -0.129 NA
HETATM    5  N5    D T 404       2.157   4.229   9.671  1.00 14.25    -0.187 NA
HETATM    6  C6    D T 404       3.372   4.779   9.690  1.00 20.91     0.281 C 
HETATM    7  O8    D T 404       3.650   5.749   8.946  1.00 20.64    -0.265 OA
HETATM    8  C13   D T 404      -0.591   5.171   7.655  1.00 15.72     0.104 A 
HETATM    9  C14   D T 404       0.905   5.451   8.218  1.00 16.99     0.055 A 
HETATM   10  C15   D T 404       1.385   6.631   7.652  1.00 11.92     0.136 A 
HETATM   11  C16   D T 404      -0.960   6.212   6.761  1.00 12.55     0.152 A 
HETATM   12  C25   D T 404       0.376   8.548   5.811  1.00 17.08     0.266 C 
HETATM   13  O26   D T 404      -0.626   8.843   5.108  1.00 18.79    -0.269 OA
ENDROOT
BRANCH   6  14
HETATM   14  C7    D T 404       4.446   4.360  10.499  1.00 20.72     0.058 A 
HETATM   15  C9    D T 404       5.777   4.377  10.013  1.00 20.76     0.006 A 
HETATM   16  C10   D T 404       6.844   3.946  10.827  1.00 23.27     0.017 A 
HETATM   17  C24   D T 404       6.629   3.493  12.144  1.00 27.37     0.056 A 
HETATM   18  C11   D T 404       5.281   3.479  12.632  1.00 25.87     0.017 A 
HETATM   19  C12   D T 404       4.216   3.905  11.820  1.00 22.35     0.006 A 
BRANCH  17  20
HETATM   20  N17   D T 404       7.703   3.088  12.913  1.00 26.72    -0.344 N 
HETATM   21  C18   D T 404       7.543   2.520  14.234  1.00 27.97     0.137 C 
HETATM   22  C19   D T 404       7.834   3.616  15.333  1.00 27.41     0.274 C 
HETATM   23  N20   D T 404       9.138   4.343  15.082  1.00 25.74     0.143 N 
HETATM   24  C21   D T 404       9.229   4.852  13.683  1.00 25.73     0.274 C 
HETATM   25  C23   D T 404       9.395   5.457  16.077  1.00 22.56     0.286 C 
HETATM   26  C22   D T 404       9.010   3.686  12.673  1.00 25.35     0.137 C 
ENDBRANCH  17  20
ENDBRANCH   6  14
BRANCH  12  27
HETATM   27  C20   D T 404       1.430   9.345   5.836  1.00 16.20     0.216 C 
BRANCH  27  28
HETATM   28  C27   D T 404       2.503   8.853   4.972  1.00 15.98     0.014 A 
HETATM   29  C28   D T 404       2.436   8.942   3.632  1.00 17.50    -0.001 A 
HETATM   30  C31   D T 404       3.499   8.467   2.820  1.00 22.04    -0.000 A 
HETATM   31  C35   D T 404       4.650   7.894   3.409  1.00 17.01    -0.000 A 
HETATM   32  C33   D T 404       4.724   7.794   4.783  1.00 16.34    -0.000 A 
HETATM   33  C29   D T 404       3.702   8.256   5.564  1.00 14.11    -0.001 A 
ENDBRANCH  27  28
BRANCH  27  34
HETATM   34  O34   D T 404       1.075  10.716   5.554  1.00 16.74    -0.340 OA
HETATM   35  C36   D T 404       0.260  11.388   6.584  1.00 18.61     0.175 C 
ENDBRANCH  27  34
ENDBRANCH  12  27
TORSDOF 5
ENDMDL
MODEL 2
REMARK VINA RESULT:    -7.920      1.627      2.116
REMARK INTER + INTRA:         -10.954
REMARK INTER:                 -10.498
REMARK INTRA:                  -0.456
REMARK UNBOUND:                -0.718
REMARK  5 active torsions:
REMARK  status: ('A' for Active; 'I' for Inactive)
REMARK       I    between atoms: N1_1  and  C25_25 
REMARK       I    between atoms: N5_5  and  C6_6 
REMARK    1  A    between atoms: C6_6  and  C7_7 
REMARK    2  A    between atoms: N17_17  and  C24_24 
REMARK    3  A    between atoms: C25_25  and  C20_32 
REMARK    4  A    between atoms: C27_27  and  C20_32 
REMARK    5  A    between atoms: C20_32  and  O34_35 
ROOT
HETATM    1  N1    D T 404       2.111   7.386   6.631  1.00 17.40    -0.308 N 
HETATM    2  N2    D T 404      -0.015   5.400   8.650  1.00 15.80    -0.149 NA
HETATM    3  C3    D T 404       2.162   5.098   9.407  1.00 20.99     0.186 A 
HETATM    4  N4    D T 404       0.776   4.784   9.527  1.00 14.98    -0.129 NA
HETATM    5  N5    D T 404       3.035   4.595  10.140  1.00 14.25    -0.187 NA
HETATM    6  C6    D T 404       4.364   4.666  10.053  1.00 20.91     0.281 C 
HETATM    7  O8    D T 404       4.914   5.317   9.136  1.00 20.64    -0.265 OA
HETATM    8  C13   D T 404       0.665   6.077   7.974  1.00 15.72     0.104 A 
HETATM    9  C14   D T 404       2.198   5.898   8.474  1.00 16.99     0.055 A 
HETATM   10  C15   D T 404       3.024   6.703   7.689  1.00 11.92     0.136 A 
HETATM   11  C16   D T 404       0.627   6.999   6.892  1.00 12.55     0.152 A 
HETATM   12  C25   D T 404       2.633   8.483   5.509  1.00 17.08     0.266 C 
HETATM   13  O26   D T 404       1.755   8.985   4.759  1.00 18.79    -0.269 OA
ENDROOT
BRANCH   6  14
HETATM   14  C7    D T 404       5.273   4.043  10.931  1.00 20.72     0.058 A 
HETATM   15  C9    D T 404       6.642   3.910  10.589  1.00 20.76     0.006 A 
HETATM   16  C10   D T 404       7.543   3.277  11.470  1.00 23.27     0.017 A 
HETATM   17  C24   D T 404       7.120   2.765  12.714  1.00 27.37     0.056 A 
HETATM   18  C11   D T 404       5.734   2.904  13.055  1.00 25.87     0.017 A 
HETATM   19  C12   D T 404       4.835   3.531  12.176  1.00 22.35     0.006 A 
BRANCH  17  20
HETATM   20  N17   D T 404       8.035   2.160  13.552  1.00 26.72    -0.344 N 
HETATM   21  C18   D T 404       7.689   1.702  14.881  1.00 27.97     0.137 C 
HETATM   22  C19   D T 404       8.174   2.750  15.958  1.00 27.41     0.274 C 
HETATM   23  N20   D T 404       9.620   3.149  15.755  1.00 25.74     0.143 N 
HETATM   24  C21   D T 404       9.889   3.562  14.347  1.00 25.73     0.274 C 
HETATM   25  C23   D T 404      10.081   4.218  16.726  1.00 22.56     0.286 C 
HETATM   26  C22   D T 404       9.455   2.433  13.365  1.00 25.35     0.137 C 
ENDBRANCH  17  20
ENDBRANCH   6  14
BRANCH  12  27
HETATM   27  C20   D T 404       3.900   8.838   5.379  1.00 16.20     0.216 C 
BRANCH  27  28
HETATM   28  C27   D T 404       4.149   9.506   4.101  1.00 15.98     0.014 A 
HETATM   29  C28   D T 404       3.801  10.786   3.888  1.00 17.50    -0.001 A 
HETATM   30  C31   D T 404       4.066  11.411   2.641  1.00 22.04    -0.000 A 
HETATM   31  C35   D T 404       4.706  10.695   1.602  1.00 17.01    -0.000 A 
HETATM   32  C33   D T 404       5.061   9.378   1.812  1.00 16.34    -0.000 A 
HETATM   33  C29   D T 404       4.809   8.779   3.015  1.00 14.11    -0.001 A 
ENDBRANCH  27  28
BRANCH  27  34
HETATM   34  O34   D T 404       4.360   9.612   6.508  1.00 16.74    -0.340 OA
HETATM   35  C36   D T 404       5.707   9.273   7.006  1.00 18.61     0.175 C 
ENDBRANCH  27  34
ENDBRANCH  12  27
TORSDOF 5
ENDMDL
MODEL 3
REMARK VINA RESULT:    -7.883      3.132     10.016
REMARK INTER + INTRA:         -10.906
REMARK INTER:                 -10.398
REMARK INTRA:                  -0.508
REMARK UNBOUND:                -0.718
REMARK  5 active torsions:
REMARK  status: ('A' for Active; 'I' for Inactive)
REMARK       I    between atoms: N1_1  and  C25_25 
REMARK       I    between atoms: N5_5  and  C6_6 
REMARK    1  A    between atoms: C6_6  and  C7_7 
REMARK    2  A    between atoms: N17_17  and  C24_24 
REMARK    3  A    between atoms: C25_25  and  C20_32 
REMARK    4  A    between atoms: C27_27  and  C20_32 
REMARK    5  A    between atoms: C20_32  and  O34_35 
ROOT
HETATM    1  N1    D T 404       3.072   4.712  10.058  1.00 17.40    -0.308 N 
HETATM    2  N2    D T 404      -0.145   5.508   8.809  1.00 15.80    -0.149 NA
HETATM    3  C3    D T 404       1.419   6.588   7.471  1.00 20.99     0.186 A 
HETATM    4  N4    D T 404       0.052   6.312   7.765  1.00 14.98    -0.129 NA
HETATM    5  N5    D T 404       1.773   7.333   6.537  1.00 14.25    -0.187 NA
HETATM    6  C6    D T 404       2.983   7.807   6.236  1.00 20.91     0.281 C 
HETATM    7  O8    D T 404       3.981   7.508   6.933  1.00 20.64    -0.265 OA
HETATM    8  C13   D T 404       0.910   5.218   9.236  1.00 15.72     0.104 A 
HETATM    9  C14   D T 404       2.034   5.951   8.324  1.00 16.99     0.055 A 
HETATM   10  C15   D T 404       3.297   5.612   8.808  1.00 11.92     0.136 A 
HETATM   11  C16   D T 404       1.550   4.451  10.248  1.00 12.55     0.152 A 
HETATM   12  C25   D T 404       4.283   4.014  10.942  1.00 17.08     0.266 C 
HETATM   13  O26   D T 404       3.929   3.268  11.893  1.00 18.79    -0.269 OA
ENDROOT
BRANCH   6  14
HETATM   14  C7    D T 404       3.280   8.663   5.158  1.00 20.72     0.058 A 
HETATM   15  C9    D T 404       2.465   9.787   4.874  1.00 20.76     0.006 A 
HETATM   16  C10   D T 404       2.763  10.634   3.787  1.00 23.27     0.017 A 
HETATM   17  C24   D T 404       3.877  10.400   2.956  1.00 27.37     0.056 A 
HETATM   18  C11   D T 404       4.700   9.262   3.249  1.00 25.87     0.017 A 
HETATM   19  C12   D T 404       4.401   8.416   4.330  1.00 22.35     0.006 A 
BRANCH  17  20
HETATM   20  N17   D T 404       4.142  11.258   1.907  1.00 26.72    -0.344 N 
HETATM   21  C18   D T 404       4.720  10.807   0.659  1.00 27.97     0.137 C 
HETATM   22  C19   D T 404       6.266  11.128   0.631  1.00 27.41     0.274 C 
HETATM   23  N20   D T 404       6.556  12.564   1.010  1.00 25.74     0.143 N 
HETATM   24  C21   D T 404       5.883  12.949   2.284  1.00 25.73     0.274 C 
HETATM   25  C23   D T 404       8.040  12.871   1.073  1.00 22.56     0.286 C 
HETATM   26  C22   D T 404       4.353  12.673   2.186  1.00 25.35     0.137 C 
ENDBRANCH  17  20
ENDBRANCH   6  14
BRANCH  12  27
HETATM   27  C20   D T 404       5.566   4.205  10.689  1.00 16.20     0.216 C 
BRANCH  27  28
HETATM   28  C27   D T 404       6.409   3.771  11.803  1.00 15.98     0.014 A 
HETATM   29  C28   D T 404       7.086   2.610  11.774  1.00 17.50    -0.001 A 
HETATM   30  C31   D T 404       7.906   2.222  12.865  1.00 22.04    -0.000 A 
HETATM   31  C35   D T 404       8.028   3.054  14.002  1.00 17.01    -0.000 A 
HETATM   32  C33   D T 404       7.332   4.244  14.043  1.00 16.34    -0.000 A 
HETATM   33  C29   D T 404       6.546   4.620  12.989  1.00 14.11    -0.001 A 
ENDBRANCH  27  28
BRANCH  27  34
HETATM   34  O34   D T 404       5.961   3.616   9.432  1.00 16.74    -0.340 OA
HETATM   35  C36   D T 404       6.683   4.512   8.508  1.00 18.61     0.175 C 
ENDBRANCH  27  34
ENDBRANCH  12  27
TORSDOF 5
ENDMDL
MODEL 4
REMARK VINA RESULT:    -7.723      3.286      9.868
REMARK INTER + INTRA:         -10.699
REMARK INTER:                  -9.804
REMARK INTRA:                  -0.895
REMARK UNBOUND:                -0.718
REMARK  5 active torsions:
REMARK  status: ('A' for Active; 'I' for Inactive)
REMARK       I    between atoms: N1_1  and  C25_25 
REMARK       I    between atoms: N5_5  and  C6_6 
REMARK    1  A    between atoms: C6_6  and  C7_7 
REMARK    2  A    between atoms: N17_17  and  C24_24 
REMARK    3  A    between atoms: C25_25  and  C20_32 
REMARK    4  A    between atoms: C27_27  and  C20_32 
REMARK    5  A    between atoms: C20_32  and  O34_35 
ROOT
HETATM    1  N1    D T 404       4.864   3.835  11.015  1.00 17.40    -0.308 N 
HETATM    2  N2    D T 404       1.566   4.552   9.943  1.00 15.80    -0.149 NA
HETATM    3  C3    D T 404       3.030   5.504   8.408  1.00 20.99     0.186 A 
HETATM    4  N4    D T 404       1.688   5.266   8.824  1.00 14.98    -0.129 NA
HETATM    5  N5    D T 404       3.316   6.166   7.393  1.00 14.25    -0.187 NA
HETATM    6  C6    D T 404       4.502   6.602   6.965  1.00 20.91     0.281 C 
HETATM    7  O8    D T 404       5.547   6.354   7.609  1.00 20.64    -0.265 OA
HETATM    8  C13   D T 404       2.648   4.290  10.314  1.00 15.72     0.104 A 
HETATM    9  C14   D T 404       3.705   4.935   9.264  1.00 16.99     0.055 A 
HETATM   10  C15   D T 404       4.999   4.625   9.681  1.00 11.92     0.136 A 
HETATM   11  C16   D T 404       3.360   3.604  11.337  1.00 12.55     0.152 A 
HETATM   12  C25   D T 404       6.135   3.201  11.862  1.00 17.08     0.266 C 
HETATM   13  O26   D T 404       5.850   2.540  12.896  1.00 18.79    -0.269 OA
ENDROOT
BRANCH   6  14
HETATM   14  C7    D T 404       4.720   7.364   5.801  1.00 20.72     0.058 A 
HETATM   15  C9    D T 404       5.986   7.377   5.164  1.00 20.76     0.006 A 
HETATM   16  C10   D T 404       6.198   8.150   4.004  1.00 23.27     0.017 A 
HETATM   17  C24   D T 404       5.166   8.926   3.437  1.00 27.37     0.056 A 
HETATM   18  C11   D T 404       3.886   8.908   4.085  1.00 25.87     0.017 A 
HETATM   19  C12   D T 404       3.675   8.140   5.243  1.00 22.35     0.006 A 
BRANCH  17  20
HETATM   20  N17   D T 404       5.411   9.662   2.295  1.00 26.72    -0.344 N 
HETATM   21  C18   D T 404       6.734  10.127   1.938  1.00 27.97     0.137 C 
HETATM   22  C19   D T 404       6.898  11.648   2.330  1.00 27.41     0.274 C 
HETATM   23  N20   D T 404       5.746  12.493   1.828  1.00 25.74     0.143 N 
HETATM   24  C21   D T 404       4.426  11.911   2.206  1.00 25.73     0.274 C 
HETATM   25  C23   D T 404       5.840  13.941   2.267  1.00 22.56     0.286 C 
HETATM   26  C22   D T 404       4.326  10.439   1.707  1.00 25.35     0.137 C 
ENDBRANCH  17  20
ENDBRANCH   6  14
BRANCH  12  27
HETATM   27  C20   D T 404       7.397   3.359  11.501  1.00 16.20     0.216 C 
BRANCH  27  28
HETATM   28  C27   D T 404       7.898   4.689  11.847  1.00 15.98     0.014 A 
HETATM   29  C28   D T 404       7.866   5.156  13.107  1.00 17.50    -0.001 A 
HETATM   30  C31   D T 404       8.371   6.447  13.414  1.00 22.04    -0.000 A 
HETATM   31  C35   D T 404       8.919   7.263  12.398  1.00 17.01    -0.000 A 
HETATM   32  C33   D T 404       8.950   6.793  11.101  1.00 16.34    -0.000 A 
HETATM   33  C29   D T 404       8.468   5.548  10.807  1.00 14.11    -0.001 A 
ENDBRANCH  27  28
BRANCH  27  34
HETATM   34  O34   D T 404       8.239   2.300  12.006  1.00 16.74    -0.340 OA
HETATM   35  C36   D T 404       9.645   2.338  11.562  1.00 18.61     0.175 C 
ENDBRANCH  27  34
ENDBRANCH  12  27
TORSDOF 5
ENDMDL
MODEL 5
REMARK VINA RESULT:    -7.633      2.794     10.354
REMARK INTER + INTRA:         -10.582
REMARK INTER:                 -10.030
REMARK INTRA:                  -0.553
REMARK UNBOUND:                -0.718
REMARK  5 active torsions:
REMARK  status: ('A' for Active; 'I' for Inactive)
REMARK       I    between atoms: N1_1  and  C25_25 
REMARK       I    between atoms: N5_5  and  C6_6 
REMARK    1  A    between atoms: C6_6  and  C7_7 
REMARK    2  A    between atoms: N17_17  and  C24_24 
REMARK    3  A    between atoms: C25_25  and  C20_32 
REMARK    4  A    between atoms: C27_27  and  C20_32 
REMARK    5  A    between atoms: C20_32  and  O34_35 
ROOT
HETATM    1  N1    D T 404       3.675   4.293  10.641  1.00 17.40    -0.308 N 
HETATM    2  N2    D T 404       0.444   4.582   9.219  1.00 15.80    -0.149 NA
HETATM    3  C3    D T 404       1.871   5.971   8.019  1.00 20.99     0.186 A 
HETATM    4  N4    D T 404       0.557   5.454   8.217  1.00 14.98    -0.129 NA
HETATM    5  N5    D T 404       2.142   6.806   7.135  1.00 14.25    -0.187 NA
HETATM    6  C6    D T 404       3.267   7.492   6.927  1.00 20.91     0.281 C 
HETATM    7  O8    D T 404       4.261   7.337   7.675  1.00 20.64    -0.265 OA
HETATM    8  C13   D T 404       1.507   4.458   9.702  1.00 15.72     0.104 A 
HETATM    9  C14   D T 404       2.537   5.411   8.887  1.00 16.99     0.055 A 
HETATM   10  C15   D T 404       3.811   5.271   9.439  1.00 11.92     0.136 A 
HETATM   11  C16   D T 404       2.212   3.768  10.725  1.00 12.55     0.152 A 
HETATM   12  C25   D T 404       4.936   3.772  11.575  1.00 17.08     0.266 C 
HETATM   13  O26   D T 404       4.663   2.936  12.476  1.00 18.79    -0.269 OA
ENDROOT
BRANCH   6  14
HETATM   14  C7    D T 404       3.471   8.433   5.900  1.00 20.72     0.058 A 
HETATM   15  C9    D T 404       2.376   9.073   5.269  1.00 20.76     0.006 A 
HETATM   16  C10   D T 404       2.589  10.007   4.234  1.00 23.27     0.017 A 
HETATM   17  C24   D T 404       3.888  10.340   3.799  1.00 27.37     0.056 A 
HETATM   18  C11   D T 404       4.993   9.691   4.442  1.00 25.87     0.017 A 
HETATM   19  C12   D T 404       4.781   8.757   5.471  1.00 22.35     0.006 A 
BRANCH  17  20
HETATM   20  N17   D T 404       4.055  11.267   2.789  1.00 26.72    -0.344 N 
HETATM   21  C18   D T 404       3.055  12.267   2.477  1.00 27.97     0.137 C 
HETATM   22  C19   D T 404       2.214  11.816   1.219  1.00 27.41     0.274 C 
HETATM   23  N20   D T 404       3.097  11.386   0.067  1.00 25.74     0.143 N 
HETATM   24  C21   D T 404       4.122  10.391   0.496  1.00 25.73     0.274 C 
HETATM   25  C23   D T 404       2.310  10.869  -1.121  1.00 22.56     0.286 C 
HETATM   26  C22   D T 404       4.954  10.956   1.685  1.00 25.35     0.137 C 
ENDBRANCH  17  20
ENDBRANCH   6  14
BRANCH  12  27
HETATM   27  C20   D T 404       6.179   4.191  11.410  1.00 16.20     0.216 C 
BRANCH  27  28
HETATM   28  C27   D T 404       7.016   3.876  12.568  1.00 15.98     0.014 A 
HETATM   29  C28   D T 404       7.853   2.825  12.576  1.00 17.50    -0.001 A 
HETATM   30  C31   D T 404       8.662   2.552  13.710  1.00 22.04    -0.000 A 
HETATM   31  C35   D T 404       8.602   3.385  14.851  1.00 17.01    -0.000 A 
HETATM   32  C33   D T 404       7.740   4.463  14.853  1.00 16.34    -0.000 A 
HETATM   33  C29   D T 404       6.966   4.728  13.758  1.00 14.11    -0.001 A 
ENDBRANCH  27  28
BRANCH  27  34
HETATM   34  O34   D T 404       6.747   3.717  10.170  1.00 16.74    -0.340 OA
HETATM   35  C36   D T 404       7.502   4.718   9.392  1.00 18.61     0.175 C 
ENDBRANCH  27  34
ENDBRANCH  12  27
TORSDOF 5
ENDMDL
MODEL 6
REMARK VINA RESULT:    -7.229      3.401     10.271
REMARK INTER + INTRA:         -10.061
REMARK INTER:                  -9.043
REMARK INTRA:                  -1.018
REMARK UNBOUND:                -0.718
REMARK  5 active torsions:
REMARK  status: ('A' for Active; 'I' for Inactive)
REMARK       I    between atoms: N1_1  and  C25_25 
REMARK       I    between atoms: N5_5  and  C6_6 
REMARK    1  A    between atoms: C6_6  and  C7_7 
REMARK    2  A    between atoms: N17_17  and  C24_24 
REMARK    3  A    between atoms: C25_25  and  C20_32 
REMARK    4  A    between atoms: C27_27  and  C20_32 
REMARK    5  A    between atoms: C20_32  and  O34_35 
ROOT
HETATM    1  N1    D T 404       7.256   3.080  11.777  1.00 17.40    -0.308 N 
HETATM    2  N2    D T 404       3.756   3.610  11.897  1.00 15.80    -0.149 NA
HETATM    3  C3    D T 404       4.546   4.558   9.927  1.00 20.99     0.186 A 
HETATM    4  N4    D T 404       3.445   4.280  10.788  1.00 14.98    -0.129 NA
HETATM    5  N5    D T 404       4.428   5.188   8.859  1.00 14.25    -0.187 NA
HETATM    6  C6    D T 404       5.368   5.656   8.037  1.00 20.91     0.281 C 
HETATM    7  O8    D T 404       6.583   5.480   8.284  1.00 20.64    -0.265 OA
HETATM    8  C13   D T 404       4.912   3.410  11.877  1.00 15.72     0.104 A 
HETATM    9  C14   D T 404       5.505   4.054  10.510  1.00 16.99     0.055 A 
HETATM   10  C15   D T 404       6.878   3.818  10.460  1.00 11.92     0.136 A 
HETATM   11  C16   D T 404       5.969   2.799  12.607  1.00 12.55     0.152 A 
HETATM   12  C25   D T 404       8.773   2.538  12.148  1.00 17.08     0.266 C 
HETATM   13  O26   D T 404       8.899   1.910  13.232  1.00 18.79    -0.269 OA
ENDROOT
BRANCH   6  14
HETATM   14  C7    D T 404       5.129   6.376   6.850  1.00 20.72     0.058 A 
HETATM   15  C9    D T 404       6.138   6.515   5.865  1.00 20.76     0.006 A 
HETATM   16  C10   D T 404       5.893   7.246   4.684  1.00 23.27     0.017 A 
HETATM   17  C24   D T 404       4.645   7.854   4.441  1.00 27.37     0.056 A 
HETATM   18  C11   D T 404       3.627   7.709   5.440  1.00 25.87     0.017 A 
HETATM   19  C12   D T 404       3.871   6.984   6.619  1.00 22.35     0.006 A 
BRANCH  17  20
HETATM   20  N17   D T 404       4.441   8.554   3.268  1.00 26.72    -0.344 N 
HETATM   21  C18   D T 404       5.532   8.976   2.415  1.00 27.97     0.137 C 
HETATM   22  C19   D T 404       5.852  10.503   2.662  1.00 27.41     0.274 C 
HETATM   23  N20   D T 404       4.607  11.362   2.613  1.00 25.74     0.143 N 
HETATM   24  C21   D T 404       3.526  10.822   3.488  1.00 25.73     0.274 C 
HETATM   25  C23   D T 404       4.880  12.818   2.932  1.00 22.56     0.286 C 
HETATM   26  C22   D T 404       3.224   9.341   3.115  1.00 25.35     0.137 C 
ENDBRANCH  17  20
ENDBRANCH   6  14
BRANCH  12  27
HETATM   27  C20   D T 404       9.822   2.734  11.368  1.00 16.20     0.216 C 
BRANCH  27  28
HETATM   28  C27   D T 404      10.348   4.093  11.498  1.00 15.98     0.014 A 
HETATM   29  C28   D T 404      10.758   4.587  12.679  1.00 17.50    -0.001 A 
HETATM   30  C31   D T 404      11.276   5.906  12.772  1.00 22.04    -0.000 A 
HETATM   31  C35   D T 404      11.372   6.721  11.621  1.00 17.01    -0.000 A 
HETATM   32  C33   D T 404      10.948   6.223  10.406  1.00 16.34    -0.000 A 
HETATM   33  C29   D T 404      10.454   4.951  10.317  1.00 14.11    -0.001 A 
ENDBRANCH  27  28
BRANCH  27  34
HETATM   34  O34   D T 404      10.836   1.725  11.564  1.00 16.74    -0.340 OA
HETATM   35  C36   D T 404      11.415   1.156  10.332  1.00 18.61     0.175 C 
ENDBRANCH  27  34
ENDBRANCH  12  27
TORSDOF 5
ENDMDL
MODEL 7
REMARK VINA RESULT:    -7.176      6.382      8.998
REMARK INTER + INTRA:          -9.992
REMARK INTER:                  -9.081
REMARK INTRA:                  -0.911
REMARK UNBOUND:                -0.718
REMARK  5 active torsions:
REMARK  status: ('A' for Active; 'I' for Inactive)
REMARK       I    between atoms: N1_1  and  C25_25 
REMARK       I    between atoms: N5_5  and  C6_6 
REMARK    1  A    between atoms: C6_6  and  C7_7 
REMARK    2  A    between atoms: N17_17  and  C24_24 
REMARK    3  A    between atoms: C25_25  and  C20_32 
REMARK    4  A    between atoms: C27_27  and  C20_32 
REMARK    5  A    between atoms: C20_32  and  O34_35 
ROOT
HETATM    1  N1    D T 404       6.996   8.123   7.454  1.00 17.40    -0.308 N 
HETATM    2  N2    D T 404       8.076  11.359   6.500  1.00 15.80    -0.149 NA
HETATM    3  C3    D T 404       8.444  11.136   8.784  1.00 20.99     0.186 A 
HETATM    4  N4    D T 404       8.520  11.943   7.612  1.00 14.98    -0.129 NA
HETATM    5  N5    D T 404       8.804  11.539   9.907  1.00 14.25    -0.187 NA
HETATM    6  C6    D T 404       8.654  10.972  11.105  1.00 20.91     0.281 C 
HETATM    7  O8    D T 404       8.084   9.862  11.223  1.00 20.64    -0.265 OA
HETATM    8  C13   D T 404       7.722  10.277   6.786  1.00 15.72     0.104 A 
HETATM    9  C14   D T 404       7.967  10.078   8.378  1.00 16.99     0.055 A 
HETATM   10  C15   D T 404       7.562   8.793   8.739  1.00 11.92     0.136 A 
HETATM   11  C16   D T 404       7.173   9.083   6.242  1.00 12.55     0.152 A 
HETATM   12  C25   D T 404       6.445   6.566   7.372  1.00 17.08     0.266 C 
HETATM   13  O26   D T 404       6.070   6.160   6.240  1.00 18.79    -0.269 OA
ENDROOT
BRANCH   6  14
HETATM   14  C7    D T 404       9.086  11.520  12.328  1.00 20.72     0.058 A 
HETATM   15  C9    D T 404       8.562  11.059  13.560  1.00 20.76     0.006 A 
HETATM   16  C10   D T 404       8.994  11.620  14.780  1.00 23.27     0.017 A 
HETATM   17  C24   D T 404       9.960  12.646  14.816  1.00 27.37     0.056 A 
HETATM   18  C11   D T 404      10.489  13.108  13.566  1.00 25.87     0.017 A 
HETATM   19  C12   D T 404      10.056  12.552  12.350  1.00 22.35     0.006 A 
BRANCH  17  20
HETATM   20  N17   D T 404      10.364  13.164  16.031  1.00 26.72    -0.344 N 
HETATM   21  C18   D T 404      10.890  14.505  16.169  1.00 27.97     0.137 C 
HETATM   22  C19   D T 404      12.466  14.462  16.250  1.00 27.41     0.274 C 
HETATM   23  N20   D T 404      12.958  13.454  17.267  1.00 25.74     0.143 N 
HETATM   24  C21   D T 404      12.326  12.117  17.072  1.00 25.73     0.274 C 
HETATM   25  C23   D T 404      14.469  13.335  17.301  1.00 22.56     0.286 C 
HETATM   26  C22   D T 404      10.775  12.249  17.088  1.00 25.35     0.137 C 
ENDBRANCH  17  20
ENDBRANCH   6  14
BRANCH  12  27
HETATM   27  C20   D T 404       6.389   5.763   8.420  1.00 16.20     0.216 C 
BRANCH  27  28
HETATM   28  C27   D T 404       5.013   5.553   8.870  1.00 15.98     0.014 A 
HETATM   29  C28   D T 404       4.597   4.374   9.363  1.00 17.50    -0.001 A 
HETATM   30  C31   D T 404       3.259   4.204   9.804  1.00 22.04    -0.000 A 
HETATM   31  C35   D T 404       2.339   5.276   9.733  1.00 17.01    -0.000 A 
HETATM   32  C33   D T 404       2.756   6.488   9.222  1.00 16.34    -0.000 A 
HETATM   33  C29   D T 404       4.048   6.652   8.803  1.00 14.11    -0.001 A 
ENDBRANCH  27  28
BRANCH  27  34
HETATM   34  O34   D T 404       7.091   4.523   8.186  1.00 16.74    -0.340 OA
HETATM   35  C36   D T 404       8.562   4.625   8.130  1.00 18.61     0.175 C 
ENDBRANCH  27  34
ENDBRANCH  12  27
TORSDOF 5
ENDMDL
MODEL 8
REMARK VINA RESULT:    -7.148      5.417      9.020
REMARK INTER + INTRA:          -9.956
REMARK INTER:                  -9.119
REMARK INTRA:                  -0.837
REMARK UNBOUND:                -0.718
REMARK  5 active torsions:
REMARK  status: ('A' for Active; 'I' for Inactive)
REMARK       I    between atoms: N1_1  and  C25_25 
REMARK       I    between atoms: N5_5  and  C6_6 
REMARK    1  A    between atoms: C6_6  and  C7_7 
REMARK    2  A    between atoms: N17_17  and  C24_24 
REMARK    3  A    between atoms: C25_25  and  C20_32 
REMARK    4  A    between atoms: C27_27  and  C20_32 
REMARK    5  A    between atoms: C20_32  and  O34_35 
ROOT
HETATM    1  N1    D T 404       7.367   4.994   9.078  1.00 17.40    -0.308 N 
HETATM    2  N2    D T 404      10.325   6.027   7.426  1.00 15.80    -0.149 NA
HETATM    3  C3    D T 404      10.205   7.174   9.445  1.00 20.99     0.186 A 
HETATM    4  N4    D T 404      10.902   6.922   8.227  1.00 14.98    -0.129 NA
HETATM    5  N5    D T 404      10.604   7.994  10.294  1.00 14.25    -0.187 NA
HETATM    6  C6    D T 404       9.995   8.449  11.390  1.00 20.91     0.281 C 
HETATM    7  O8    D T 404       8.850   8.047  11.703  1.00 20.64    -0.265 OA
HETATM    8  C13   D T 404       9.345   5.658   7.957  1.00 15.72     0.104 A 
HETATM    9  C14   D T 404       9.226   6.435   9.377  1.00 16.99     0.055 A 
HETATM   10  C15   D T 404       8.072   6.002  10.031  1.00 11.92     0.136 A 
HETATM   11  C16   D T 404       8.242   4.773   7.810  1.00 12.55     0.152 A 
HETATM   12  C25   D T 404       5.982   4.168   9.444  1.00 17.08     0.266 C 
HETATM   13  O26   D T 404       5.571   3.346   8.582  1.00 18.79    -0.269 OA
ENDROOT
BRANCH   6  14
HETATM   14  C7    D T 404      10.528   9.396  12.286  1.00 20.72     0.058 A 
HETATM   15  C9    D T 404      11.516  10.321  11.868  1.00 20.76     0.006 A 
HETATM   16  C10   D T 404      12.051  11.260  12.774  1.00 23.27     0.017 A 
HETATM   17  C24   D T 404      11.621  11.315  14.115  1.00 27.37     0.056 A 
HETATM   18  C11   D T 404      10.620  10.377  14.534  1.00 25.87     0.017 A 
HETATM   19  C12   D T 404      10.089   9.440  13.632  1.00 22.35     0.006 A 
BRANCH  17  20
HETATM   20  N17   D T 404      12.163  12.255  14.970  1.00 26.72    -0.344 N 
HETATM   21  C18   D T 404      12.643  11.918  16.294  1.00 27.97     0.137 C 
HETATM   22  C19   D T 404      11.564  12.314  17.377  1.00 27.41     0.274 C 
HETATM   23  N20   D T 404      11.070  13.733  17.197  1.00 25.74     0.143 N 
HETATM   24  C21   D T 404      10.641  13.997  15.793  1.00 25.73     0.274 C 
HETATM   25  C23   D T 404       9.972  14.106  18.173  1.00 22.56     0.286 C 
HETATM   26  C22   D T 404      11.796  13.656  14.806  1.00 25.35     0.137 C 
ENDBRANCH  17  20
ENDBRANCH   6  14
BRANCH  12  27
HETATM   27  C20   D T 404       5.317   4.335  10.574  1.00 16.20     0.216 C 
BRANCH  27  28
HETATM   28  C27   D T 404       3.882   4.499  10.340  1.00 15.98     0.014 A 
HETATM   29  C28   D T 404       3.380   5.588   9.735  1.00 17.50    -0.001 A 
HETATM   30  C31   D T 404       1.984   5.713   9.510  1.00 22.04    -0.000 A 
HETATM   31  C35   D T 404       1.098   4.690   9.919  1.00 17.01    -0.000 A 
HETATM   32  C33   D T 404       1.605   3.571  10.548  1.00 16.34    -0.000 A 
HETATM   33  C29   D T 404       2.951   3.450  10.758  1.00 14.11    -0.001 A 
ENDBRANCH  27  28
BRANCH  27  34
HETATM   34  O34   D T 404       5.608   3.293  11.530  1.00 16.74    -0.340 OA
HETATM   35  C36   D T 404       6.421   3.703  12.692  1.00 18.61     0.175 C 
ENDBRANCH  27  34
ENDBRANCH  12  27
TORSDOF 5
ENDMDL
MODEL 9
REMARK VINA RESULT:    -6.995      3.456      4.985
REMARK INTER + INTRA:          -9.758
REMARK INTER:                  -9.115
REMARK INTRA:                  -0.644
REMARK UNBOUND:                -0.718
REMARK  5 active torsions:
REMARK  status: ('A' for Active; 'I' for Inactive)
REMARK       I    between atoms: N1_1  and  C25_25 
REMARK       I    between atoms: N5_5  and  C6_6 
REMARK    1  A    between atoms: C6_6  and  C7_7 
REMARK    2  A    between atoms: N17_17  and  C24_24 
REMARK    3  A    between atoms: C25_25  and  C20_32 
REMARK    4  A    between atoms: C27_27  and  C20_32 
REMARK    5  A    between atoms: C20_32  and  O34_35 
ROOT
HETATM    1  N1    D T 404       4.121  10.152   3.745  1.00 17.40    -0.308 N 
HETATM    2  N2    D T 404       1.080   9.003   5.151  1.00 15.80    -0.149 NA
HETATM    3  C3    D T 404       2.820   7.955   6.279  1.00 20.99     0.186 A 
HETATM    4  N4    D T 404       1.417   8.140   6.108  1.00 14.98    -0.129 NA
HETATM    5  N5    D T 404       3.301   7.171   7.120  1.00 14.25    -0.187 NA
HETATM    6  C6    D T 404       4.563   6.776   7.294  1.00 20.91     0.281 C 
HETATM    7  O8    D T 404       5.478   7.208   6.555  1.00 20.64    -0.265 OA
HETATM    8  C13   D T 404       2.073   9.410   4.674  1.00 15.72     0.104 A 
HETATM    9  C14   D T 404       3.317   8.703   5.440  1.00 16.99     0.055 A 
HETATM   10  C15   D T 404       4.509   9.181   4.897  1.00 11.92     0.136 A 
HETATM   11  C16   D T 404       2.573  10.302   3.686  1.00 12.55     0.152 A 
HETATM   12  C25   D T 404       5.203  11.013   2.838  1.00 17.08     0.266 C 
HETATM   13  O26   D T 404       4.720  11.798   1.979  1.00 18.79    -0.269 OA
ENDROOT
BRANCH   6  14
HETATM   14  C7    D T 404       5.006   5.866   8.273  1.00 20.72     0.058 A 
HETATM   15  C9    D T 404       4.095   5.268   9.179  1.00 20.76     0.006 A 
HETATM   16  C10   D T 404       4.549   4.365  10.162  1.00 23.27     0.017 A 
HETATM   17  C24   D T 404       5.911   4.023  10.275  1.00 27.37     0.056 A 
HETATM   18  C11   D T 404       6.829   4.630   9.355  1.00 25.87     0.017 A 
HETATM   19  C12   D T 404       6.378   5.532   8.377  1.00 22.35     0.006 A 
BRANCH  17  20
HETATM   20  N17   D T 404       6.315   3.127  11.246  1.00 26.72    -0.344 N 
HETATM   21  C18   D T 404       5.460   2.736  12.347  1.00 27.97     0.137 C 
HETATM   22  C19   D T 404       5.859   3.533  13.650  1.00 27.41     0.274 C 
HETATM   23  N20   D T 404       7.348   3.477  13.920  1.00 25.74     0.143 N 
HETATM   24  C21   D T 404       8.144   3.852  12.716  1.00 25.73     0.274 C 
HETATM   25  C23   D T 404       7.764   4.306  15.119  1.00 22.56     0.286 C 
HETATM   26  C22   D T 404       7.739   2.959  11.505  1.00 25.35     0.137 C 
ENDBRANCH  17  20
ENDBRANCH   6  14
BRANCH  12  27
HETATM   27  C20   D T 404       6.513  10.908   2.981  1.00 16.20     0.216 C 
BRANCH  27  28
HETATM   28  C27   D T 404       7.229  11.410   1.809  1.00 15.98     0.014 A 
HETATM   29  C28   D T 404       7.783  12.635   1.784  1.00 17.50    -0.001 A 
HETATM   30  C31   D T 404       8.484  13.090   0.637  1.00 22.04    -0.000 A 
HETATM   31  C35   D T 404       8.613  12.259  -0.500  1.00 17.01    -0.000 A 
HETATM   32  C33   D T 404       8.042  11.004  -0.485  1.00 16.34    -0.000 A 
HETATM   33  C29   D T 404       7.372  10.564   0.623  1.00 14.11    -0.001 A 
ENDBRANCH  27  28
BRANCH  27  34
HETATM   34  O34   D T 404       6.969  11.511   4.212  1.00 16.74    -0.340 OA
HETATM   35  C36   D T 404       7.901  10.694   5.013  1.00 18.61     0.175 C 
ENDBRANCH  27  34
ENDBRANCH  12  27
TORSDOF 5
ENDMDL
