MODEL 1
REMARK VINA RESULT:    -9.912      0.000      0.000
REMARK INTER + INTRA:         -14.865
REMARK INTER:                 -13.969
REMARK INTRA:                  -0.896
REMARK UNBOUND:                -0.896
REMARK  7 active torsions:
REMARK  status: ('A' for Active; 'I' for Inactive)
REMARK    1  A    between atoms: N3_2  and  C20_12 
REMARK    2  A    between atoms: C4_3  and  C5_4 
REMARK    3  A    between atoms: C13_9  and  N2_29 
REMARK    4  A    between atoms: C17_11  and  C19_33 
REMARK    5  A    between atoms: C20_12  and  C16_31 
REMARK    6  A    between atoms: C2_23  and  C3_24 
REMARK    7  A    between atoms: C9_25  and  C12_27 
REMARK       I    between atoms: C12_27  and  N2_29 
ROOT
HETATM    1  C12   D T 802     -13.251   3.855  -4.803  1.00 36.63     0.279 C 
HETATM    2  O1    D T 802     -13.923   4.599  -5.513  1.00 28.54    -0.265 OA
HETATM    3  N2    D T 802     -13.429   3.500  -3.374  1.00 30.48    -0.208 NA
ENDROOT
BRANCH   1   4
HETATM    4  C9    D T 802     -12.127   3.253  -5.585  1.00 39.24     0.059 A 
HETATM    5  C8    D T 802     -10.825   3.686  -5.445  1.00 38.85     0.004 A 
HETATM    6  C7    D T 802      -9.853   3.068  -6.198  1.00 38.31    -0.004 A 
HETATM    7  C6    D T 802     -10.199   2.045  -7.076  1.00 39.99    -0.014 A 
HETATM    8  C5    D T 802     -11.531   1.626  -7.208  1.00 37.28     0.038 A 
HETATM    9  C11   D T 802      -9.115   1.395  -7.880  1.00 36.14     0.032 C 
HETATM   10  C10   D T 802     -12.514   2.231  -6.452  1.00 38.91     0.013 A 
BRANCH   8  11
HETATM   11  C4    D T 802     -11.978   0.540  -8.136  1.00 36.52    -0.058 C 
HETATM   12  C3    D T 802     -12.369  -0.374  -8.831  1.00 35.65    -0.039 C 
BRANCH  12  13
HETATM   13  C2    D T 802     -12.831  -1.555  -9.618  1.00 34.07     0.145 A 
HETATM   14  N82   D T 802     -12.247  -2.128 -10.715  1.00 35.67    -0.203 N 
HETATM   15  N81   D T 802     -11.121  -1.833 -11.445  1.00 35.29    -0.162 NA
HETATM   16  C84   D T 802     -13.040  -3.201 -11.074  1.00 34.05     0.165 A 
HETATM   17  C83   D T 802     -10.788  -2.584 -12.506  1.00 37.33     0.121 A 
HETATM   18  C82   D T 802     -11.556  -3.648 -12.885  1.00 38.88     0.026 A 
HETATM   19  C81   D T 802     -12.696  -3.979 -12.182  1.00 36.88     0.041 A 
HETATM   20  N1    D T 802     -14.050  -3.272 -10.227  1.00 28.39    -0.223 NA
HETATM   21  C1    D T 802     -13.967  -2.302  -9.333  1.00 31.93     0.128 A 
ENDBRANCH  12  13
ENDBRANCH   8  11
ENDBRANCH   1   4
BRANCH   3  22
HETATM   22  C13   D T 802     -14.473   4.032  -2.482  1.00 25.44     0.085 A 
HETATM   23  C14   D T 802     -15.742   3.464  -2.486  1.00 31.06     0.019 A 
HETATM   24  C15   D T 802     -16.759   3.919  -1.646  1.00 31.55    -0.001 A 
HETATM   25  C16   D T 802     -16.524   4.948  -0.778  1.00 34.66     0.015 A 
HETATM   26  C17   D T 802     -15.249   5.556  -0.739  1.00 33.80     0.071 A 
HETATM   27  C18   D T 802     -14.213   5.099  -1.585  1.00 29.18     0.023 A 
BRANCH  25  28
HETATM   28  C20   D T 802     -17.696   5.378   0.087  1.00 35.75     0.277 C 
BRANCH  28  29
HETATM   29  N3    D T 802     -18.090   4.388   1.047  1.00 36.89     0.145 N 
HETATM   30  C21   D T 802     -17.752   4.800   2.401  1.00 44.86     0.274 C 
HETATM   31  C22   D T 802     -18.071   3.752   3.397  1.00 44.44     0.133 C 
HETATM   32  N4    D T 802     -19.478   3.536   3.304  1.00 40.34    -0.364 N 
HETATM   33  C23   D T 802     -19.981   3.086   2.004  1.00 39.95     0.133 C 
HETATM   34  C25   D T 802     -20.127   2.994   4.451  1.00 37.53     0.121 C 
HETATM   35  C24   D T 802     -19.433   3.851   0.811  1.00 39.71     0.274 C 
ENDBRANCH  28  29
ENDBRANCH  25  28
BRANCH  26  36
HETATM   36  C19   D T 802     -14.998   6.679   0.224  1.00 33.51     0.419 C 
HETATM   37  F1    D T 802     -14.887   6.170   1.447  1.00 36.24    -0.166 F 
HETATM   38  F2    D T 802     -15.999   7.565   0.142  1.00 30.68    -0.166 F 
HETATM   39  F3    D T 802     -13.871   7.289  -0.078  1.00 35.27    -0.166 F 
ENDBRANCH  26  36
ENDBRANCH   3  22
TORSDOF 7
ENDMDL
MODEL 2
REMARK VINA RESULT:    -9.442      4.543     11.472
REMARK INTER + INTRA:         -14.201
REMARK INTER:                 -13.589
REMARK INTRA:                  -0.612
REMARK UNBOUND:                -0.896
REMARK  7 active torsions:
REMARK  status: ('A' for Active; 'I' for Inactive)
REMARK    1  A    between atoms: N3_2  and  C20_12 
REMARK    2  A    between atoms: C4_3  and  C5_4 
REMARK    3  A    between atoms: C13_9  and  N2_29 
REMARK    4  A    between atoms: C17_11  and  C19_33 
REMARK    5  A    between atoms: C20_12  and  C16_31 
REMARK    6  A    between atoms: C2_23  and  C3_24 
REMARK    7  A    between atoms: C9_25  and  C12_27 
REMARK       I    between atoms: C12_27  and  N2_29 
ROOT
HETATM    1  C12   D T 802     -11.767   2.615  -6.237  1.00 36.63     0.279 C 
HETATM    2  O1    D T 802     -11.086   2.608  -7.260  1.00 28.54    -0.265 OA
HETATM    3  N2    D T 802     -12.903   1.742  -5.855  1.00 30.48    -0.208 NA
ENDROOT
BRANCH   1   4
HETATM    4  C9    D T 802     -11.294   3.676  -5.295  1.00 39.24     0.059 A 
HETATM    5  C8    D T 802     -10.020   4.200  -5.365  1.00 38.85     0.004 A 
HETATM    6  C7    D T 802      -9.674   5.180  -4.463  1.00 38.31    -0.004 A 
HETATM    7  C6    D T 802     -10.595   5.606  -3.511  1.00 39.99    -0.014 A 
HETATM    8  C5    D T 802     -11.882   5.053  -3.453  1.00 37.28     0.038 A 
HETATM    9  C11   D T 802     -10.183   6.675  -2.545  1.00 36.14     0.032 C 
HETATM   10  C10   D T 802     -12.246   4.076  -4.358  1.00 38.91     0.013 A 
BRANCH   8  11
HETATM   11  C4    D T 802     -12.922   5.455  -2.454  1.00 36.52    -0.058 C 
HETATM   12  C3    D T 802     -13.712   5.799  -1.600  1.00 35.65    -0.039 C 
BRANCH  12  13
HETATM   13  C2    D T 802     -14.627   6.190  -0.488  1.00 34.07     0.145 A 
HETATM   14  N82   D T 802     -15.641   5.464   0.075  1.00 35.67    -0.203 N 
HETATM   15  N81   D T 802     -16.158   4.216  -0.175  1.00 35.29    -0.162 NA
HETATM   16  C84   D T 802     -16.183   6.247   1.076  1.00 34.05     0.165 A 
HETATM   17  C83   D T 802     -17.188   3.754   0.549  1.00 37.33     0.121 A 
HETATM   18  C82   D T 802     -17.745   4.507   1.543  1.00 38.88     0.026 A 
HETATM   19  C81   D T 802     -17.258   5.767   1.828  1.00 36.88     0.041 A 
HETATM   20  N1    D T 802     -15.520   7.387   1.117  1.00 28.39    -0.223 NA
HETATM   21  C1    D T 802     -14.574   7.399   0.194  1.00 31.93     0.128 A 
ENDBRANCH  12  13
ENDBRANCH   8  11
ENDBRANCH   1   4
BRANCH   3  22
HETATM   22  C13   D T 802     -13.486   0.677  -6.689  1.00 25.44     0.085 A 
HETATM   23  C14   D T 802     -14.777   0.226  -6.434  1.00 31.06     0.019 A 
HETATM   24  C15   D T 802     -15.380  -0.765  -7.207  1.00 31.55    -0.001 A 
HETATM   25  C16   D T 802     -14.708  -1.321  -8.259  1.00 34.66     0.015 A 
HETATM   26  C17   D T 802     -13.394  -0.893  -8.556  1.00 33.80     0.071 A 
HETATM   27  C18   D T 802     -12.776   0.113  -7.779  1.00 29.18     0.023 A 
BRANCH  25  28
HETATM   28  C20   D T 802     -15.445  -2.399  -9.034  1.00 35.75     0.277 C 
BRANCH  28  29
HETATM   29  N3    D T 802     -15.504  -3.656  -8.345  1.00 36.89     0.145 N 
HETATM   30  C21   D T 802     -16.877  -4.029  -8.041  1.00 44.86     0.274 C 
HETATM   31  C22   D T 802     -16.952  -5.281  -7.253  1.00 44.44     0.133 C 
HETATM   32  N4    D T 802     -16.353  -6.292  -8.062  1.00 40.34    -0.364 N 
HETATM   33  C23   D T 802     -14.953  -6.080  -8.435  1.00 39.95     0.133 C 
HETATM   34  C25   D T 802     -16.738  -7.639  -7.805  1.00 37.53     0.121 C 
HETATM   35  C24   D T 802     -14.630  -4.679  -8.927  1.00 39.71     0.274 C 
ENDBRANCH  28  29
ENDBRANCH  25  28
BRANCH  26  36
HETATM   36  C19   D T 802     -12.666  -1.503  -9.719  1.00 33.51     0.419 C 
HETATM   37  F1    D T 802     -12.275  -2.727  -9.377  1.00 36.24    -0.166 F 
HETATM   38  F2    D T 802     -11.629  -0.723 -10.051  1.00 30.68    -0.166 F 
HETATM   39  F3    D T 802     -13.471  -1.597 -10.757  1.00 35.27    -0.166 F 
ENDBRANCH  26  36
ENDBRANCH   3  22
TORSDOF 7
ENDMDL
MODEL 3
REMARK VINA RESULT:    -9.350      1.814      2.260
REMARK INTER + INTRA:         -14.072
REMARK INTER:                 -13.173
REMARK INTRA:                  -0.899
REMARK UNBOUND:                -0.896
REMARK  7 active torsions:
REMARK  status: ('A' for Active; 'I' for Inactive)
REMARK    1  A    between atoms: N3_2  and  C20_12 
REMARK    2  A    between atoms: C4_3  and  C5_4 
REMARK    3  A    between atoms: C13_9  and  N2_29 
REMARK    4  A    between atoms: C17_11  and  C19_33 
REMARK    5  A    between atoms: C20_12  and  C16_31 
REMARK    6  A    between atoms: C2_23  and  C3_24 
REMARK    7  A    between atoms: C9_25  and  C12_27 
REMARK       I    between atoms: C12_27  and  N2_29 
ROOT
HETATM    1  C12   D T 802     -13.155   4.342  -3.984  1.00 36.63     0.279 C 
HETATM    2  O1    D T 802     -13.059   5.566  -3.931  1.00 28.54    -0.265 OA
HETATM    3  N2    D T 802     -14.136   3.443  -3.328  1.00 30.48    -0.208 NA
ENDROOT
BRANCH   1   4
HETATM    4  C9    D T 802     -12.103   3.768  -4.878  1.00 39.24     0.059 A 
HETATM    5  C8    D T 802     -10.791   4.191  -4.828  1.00 38.85     0.004 A 
HETATM    6  C7    D T 802      -9.888   3.601  -5.682  1.00 38.31    -0.004 A 
HETATM    7  C6    D T 802     -10.311   2.615  -6.568  1.00 39.99    -0.014 A 
HETATM    8  C5    D T 802     -11.651   2.206  -6.608  1.00 37.28     0.038 A 
HETATM    9  C11   D T 802      -9.299   1.994  -7.484  1.00 36.14     0.032 C 
HETATM   10  C10   D T 802     -12.566   2.783  -5.751  1.00 38.91     0.013 A 
BRANCH   8  11
HETATM   11  C4    D T 802     -12.180   1.159  -7.539  1.00 36.52    -0.058 C 
HETATM   12  C3    D T 802     -12.674   0.333  -8.276  1.00 35.65    -0.039 C 
BRANCH  12  13
HETATM   13  C2    D T 802     -13.350  -0.692  -9.125  1.00 34.07     0.145 A 
HETATM   14  N82   D T 802     -12.818  -1.442 -10.139  1.00 35.67    -0.203 N 
HETATM   15  N81   D T 802     -11.571  -1.505 -10.711  1.00 35.29    -0.162 NA
HETATM   16  C84   D T 802     -13.833  -2.256 -10.605  1.00 34.05     0.165 A 
HETATM   17  C83   D T 802     -11.333  -2.352 -11.723  1.00 37.33     0.121 A 
HETATM   18  C82   D T 802     -12.318  -3.165 -12.207  1.00 38.88     0.026 A 
HETATM   19  C81   D T 802     -13.586  -3.136 -11.663  1.00 36.88     0.041 A 
HETATM   20  N1    D T 802     -14.921  -2.010  -9.901  1.00 28.39    -0.223 NA
HETATM   21  C1    D T 802     -14.679  -1.076  -8.997  1.00 31.93     0.128 A 
ENDBRANCH  12  13
ENDBRANCH   8  11
ENDBRANCH   1   4
BRANCH   3  22
HETATM   22  C13   D T 802     -15.206   3.866  -2.408  1.00 25.44     0.085 A 
HETATM   23  C14   D T 802     -14.885   4.309  -1.130  1.00 31.06     0.019 A 
HETATM   24  C15   D T 802     -15.859   4.739  -0.230  1.00 31.55    -0.001 A 
HETATM   25  C16   D T 802     -17.177   4.743  -0.593  1.00 34.66     0.015 A 
HETATM   26  C17   D T 802     -17.550   4.301  -1.882  1.00 33.80     0.071 A 
HETATM   27  C18   D T 802     -16.569   3.866  -2.801  1.00 29.18     0.023 A 
BRANCH  25  28
HETATM   28  C20   D T 802     -18.162   5.218   0.460  1.00 35.75     0.277 C 
BRANCH  28  29
HETATM   29  N3    D T 802     -18.353   4.279   1.528  1.00 36.89     0.145 N 
HETATM   30  C21   D T 802     -17.814   4.786   2.781  1.00 44.86     0.274 C 
HETATM   31  C22   D T 802     -17.924   3.794   3.875  1.00 44.44     0.133 C 
HETATM   32  N4    D T 802     -19.317   3.530   4.030  1.00 40.34    -0.364 N 
HETATM   33  C23   D T 802     -20.007   2.984   2.859  1.00 39.95     0.133 C 
HETATM   34  C25   D T 802     -19.746   3.042   5.297  1.00 37.53     0.121 C 
HETATM   35  C24   D T 802     -19.694   3.688   1.549  1.00 39.71     0.274 C 
ENDBRANCH  28  29
ENDBRANCH  25  28
BRANCH  26  36
HETATM   36  C19   D T 802     -18.999   4.316  -2.275  1.00 33.51     0.419 C 
HETATM   37  F1    D T 802     -19.517   5.492  -1.933  1.00 36.24    -0.166 F 
HETATM   38  F2    D T 802     -19.631   3.300  -1.675  1.00 30.68    -0.166 F 
HETATM   39  F3    D T 802     -19.115   4.173  -3.579  1.00 35.27    -0.166 F 
ENDBRANCH  26  36
ENDBRANCH   3  22
TORSDOF 7
ENDMDL
MODEL 4
REMARK VINA RESULT:    -9.292      3.897     11.892
REMARK INTER + INTRA:         -13.990
REMARK INTER:                 -13.303
REMARK INTRA:                  -0.687
REMARK UNBOUND:                -0.896
REMARK  7 active torsions:
REMARK  status: ('A' for Active; 'I' for Inactive)
REMARK    1  A    between atoms: N3_2  and  C20_12 
REMARK    2  A    between atoms: C4_3  and  C5_4 
REMARK    3  A    between atoms: C13_9  and  N2_29 
REMARK    4  A    between atoms: C17_11  and  C19_33 
REMARK    5  A    between atoms: C20_12  and  C16_31 
REMARK    6  A    between atoms: C2_23  and  C3_24 
REMARK    7  A    between atoms: C9_25  and  C12_27 
REMARK       I    between atoms: C12_27  and  N2_29 
ROOT
HETATM    1  C12   D T 802     -11.659   2.640  -6.114  1.00 36.63     0.279 C 
HETATM    2  O1    D T 802     -10.898   2.579  -7.077  1.00 28.54    -0.265 OA
HETATM    3  N2    D T 802     -12.846   1.810  -5.796  1.00 30.48    -0.208 NA
ENDROOT
BRANCH   1   4
HETATM    4  C9    D T 802     -11.235   3.724  -5.174  1.00 39.24     0.059 A 
HETATM    5  C8    D T 802      -9.972   4.276  -5.217  1.00 38.85     0.004 A 
HETATM    6  C7    D T 802      -9.673   5.275  -4.320  1.00 38.31    -0.004 A 
HETATM    7  C6    D T 802     -10.629   5.693  -3.399  1.00 39.99    -0.014 A 
HETATM    8  C5    D T 802     -11.905   5.112  -3.368  1.00 37.28     0.038 A 
HETATM    9  C11   D T 802     -10.268   6.784  -2.437  1.00 36.14     0.032 C 
HETATM   10  C10   D T 802     -12.222   4.115  -4.269  1.00 38.91     0.013 A 
BRANCH   8  11
HETATM   11  C4    D T 802     -12.980   5.504  -2.403  1.00 36.52    -0.058 C 
HETATM   12  C3    D T 802     -13.816   5.784  -1.571  1.00 35.65    -0.039 C 
BRANCH  12  13
HETATM   13  C2    D T 802     -14.834   6.049  -0.511  1.00 34.07     0.145 A 
HETATM   14  N82   D T 802     -15.847   5.236  -0.083  1.00 35.67    -0.203 N 
HETATM   15  N81   D T 802     -16.275   3.985  -0.458  1.00 35.29    -0.162 NA
HETATM   16  C84   D T 802     -16.505   5.916   0.924  1.00 34.05     0.165 A 
HETATM   17  C83   D T 802     -17.331   3.422   0.148  1.00 37.33     0.121 A 
HETATM   18  C82   D T 802     -18.002   4.073   1.143  1.00 38.88     0.026 A 
HETATM   19  C81   D T 802     -17.607   5.331   1.552  1.00 36.88     0.041 A 
HETATM   20  N1    D T 802     -15.910   7.081   1.095  1.00 28.39    -0.223 NA
HETATM   21  C1    D T 802     -14.898   7.207   0.254  1.00 31.93     0.128 A 
ENDBRANCH  12  13
ENDBRANCH   8  11
ENDBRANCH   1   4
BRANCH   3  22
HETATM   22  C13   D T 802     -13.387   0.729  -6.637  1.00 25.44     0.085 A 
HETATM   23  C14   D T 802     -13.217   0.775  -8.017  1.00 31.06     0.019 A 
HETATM   24  C15   D T 802     -13.693  -0.232  -8.855  1.00 31.55    -0.001 A 
HETATM   25  C16   D T 802     -14.344  -1.313  -8.330  1.00 34.66     0.015 A 
HETATM   26  C17   D T 802     -14.540  -1.403  -6.933  1.00 33.80     0.071 A 
HETATM   27  C18   D T 802     -14.058  -0.387  -6.076  1.00 29.18     0.023 A 
BRANCH  25  28
HETATM   28  C20   D T 802     -14.834  -2.351  -9.324  1.00 35.75     0.277 C 
BRANCH  28  29
HETATM   29  N3    D T 802     -14.102  -2.349 -10.558  1.00 36.89     0.145 N 
HETATM   30  C21   D T 802     -13.035  -3.338 -10.540  1.00 44.86     0.274 C 
HETATM   31  C22   D T 802     -12.212  -3.291 -11.771  1.00 44.44     0.133 C 
HETATM   32  N4    D T 802     -13.103  -3.571 -12.850  1.00 40.34    -0.364 N 
HETATM   33  C23   D T 802     -14.223  -2.645 -13.024  1.00 39.95     0.133 C 
HETATM   34  C25   D T 802     -12.528  -4.093 -14.045  1.00 37.53     0.121 C 
HETATM   35  C24   D T 802     -14.961  -2.290 -11.744  1.00 39.71     0.274 C 
ENDBRANCH  28  29
ENDBRANCH  25  28
BRANCH  26  36
HETATM   36  C19   D T 802     -15.249  -2.597  -6.364  1.00 33.51     0.419 C 
HETATM   37  F1    D T 802     -15.398  -2.416  -5.056  1.00 36.24    -0.166 F 
HETATM   38  F2    D T 802     -14.543  -3.702  -6.637  1.00 30.68    -0.166 F 
HETATM   39  F3    D T 802     -16.443  -2.715  -6.907  1.00 35.27    -0.166 F 
ENDBRANCH  26  36
ENDBRANCH   3  22
TORSDOF 7
ENDMDL
MODEL 5
REMARK VINA RESULT:    -9.268      3.579     11.449
REMARK INTER + INTRA:         -13.956
REMARK INTER:                 -13.484
REMARK INTRA:                  -0.472
REMARK UNBOUND:                -0.896
REMARK  7 active torsions:
REMARK  status: ('A' for Active; 'I' for Inactive)
REMARK    1  A    between atoms: N3_2  and  C20_12 
REMARK    2  A    between atoms: C4_3  and  C5_4 
REMARK    3  A    between atoms: C13_9  and  N2_29 
REMARK    4  A    between atoms: C17_11  and  C19_33 
REMARK    5  A    between atoms: C20_12  and  C16_31 
REMARK    6  A    between atoms: C2_23  and  C3_24 
REMARK    7  A    between atoms: C9_25  and  C12_27 
REMARK       I    between atoms: C12_27  and  N2_29 
ROOT
HETATM    1  C12   D T 802     -11.716   4.901  -4.073  1.00 36.63     0.279 C 
HETATM    2  O1    D T 802     -10.496   4.906  -4.220  1.00 28.54    -0.265 OA
HETATM    3  N2    D T 802     -12.740   4.044  -4.720  1.00 30.48    -0.208 NA
ENDROOT
BRANCH   1   4
HETATM    4  C9    D T 802     -12.131   5.925  -3.065  1.00 39.24     0.059 A 
HETATM    5  C8    D T 802     -11.486   7.138  -2.948  1.00 38.85     0.004 A 
HETATM    6  C7    D T 802     -11.942   8.024  -1.998  1.00 38.31    -0.004 A 
HETATM    7  C6    D T 802     -13.017   7.678  -1.185  1.00 39.99    -0.014 A 
HETATM    8  C5    D T 802     -13.652   6.436  -1.316  1.00 37.28     0.038 A 
HETATM    9  C11   D T 802     -13.486   8.668  -0.161  1.00 36.14     0.032 C 
HETATM   10  C10   D T 802     -13.212   5.542  -2.271  1.00 38.91     0.013 A 
BRANCH   8  11
HETATM   11  C4    D T 802     -14.807   5.993  -0.473  1.00 36.52    -0.058 C 
HETATM   12  C3    D T 802     -15.700   5.586   0.240  1.00 35.65    -0.039 C 
BRANCH  12  13
HETATM   13  C2    D T 802     -16.764   5.003   1.110  1.00 34.07     0.145 A 
HETATM   14  N82   D T 802     -17.696   4.052   0.793  1.00 35.67    -0.203 N 
HETATM   15  N81   D T 802     -17.979   3.357  -0.358  1.00 35.29    -0.162 NA
HETATM   16  C84   D T 802     -18.445   3.834   1.933  1.00 34.05     0.165 A 
HETATM   17  C83   D T 802     -18.983   2.468  -0.380  1.00 37.33     0.121 A 
HETATM   18  C82   D T 802     -19.743   2.235   0.731  1.00 38.88     0.026 A 
HETATM   19  C81   D T 802     -19.494   2.911   1.908  1.00 36.88     0.041 A 
HETATM   20  N1    D T 802     -17.982   4.615   2.891  1.00 28.39    -0.223 NA
HETATM   21  C1    D T 802     -16.969   5.337   2.443  1.00 31.93     0.128 A 
ENDBRANCH  12  13
ENDBRANCH   8  11
ENDBRANCH   1   4
BRANCH   3  22
HETATM   22  C13   D T 802     -12.478   3.017  -5.742  1.00 25.44     0.085 A 
HETATM   23  C14   D T 802     -13.533   2.272  -6.261  1.00 31.06     0.019 A 
HETATM   24  C15   D T 802     -13.339   1.302  -7.244  1.00 31.55    -0.001 A 
HETATM   25  C16   D T 802     -12.087   1.061  -7.735  1.00 34.66     0.015 A 
HETATM   26  C17   D T 802     -10.986   1.793  -7.237  1.00 33.80     0.071 A 
HETATM   27  C18   D T 802     -11.173   2.781  -6.243  1.00 29.18     0.023 A 
BRANCH  25  28
HETATM   28  C20   D T 802     -11.978  -0.021  -8.794  1.00 35.75     0.277 C 
BRANCH  28  29
HETATM   29  N3    D T 802     -13.096  -0.920  -8.809  1.00 36.89     0.145 N 
HETATM   30  C21   D T 802     -13.495  -1.245 -10.170  1.00 44.86     0.274 C 
HETATM   31  C22   D T 802     -14.703  -2.102 -10.205  1.00 44.44     0.133 C 
HETATM   32  N4    D T 802     -14.356  -3.300  -9.512  1.00 40.34    -0.364 N 
HETATM   33  C23   D T 802     -13.957  -3.146  -8.112  1.00 39.95     0.133 C 
HETATM   34  C25   D T 802     -15.106  -4.470  -9.827  1.00 37.53     0.121 C 
HETATM   35  C24   D T 802     -12.969  -2.021  -7.851  1.00 39.71     0.274 C 
ENDBRANCH  28  29
ENDBRANCH  25  28
BRANCH  26  36
HETATM   36  C19   D T 802      -9.615   1.528  -7.788  1.00 33.51     0.419 C 
HETATM   37  F1    D T 802      -8.735   2.241  -7.092  1.00 36.24    -0.166 F 
HETATM   38  F2    D T 802      -9.593   1.842  -9.090  1.00 30.68    -0.166 F 
HETATM   39  F3    D T 802      -9.315   0.253  -7.658  1.00 35.27    -0.166 F 
ENDBRANCH  26  36
ENDBRANCH   3  22
TORSDOF 7
ENDMDL
MODEL 6
REMARK VINA RESULT:    -8.899      4.069     11.349
REMARK INTER + INTRA:         -13.437
REMARK INTER:                 -12.758
REMARK INTRA:                  -0.679
REMARK UNBOUND:                -0.896
REMARK  7 active torsions:
REMARK  status: ('A' for Active; 'I' for Inactive)
REMARK    1  A    between atoms: N3_2  and  C20_12 
REMARK    2  A    between atoms: C4_3  and  C5_4 
REMARK    3  A    between atoms: C13_9  and  N2_29 
REMARK    4  A    between atoms: C17_11  and  C19_33 
REMARK    5  A    between atoms: C20_12  and  C16_31 
REMARK    6  A    between atoms: C2_23  and  C3_24 
REMARK    7  A    between atoms: C9_25  and  C12_27 
REMARK       I    between atoms: C12_27  and  N2_29 
ROOT
HETATM    1  C12   D T 802     -11.411   2.710  -5.968  1.00 36.63     0.279 C 
HETATM    2  O1    D T 802     -10.504   2.569  -6.785  1.00 28.54    -0.265 OA
HETATM    3  N2    D T 802     -12.652   1.917  -5.788  1.00 30.48    -0.208 NA
ENDROOT
BRANCH   1   4
HETATM    4  C9    D T 802     -11.124   3.859  -5.055  1.00 39.24     0.059 A 
HETATM    5  C8    D T 802      -9.928   4.544  -5.095  1.00 38.85     0.004 A 
HETATM    6  C7    D T 802      -9.754   5.595  -4.224  1.00 38.31    -0.004 A 
HETATM    7  C6    D T 802     -10.766   5.931  -3.330  1.00 39.99    -0.014 A 
HETATM    8  C5    D T 802     -11.972   5.216  -3.300  1.00 37.28     0.038 A 
HETATM    9  C11   D T 802     -10.542   7.081  -2.395  1.00 36.14     0.032 C 
HETATM   10  C10   D T 802     -12.163   4.166  -4.175  1.00 38.91     0.013 A 
BRANCH   8  11
HETATM   11  C4    D T 802     -13.099   5.515  -2.362  1.00 36.52    -0.058 C 
HETATM   12  C3    D T 802     -14.023   5.686  -1.595  1.00 35.65    -0.039 C 
BRANCH  12  13
HETATM   13  C2    D T 802     -15.198   5.825  -0.685  1.00 34.07     0.145 A 
HETATM   14  N82   D T 802     -16.141   4.887  -0.364  1.00 35.67    -0.203 N 
HETATM   15  N81   D T 802     -16.342   3.583  -0.748  1.00 35.29    -0.162 NA
HETATM   16  C84   D T 802     -17.012   5.486   0.525  1.00 34.05     0.165 A 
HETATM   17  C83   D T 802     -17.384   2.889  -0.265  1.00 37.33     0.121 A 
HETATM   18  C82   D T 802     -18.263   3.458   0.612  1.00 38.88     0.026 A 
HETATM   19  C81   D T 802     -18.100   4.764   1.025  1.00 36.88     0.041 A 
HETATM   20  N1    D T 802     -16.608   6.725   0.731  1.00 28.39    -0.223 NA
HETATM   21  C1    D T 802     -15.520   6.975   0.025  1.00 31.93     0.128 A 
ENDBRANCH  12  13
ENDBRANCH   8  11
ENDBRANCH   1   4
BRANCH   3  22
HETATM   22  C13   D T 802     -13.071   0.779  -6.625  1.00 25.44     0.085 A 
HETATM   23  C14   D T 802     -12.676   0.717  -7.957  1.00 31.06     0.019 A 
HETATM   24  C15   D T 802     -13.030  -0.348  -8.784  1.00 31.55    -0.001 A 
HETATM   25  C16   D T 802     -13.781  -1.379  -8.294  1.00 34.66     0.015 A 
HETATM   26  C17   D T 802     -14.205  -1.359  -6.947  1.00 33.80     0.071 A 
HETATM   27  C18   D T 802     -13.848  -0.284  -6.100  1.00 29.18     0.023 A 
BRANCH  25  28
HETATM   28  C20   D T 802     -14.124  -2.486  -9.276  1.00 35.75     0.277 C 
BRANCH  28  29
HETATM   29  N3    D T 802     -15.397  -2.309  -9.913  1.00 36.89     0.145 N 
HETATM   30  C21   D T 802     -15.258  -1.632 -11.193  1.00 44.86     0.274 C 
HETATM   31  C22   D T 802     -16.570  -1.362 -11.825  1.00 44.44     0.133 C 
HETATM   32  N4    D T 802     -17.180  -2.636 -12.026  1.00 40.34    -0.364 N 
HETATM   33  C23   D T 802     -17.417  -3.437 -10.823  1.00 39.95     0.133 C 
HETATM   34  C25   D T 802     -18.168  -2.727 -13.047  1.00 37.53     0.121 C 
HETATM   35  C24   D T 802     -16.244  -3.503  -9.859  1.00 39.71     0.274 C 
ENDBRANCH  28  29
ENDBRANCH  25  28
BRANCH  26  36
HETATM   36  C19   D T 802     -15.023  -2.500  -6.415  1.00 33.51     0.419 C 
HETATM   37  F1    D T 802     -14.476  -3.639  -6.827  1.00 36.24    -0.166 F 
HETATM   38  F2    D T 802     -16.287  -2.373  -6.836  1.00 30.68    -0.166 F 
HETATM   39  F3    D T 802     -15.014  -2.486  -5.098  1.00 35.27    -0.166 F 
ENDBRANCH  26  36
ENDBRANCH   3  22
TORSDOF 7
ENDMDL
MODEL 7
REMARK VINA RESULT:    -8.835      1.343      1.912
REMARK INTER + INTRA:         -13.346
REMARK INTER:                 -13.119
REMARK INTRA:                  -0.227
REMARK UNBOUND:                -0.896
REMARK  7 active torsions:
REMARK  status: ('A' for Active; 'I' for Inactive)
REMARK    1  A    between atoms: N3_2  and  C20_12 
REMARK    2  A    between atoms: C4_3  and  C5_4 
REMARK    3  A    between atoms: C13_9  and  N2_29 
REMARK    4  A    between atoms: C17_11  and  C19_33 
REMARK    5  A    between atoms: C20_12  and  C16_31 
REMARK    6  A    between atoms: C2_23  and  C3_24 
REMARK    7  A    between atoms: C9_25  and  C12_27 
REMARK       I    between atoms: C12_27  and  N2_29 
ROOT
HETATM    1  C12   D T 802     -13.208   3.611  -4.559  1.00 36.63     0.279 C 
HETATM    2  O1    D T 802     -14.161   4.106  -5.157  1.00 28.54    -0.265 OA
HETATM    3  N2    D T 802     -12.974   3.483  -3.100  1.00 30.48    -0.208 NA
ENDROOT
BRANCH   1   4
HETATM    4  C9    D T 802     -12.202   3.071  -5.525  1.00 39.24     0.059 A 
HETATM    5  C8    D T 802     -10.915   3.561  -5.590  1.00 38.85     0.004 A 
HETATM    6  C7    D T 802     -10.053   2.996  -6.502  1.00 38.31    -0.004 A 
HETATM    7  C6    D T 802     -10.494   1.969  -7.332  1.00 39.99    -0.014 A 
HETATM    8  C5    D T 802     -11.810   1.493  -7.255  1.00 37.28     0.038 A 
HETATM    9  C11   D T 802      -9.529   1.379  -8.314  1.00 36.14     0.032 C 
HETATM   10  C10   D T 802     -12.682   2.043  -6.337  1.00 38.91     0.013 A 
BRANCH   8  11
HETATM   11  C4    D T 802     -12.357   0.399  -8.118  1.00 36.52    -0.058 C 
HETATM   12  C3    D T 802     -12.743  -0.479  -8.860  1.00 35.65    -0.039 C 
BRANCH  12  13
HETATM   13  C2    D T 802     -13.185  -1.513  -9.843  1.00 34.07     0.145 A 
HETATM   14  N82   D T 802     -12.476  -2.063 -10.876  1.00 35.67    -0.203 N 
HETATM   15  N81   D T 802     -11.205  -1.864 -11.359  1.00 35.29    -0.162 NA
HETATM   16  C84   D T 802     -13.309  -2.982 -11.485  1.00 34.05     0.165 A 
HETATM   17  C83   D T 802     -10.770  -2.558 -12.420  1.00 37.33     0.121 A 
HETATM   18  C82   D T 802     -11.572  -3.469 -13.044  1.00 38.88     0.026 A 
HETATM   19  C81   D T 802     -12.856  -3.701 -12.594  1.00 36.88     0.041 A 
HETATM   20  N1    D T 802     -14.462  -2.987 -10.843  1.00 28.39    -0.223 NA
HETATM   21  C1    D T 802     -14.435  -2.119  -9.846  1.00 31.93     0.128 A 
ENDBRANCH  12  13
ENDBRANCH   8  11
ENDBRANCH   1   4
BRANCH   3  22
HETATM   22  C13   D T 802     -13.864   3.988  -2.041  1.00 25.44     0.085 A 
HETATM   23  C14   D T 802     -14.904   3.192  -1.573  1.00 31.06     0.019 A 
HETATM   24  C15   D T 802     -15.761   3.616  -0.558  1.00 31.55    -0.001 A 
HETATM   25  C16   D T 802     -15.592   4.844   0.016  1.00 34.66     0.015 A 
HETATM   26  C17   D T 802     -14.548   5.688  -0.427  1.00 33.80     0.071 A 
HETATM   27  C18   D T 802     -13.673   5.264  -1.453  1.00 29.18     0.023 A 
BRANCH  25  28
HETATM   28  C20   D T 802     -16.582   5.220   1.105  1.00 35.75     0.277 C 
BRANCH  28  29
HETATM   29  N3    D T 802     -17.930   5.350   0.629  1.00 36.89     0.145 N 
HETATM   30  C21   D T 802     -18.059   6.466  -0.294  1.00 44.86     0.274 C 
HETATM   31  C22   D T 802     -19.461   6.670  -0.728  1.00 44.44     0.133 C 
HETATM   32  N4    D T 802     -19.850   5.463  -1.382  1.00 40.34    -0.364 N 
HETATM   33  C23   D T 802     -19.803   4.243  -0.574  1.00 39.95     0.133 C 
HETATM   34  C25   D T 802     -20.914   5.553  -2.325  1.00 37.53     0.121 C 
HETATM   35  C24   D T 802     -18.537   4.072   0.248  1.00 39.71     0.274 C 
ENDBRANCH  28  29
ENDBRANCH  25  28
BRANCH  26  36
HETATM   36  C19   D T 802     -14.364   7.032   0.216  1.00 33.51     0.419 C 
HETATM   37  F1    D T 802     -14.072   6.849   1.500  1.00 36.24    -0.166 F 
HETATM   38  F2    D T 802     -15.480   7.756   0.056  1.00 30.68    -0.166 F 
HETATM   39  F3    D T 802     -13.363   7.671  -0.353  1.00 35.27    -0.166 F 
ENDBRANCH  26  36
ENDBRANCH   3  22
TORSDOF 7
ENDMDL
MODEL 8
REMARK VINA RESULT:    -8.820      3.646      5.903
REMARK INTER + INTRA:         -13.325
REMARK INTER:                 -13.115
REMARK INTRA:                  -0.210
REMARK UNBOUND:                -0.896
REMARK  7 active torsions:
REMARK  status: ('A' for Active; 'I' for Inactive)
REMARK    1  A    between atoms: N3_2  and  C20_12 
REMARK    2  A    between atoms: C4_3  and  C5_4 
REMARK    3  A    between atoms: C13_9  and  N2_29 
REMARK    4  A    between atoms: C17_11  and  C19_33 
REMARK    5  A    between atoms: C20_12  and  C16_31 
REMARK    6  A    between atoms: C2_23  and  C3_24 
REMARK    7  A    between atoms: C9_25  and  C12_27 
REMARK       I    between atoms: C12_27  and  N2_29 
ROOT
HETATM    1  C12   D T 802     -12.951   0.879  -6.611  1.00 36.63     0.279 C 
HETATM    2  O1    D T 802     -13.650   0.418  -5.712  1.00 28.54    -0.265 OA
HETATM    3  N2    D T 802     -12.276   2.197  -6.698  1.00 30.48    -0.208 NA
ENDROOT
BRANCH   1   4
HETATM    4  C9    D T 802     -12.800  -0.109  -7.723  1.00 39.24     0.059 A 
HETATM    5  C8    D T 802     -11.988   0.133  -8.810  1.00 38.85     0.004 A 
HETATM    6  C7    D T 802     -11.903  -0.838  -9.783  1.00 38.31    -0.004 A 
HETATM    7  C6    D T 802     -12.633  -2.016  -9.655  1.00 39.99    -0.014 A 
HETATM    8  C5    D T 802     -13.459  -2.237  -8.544  1.00 37.28     0.038 A 
HETATM    9  C11   D T 802     -12.516  -3.050 -10.733  1.00 36.14     0.032 C 
HETATM   10  C10   D T 802     -13.546  -1.276  -7.557  1.00 38.91     0.013 A 
BRANCH   8  11
HETATM   11  C4    D T 802     -14.278  -3.474  -8.343  1.00 36.52    -0.058 C 
HETATM   12  C3    D T 802     -14.882  -4.514  -8.187  1.00 35.65    -0.039 C 
BRANCH  12  13
HETATM   13  C2    D T 802     -15.569  -5.833  -8.054  1.00 34.07     0.145 A 
HETATM   14  N82   D T 802     -16.790  -6.104  -7.500  1.00 35.67    -0.203 N 
HETATM   15  N81   D T 802     -17.744  -5.324  -6.893  1.00 35.29    -0.162 NA
HETATM   16  C84   D T 802     -16.992  -7.465  -7.629  1.00 34.05     0.165 A 
HETATM   17  C83   D T 802     -18.871  -5.878  -6.423  1.00 37.33     0.121 A 
HETATM   18  C82   D T 802     -19.096  -7.220  -6.534  1.00 38.88     0.026 A 
HETATM   19  C81   D T 802     -18.165  -8.042  -7.136  1.00 36.88     0.041 A 
HETATM   20  N1    D T 802     -15.943  -7.985  -8.238  1.00 28.39    -0.223 NA
HETATM   21  C1    D T 802     -15.060  -7.041  -8.514  1.00 31.93     0.128 A 
ENDBRANCH  12  13
ENDBRANCH   8  11
ENDBRANCH   1   4
BRANCH   3  22
HETATM   22  C13   D T 802     -12.355   3.270  -5.693  1.00 25.44     0.085 A 
HETATM   23  C14   D T 802     -13.598   3.723  -5.261  1.00 31.06     0.019 A 
HETATM   24  C15   D T 802     -13.726   4.723  -4.297  1.00 31.55    -0.001 A 
HETATM   25  C16   D T 802     -12.614   5.285  -3.737  1.00 34.66     0.015 A 
HETATM   26  C17   D T 802     -11.331   4.857  -4.145  1.00 33.80     0.071 A 
HETATM   27  C18   D T 802     -11.191   3.842  -5.119  1.00 29.18     0.023 A 
BRANCH  25  28
HETATM   28  C20   D T 802     -12.858   6.372  -2.705  1.00 35.75     0.277 C 
BRANCH  28  29
HETATM   29  N3    D T 802     -13.217   5.862  -1.414  1.00 36.89     0.145 N 
HETATM   30  C21   D T 802     -14.089   6.785  -0.704  1.00 44.86     0.274 C 
HETATM   31  C22   D T 802     -14.399   6.316   0.666  1.00 44.44     0.133 C 
HETATM   32  N4    D T 802     -15.060   5.061   0.512  1.00 40.34    -0.364 N 
HETATM   33  C23   D T 802     -14.300   4.006  -0.162  1.00 39.95     0.133 C 
HETATM   34  C25   D T 802     -15.909   4.642   1.576  1.00 37.53     0.121 C 
HETATM   35  C24   D T 802     -13.590   4.445  -1.432  1.00 39.71     0.274 C 
ENDBRANCH  28  29
ENDBRANCH  25  28
BRANCH  26  36
HETATM   36  C19   D T 802     -10.114   5.474  -3.519  1.00 33.51     0.419 C 
HETATM   37  F1    D T 802     -10.191   5.314  -2.201  1.00 36.24    -0.166 F 
HETATM   38  F2    D T 802     -10.048   6.767  -3.861  1.00 30.68    -0.166 F 
HETATM   39  F3    D T 802      -9.028   4.868  -3.950  1.00 35.27    -0.166 F 
ENDBRANCH  26  36
ENDBRANCH   3  22
TORSDOF 7
ENDMDL
MODEL 9
REMARK VINA RESULT:    -8.614      2.338      3.201
REMARK INTER + INTRA:         -13.035
REMARK INTER:                 -12.456
REMARK INTRA:                  -0.579
REMARK UNBOUND:                -0.896
REMARK  7 active torsions:
REMARK  status: ('A' for Active; 'I' for Inactive)
REMARK    1  A    between atoms: N3_2  and  C20_12 
REMARK    2  A    between atoms: C4_3  and  C5_4 
REMARK    3  A    between atoms: C13_9  and  N2_29 
REMARK    4  A    between atoms: C17_11  and  C19_33 
REMARK    5  A    between atoms: C20_12  and  C16_31 
REMARK    6  A    between atoms: C2_23  and  C3_24 
REMARK    7  A    between atoms: C9_25  and  C12_27 
REMARK       I    between atoms: C12_27  and  N2_29 
ROOT
HETATM    1  C12   D T 802     -13.018   3.424  -4.916  1.00 36.63     0.279 C 
HETATM    2  O1    D T 802     -12.705   4.560  -4.567  1.00 28.54    -0.265 OA
HETATM    3  N2    D T 802     -14.232   2.637  -4.586  1.00 30.48    -0.208 NA
ENDROOT
BRANCH   1   4
HETATM    4  C9    D T 802     -11.975   2.841  -5.815  1.00 39.24     0.059 A 
HETATM    5  C8    D T 802     -10.688   3.335  -5.858  1.00 38.85     0.004 A 
HETATM    6  C7    D T 802      -9.791   2.730  -6.709  1.00 38.31    -0.004 A 
HETATM    7  C6    D T 802     -10.197   1.660  -7.501  1.00 39.99    -0.014 A 
HETATM    8  C5    D T 802     -11.513   1.180  -7.448  1.00 37.28     0.038 A 
HETATM    9  C11   D T 802      -9.194   1.027  -8.416  1.00 36.14     0.032 C 
HETATM   10  C10   D T 802     -12.421   1.771  -6.591  1.00 38.91     0.013 A 
BRANCH   8  11
HETATM   11  C4    D T 802     -12.023   0.041  -8.274  1.00 36.52    -0.058 C 
HETATM   12  C3    D T 802     -12.498  -0.877  -8.909  1.00 35.65    -0.039 C 
BRANCH  12  13
HETATM   13  C2    D T 802     -13.128  -2.031  -9.616  1.00 34.07     0.145 A 
HETATM   14  N82   D T 802     -13.939  -3.005  -9.101  1.00 35.67    -0.203 N 
HETATM   15  N81   D T 802     -14.415  -3.265  -7.839  1.00 35.29    -0.162 NA
HETATM   16  C84   D T 802     -14.278  -3.837 -10.151  1.00 34.05     0.165 A 
HETATM   17  C83   D T 802     -15.207  -4.325  -7.621  1.00 37.33     0.121 A 
HETATM   18  C82   D T 802     -15.555  -5.167  -8.639  1.00 38.88     0.026 A 
HETATM   19  C81   D T 802     -15.100  -4.944  -9.923  1.00 36.88     0.041 A 
HETATM   20  N1    D T 802     -13.701  -3.379 -11.247  1.00 28.39    -0.223 NA
HETATM   21  C1    D T 802     -12.999  -2.293 -10.975  1.00 31.93     0.128 A 
ENDBRANCH  12  13
ENDBRANCH   8  11
ENDBRANCH   1   4
BRANCH   3  22
HETATM   22  C13   D T 802     -15.323   3.075  -3.699  1.00 25.44     0.085 A 
HETATM   23  C14   D T 802     -15.039   3.475  -2.398  1.00 31.06     0.019 A 
HETATM   24  C15   D T 802     -16.034   3.917  -1.526  1.00 31.55    -0.001 A 
HETATM   25  C16   D T 802     -17.335   3.975  -1.941  1.00 34.66     0.015 A 
HETATM   26  C17   D T 802     -17.671   3.579  -3.255  1.00 33.80     0.071 A 
HETATM   27  C18   D T 802     -16.668   3.133  -4.146  1.00 29.18     0.023 A 
BRANCH  25  28
HETATM   28  C20   D T 802     -18.346   4.459  -0.916  1.00 35.75     0.277 C 
BRANCH  28  29
HETATM   29  N3    D T 802     -18.152   3.893   0.388  1.00 36.89     0.145 N 
HETATM   30  C21   D T 802     -17.382   4.783   1.242  1.00 44.86     0.274 C 
HETATM   31  C22   D T 802     -17.096   4.177   2.564  1.00 44.44     0.133 C 
HETATM   32  N4    D T 802     -18.366   3.924   3.163  1.00 40.34    -0.364 N 
HETATM   33  C23   D T 802     -19.256   3.016   2.436  1.00 39.95     0.133 C 
HETATM   34  C25   D T 802     -18.405   3.839   4.584  1.00 37.53     0.121 C 
HETATM   35  C24   D T 802     -19.365   3.288   0.945  1.00 39.71     0.274 C 
ENDBRANCH  28  29
ENDBRANCH  25  28
BRANCH  26  36
HETATM   36  C19   D T 802     -19.100   3.654  -3.705  1.00 33.51     0.419 C 
HETATM   37  F1    D T 802     -19.553   4.882  -3.469  1.00 36.24    -0.166 F 
HETATM   38  F2    D T 802     -19.818   2.726  -3.058  1.00 30.68    -0.166 F 
HETATM   39  F3    D T 802     -19.180   3.422  -4.998  1.00 35.27    -0.166 F 
ENDBRANCH  26  36
ENDBRANCH   3  22
TORSDOF 7
ENDMDL
