MODEL 1
REMARK VINA RESULT:    -8.512      0.000      0.000
REMARK INTER + INTRA:         -12.917
REMARK INTER:                 -11.995
REMARK INTRA:                  -0.922
REMARK UNBOUND:                -0.922
REMARK  7 active torsions:
REMARK  status: ('A' for Active; 'I' for Inactive)
REMARK    1  A    between atoms: N3_2  and  C20_12 
REMARK    2  A    between atoms: C4_3  and  C5_4 
REMARK    3  A    between atoms: C13_9  and  N2_29 
REMARK    4  A    between atoms: C17_11  and  C19_33 
REMARK    5  A    between atoms: C20_12  and  C16_31 
REMARK    6  A    between atoms: C2_23  and  C3_24 
REMARK    7  A    between atoms: C9_25  and  C12_27 
REMARK       I    between atoms: C12_27  and  N2_29 
ROOT
HETATM    1  C12   D T 802       8.360  -7.257  -0.016  1.00 36.63     0.279 C 
HETATM    2  O1    D T 802       7.375  -7.322  -0.749  1.00 28.54    -0.265 OA
HETATM    3  N2    D T 802       9.080  -8.343   0.693  1.00 30.48    -0.208 NA
ENDROOT
BRANCH   1   4
HETATM    4  C9    D T 802       8.841  -5.846   0.099  1.00 39.24     0.059 A 
HETATM    5  C8    D T 802       9.505  -5.389   1.216  1.00 38.85     0.004 A 
HETATM    6  C7    D T 802       9.921  -4.077   1.231  1.00 38.31    -0.004 A 
HETATM    7  C6    D T 802       9.658  -3.253   0.142  1.00 39.99    -0.014 A 
HETATM    8  C5    D T 802       8.973  -3.735  -0.982  1.00 37.28     0.038 A 
HETATM    9  C11   D T 802      10.124  -1.829   0.193  1.00 36.14     0.032 C 
HETATM   10  C10   D T 802       8.559  -5.052  -1.014  1.00 38.91     0.013 A 
BRANCH   8  11
HETATM   11  C4    D T 802       8.647  -2.906  -2.184  1.00 36.52    -0.058 C 
HETATM   12  C3    D T 802       8.381  -2.296  -3.198  1.00 35.65    -0.039 C 
BRANCH  12  13
HETATM   13  C2    D T 802       8.103  -1.602  -4.490  1.00 34.07     0.145 A 
HETATM   14  N82   D T 802       8.473  -0.343  -4.877  1.00 35.67    -0.203 N 
HETATM   15  N81   D T 802       9.165   0.669  -4.256  1.00 35.29    -0.162 NA
HETATM   16  C84   D T 802       7.995  -0.166  -6.161  1.00 34.05     0.165 A 
HETATM   17  C83   D T 802       9.377   1.831  -4.892  1.00 37.33     0.121 A 
HETATM   18  C82   D T 802       8.913   2.036  -6.160  1.00 38.88     0.026 A 
HETATM   19  C81   D T 802       8.213   1.047  -6.822  1.00 36.88     0.041 A 
HETATM   20  N1    D T 802       7.372  -1.268  -6.529  1.00 28.39    -0.223 NA
HETATM   21  C1    D T 802       7.411  -2.162  -5.556  1.00 31.93     0.128 A 
ENDBRANCH  12  13
ENDBRANCH   8  11
ENDBRANCH   1   4
BRANCH   3  22
HETATM   22  C13   D T 802       8.706  -9.768   0.687  1.00 25.44     0.085 A 
HETATM   23  C14   D T 802       8.956 -10.543  -0.441  1.00 31.06     0.019 A 
HETATM   24  C15   D T 802       8.640 -11.901  -0.488  1.00 31.55    -0.001 A 
HETATM   25  C16   D T 802       8.075 -12.513   0.594  1.00 34.66     0.015 A 
HETATM   26  C17   D T 802       7.804 -11.765   1.761  1.00 33.80     0.071 A 
HETATM   27  C18   D T 802       8.124 -10.389   1.819  1.00 29.18     0.023 A 
BRANCH  25  28
HETATM   28  C20   D T 802       7.758 -13.991   0.441  1.00 35.75     0.277 C 
BRANCH  28  29
HETATM   29  N3    D T 802       8.751 -14.714  -0.299  1.00 36.89     0.145 N 
HETATM   30  C21   D T 802       9.683 -15.390   0.589  1.00 44.86     0.274 C 
HETATM   31  C22   D T 802      10.769 -16.070  -0.155  1.00 44.44     0.133 C 
HETATM   32  N4    D T 802      10.129 -17.031  -0.994  1.00 40.34    -0.364 N 
HETATM   33  C23   D T 802       9.175 -16.504  -1.973  1.00 39.95     0.133 C 
HETATM   34  C25   D T 802      10.910 -18.145  -1.416  1.00 37.53     0.121 C 
HETATM   35  C24   D T 802       8.200 -15.476  -1.423  1.00 39.71     0.274 C 
ENDBRANCH  28  29
ENDBRANCH  25  28
BRANCH  26  36
HETATM   36  C19   D T 802       7.189 -12.448   2.948  1.00 33.51     0.419 C 
HETATM   37  F1    D T 802       7.072 -11.562   3.931  1.00 36.24    -0.166 F 
HETATM   38  F2    D T 802       7.953 -13.491   3.304  1.00 30.68    -0.166 F 
HETATM   39  F3    D T 802       5.989 -12.893   2.641  1.00 35.27    -0.166 F 
ENDBRANCH  26  36
ENDBRANCH   3  22
TORSDOF 7
ENDMDL
MODEL 2
REMARK VINA RESULT:    -8.446      2.213      3.196
REMARK INTER + INTRA:         -12.825
REMARK INTER:                 -12.042
REMARK INTRA:                  -0.783
REMARK UNBOUND:                -0.922
REMARK  7 active torsions:
REMARK  status: ('A' for Active; 'I' for Inactive)
REMARK    1  A    between atoms: N3_2  and  C20_12 
REMARK    2  A    between atoms: C4_3  and  C5_4 
REMARK    3  A    between atoms: C13_9  and  N2_29 
REMARK    4  A    between atoms: C17_11  and  C19_33 
REMARK    5  A    between atoms: C20_12  and  C16_31 
REMARK    6  A    between atoms: C2_23  and  C3_24 
REMARK    7  A    between atoms: C9_25  and  C12_27 
REMARK       I    between atoms: C12_27  and  N2_29 
ROOT
HETATM    1  C12   D T 802       8.464  -7.526   0.094  1.00 36.63     0.279 C 
HETATM    2  O1    D T 802       7.387  -7.716  -0.468  1.00 28.54    -0.265 OA
HETATM    3  N2    D T 802       9.387  -8.505   0.719  1.00 30.48    -0.208 NA
ENDROOT
BRANCH   1   4
HETATM    4  C9    D T 802       8.819  -6.074   0.077  1.00 39.24     0.059 A 
HETATM    5  C8    D T 802       9.313  -5.429   1.190  1.00 38.85     0.004 A 
HETATM    6  C7    D T 802       9.622  -4.092   1.080  1.00 38.31    -0.004 A 
HETATM    7  C6    D T 802       9.425  -3.431  -0.127  1.00 39.99    -0.014 A 
HETATM    8  C5    D T 802       8.913  -4.103  -1.245  1.00 37.28     0.038 A 
HETATM    9  C11   D T 802       9.772  -1.975  -0.210  1.00 36.14     0.032 C 
HETATM   10  C10   D T 802       8.607  -5.446  -1.152  1.00 38.91     0.013 A 
BRANCH   8  11
HETATM   11  C4    D T 802       8.666  -3.456  -2.572  1.00 36.52    -0.058 C 
HETATM   12  C3    D T 802       8.418  -2.888  -3.615  1.00 35.65    -0.039 C 
BRANCH  12  13
HETATM   13  C2    D T 802       8.030  -2.180  -4.870  1.00 34.07     0.145 A 
HETATM   14  N82   D T 802       8.259  -0.878  -5.218  1.00 35.67    -0.203 N 
HETATM   15  N81   D T 802       8.865   0.177  -4.578  1.00 35.29    -0.162 NA
HETATM   16  C84   D T 802       7.725  -0.703  -6.480  1.00 34.05     0.165 A 
HETATM   17  C83   D T 802       8.938   1.376  -5.174  1.00 37.33     0.121 A 
HETATM   18  C82   D T 802       8.415   1.579  -6.419  1.00 38.88     0.026 A 
HETATM   19  C81   D T 802       7.797   0.548  -7.099  1.00 36.88     0.041 A 
HETATM   20  N1    D T 802       7.204  -1.850  -6.873  1.00 28.39    -0.223 NA
HETATM   21  C1    D T 802       7.364  -2.769  -5.937  1.00 31.93     0.128 A 
ENDBRANCH  12  13
ENDBRANCH   8  11
ENDBRANCH   1   4
BRANCH   3  22
HETATM   22  C13   D T 802       9.155  -9.956   0.827  1.00 25.44     0.085 A 
HETATM   23  C14   D T 802       9.227 -10.576   2.070  1.00 31.06     0.019 A 
HETATM   24  C15   D T 802       8.995 -11.943   2.228  1.00 31.55    -0.001 A 
HETATM   25  C16   D T 802       8.678 -12.715   1.148  1.00 34.66     0.015 A 
HETATM   26  C17   D T 802       8.594 -12.128  -0.135  1.00 33.80     0.071 A 
HETATM   27  C18   D T 802       8.824 -10.743  -0.303  1.00 29.18     0.023 A 
BRANCH  25  28
HETATM   28  C20   D T 802       8.456 -14.193   1.420  1.00 35.75     0.277 C 
BRANCH  28  29
HETATM   29  N3    D T 802       7.690 -14.445   2.607  1.00 36.89     0.145 N 
HETATM   30  C21   D T 802       6.286 -14.658   2.295  1.00 44.86     0.274 C 
HETATM   31  C22   D T 802       5.464 -14.833   3.515  1.00 44.44     0.133 C 
HETATM   32  N4    D T 802       5.984 -15.984   4.178  1.00 40.34    -0.364 N 
HETATM   33  C23   D T 802       7.388 -15.917   4.588  1.00 39.95     0.133 C 
HETATM   34  C25   D T 802       5.104 -16.676   5.059  1.00 37.53     0.121 C 
HETATM   35  C24   D T 802       8.337 -15.383   3.528  1.00 39.71     0.274 C 
ENDBRANCH  28  29
ENDBRANCH  25  28
BRANCH  26  36
HETATM   36  C19   D T 802       8.239 -12.984  -1.315  1.00 33.51     0.419 C 
HETATM   37  F1    D T 802       7.267 -13.816  -0.957  1.00 36.24    -0.166 F 
HETATM   38  F2    D T 802       9.331 -13.640  -1.730  1.00 30.68    -0.166 F 
HETATM   39  F3    D T 802       7.801 -12.231  -2.303  1.00 35.27    -0.166 F 
ENDBRANCH  26  36
ENDBRANCH   3  22
TORSDOF 7
ENDMDL
MODEL 3
REMARK VINA RESULT:    -8.150      2.005      2.675
REMARK INTER + INTRA:         -12.408
REMARK INTER:                 -11.502
REMARK INTRA:                  -0.905
REMARK UNBOUND:                -0.922
REMARK  7 active torsions:
REMARK  status: ('A' for Active; 'I' for Inactive)
REMARK    1  A    between atoms: N3_2  and  C20_12 
REMARK    2  A    between atoms: C4_3  and  C5_4 
REMARK    3  A    between atoms: C13_9  and  N2_29 
REMARK    4  A    between atoms: C17_11  and  C19_33 
REMARK    5  A    between atoms: C20_12  and  C16_31 
REMARK    6  A    between atoms: C2_23  and  C3_24 
REMARK    7  A    between atoms: C9_25  and  C12_27 
REMARK       I    between atoms: C12_27  and  N2_29 
ROOT
HETATM    1  C12   D T 802       8.658  -7.448   0.242  1.00 36.63     0.279 C 
HETATM    2  O1    D T 802       7.737  -7.692  -0.534  1.00 28.54    -0.265 OA
HETATM    3  N2    D T 802       9.430  -8.371   1.109  1.00 30.48    -0.208 NA
ENDROOT
BRANCH   1   4
HETATM    4  C9    D T 802       8.991  -5.990   0.224  1.00 39.24     0.059 A 
HETATM    5  C8    D T 802       9.622  -5.372   1.282  1.00 38.85     0.004 A 
HETATM    6  C7    D T 802       9.898  -4.027   1.175  1.00 38.31    -0.004 A 
HETATM    7  C6    D T 802       9.533  -3.332   0.027  1.00 39.99    -0.014 A 
HETATM    8  C5    D T 802       8.884  -3.979  -1.035  1.00 37.28     0.038 A 
HETATM    9  C11   D T 802       9.848  -1.870  -0.055  1.00 36.14     0.032 C 
HETATM   10  C10   D T 802       8.610  -5.329  -0.945  1.00 38.91     0.013 A 
BRANCH   8  11
HETATM   11  C4    D T 802       8.454  -3.296  -2.295  1.00 36.52    -0.058 C 
HETATM   12  C3    D T 802       8.158  -2.778  -3.351  1.00 35.65    -0.039 C 
BRANCH  12  13
HETATM   13  C2    D T 802       7.880  -2.139  -4.671  1.00 34.07     0.145 A 
HETATM   14  N82   D T 802       8.147  -0.859  -5.070  1.00 35.67    -0.203 N 
HETATM   15  N81   D T 802       8.708   0.227  -4.442  1.00 35.29    -0.162 NA
HETATM   16  C84   D T 802       7.719  -0.753  -6.380  1.00 34.05     0.165 A 
HETATM   17  C83   D T 802       8.840   1.391  -5.095  1.00 37.33     0.121 A 
HETATM   18  C82   D T 802       8.421   1.526  -6.388  1.00 38.88     0.026 A 
HETATM   19  C81   D T 802       7.852   0.462  -7.058  1.00 36.88     0.041 A 
HETATM   20  N1    D T 802       7.222  -1.918  -6.750  1.00 28.39    -0.223 NA
HETATM   21  C1    D T 802       7.298  -2.784  -5.755  1.00 31.93     0.128 A 
ENDBRANCH  12  13
ENDBRANCH   8  11
ENDBRANCH   1   4
BRANCH   3  22
HETATM   22  C13   D T 802       9.198  -9.819   1.243  1.00 25.44     0.085 A 
HETATM   23  C14   D T 802       8.040 -10.279   1.861  1.00 31.06     0.019 A 
HETATM   24  C15   D T 802       7.764 -11.640   1.994  1.00 31.55    -0.001 A 
HETATM   25  C16   D T 802       8.636 -12.569   1.503  1.00 34.66     0.015 A 
HETATM   26  C17   D T 802       9.825 -12.148   0.866  1.00 33.80     0.071 A 
HETATM   27  C18   D T 802      10.111 -10.771   0.725  1.00 29.18     0.023 A 
BRANCH  25  28
HETATM   28  C20   D T 802       8.252 -14.025   1.706  1.00 35.75     0.277 C 
BRANCH  28  29
HETATM   29  N3    D T 802       7.123 -14.432   0.920  1.00 36.89     0.145 N 
HETATM   30  C21   D T 802       7.531 -15.272  -0.195  1.00 44.86     0.274 C 
HETATM   31  C22   D T 802       6.391 -15.631  -1.069  1.00 44.44     0.133 C 
HETATM   32  N4    D T 802       5.473 -16.347  -0.244  1.00 40.34    -0.364 N 
HETATM   33  C23   D T 802       4.941 -15.625   0.913  1.00 39.95     0.133 C 
HETATM   34  C25   D T 802       4.571 -17.235  -0.899  1.00 37.53     0.121 C 
HETATM   35  C24   D T 802       5.981 -14.870   1.726  1.00 39.71     0.274 C 
ENDBRANCH  28  29
ENDBRANCH  25  28
BRANCH  26  36
HETATM   36  C19   D T 802      10.774 -13.176   0.324  1.00 33.51     0.419 C 
HETATM   37  F1    D T 802      11.938 -12.587   0.074  1.00 36.24    -0.166 F 
HETATM   38  F2    D T 802      10.246 -13.728  -0.778  1.00 30.68    -0.166 F 
HETATM   39  F3    D T 802      10.970 -14.125   1.216  1.00 35.27    -0.166 F 
ENDBRANCH  26  36
ENDBRANCH   3  22
TORSDOF 7
ENDMDL
MODEL 4
REMARK VINA RESULT:    -7.954      0.979      1.034
REMARK INTER + INTRA:         -12.131
REMARK INTER:                 -11.444
REMARK INTRA:                  -0.686
REMARK UNBOUND:                -0.922
REMARK  7 active torsions:
REMARK  status: ('A' for Active; 'I' for Inactive)
REMARK    1  A    between atoms: N3_2  and  C20_12 
REMARK    2  A    between atoms: C4_3  and  C5_4 
REMARK    3  A    between atoms: C13_9  and  N2_29 
REMARK    4  A    between atoms: C17_11  and  C19_33 
REMARK    5  A    between atoms: C20_12  and  C16_31 
REMARK    6  A    between atoms: C2_23  and  C3_24 
REMARK    7  A    between atoms: C9_25  and  C12_27 
REMARK       I    between atoms: C12_27  and  N2_29 
ROOT
HETATM    1  C12   D T 802       9.322  -6.832   1.475  1.00 36.63     0.279 C 
HETATM    2  O1    D T 802       9.282  -7.076   2.679  1.00 28.54    -0.265 OA
HETATM    3  N2    D T 802       9.033  -7.721   0.323  1.00 30.48    -0.208 NA
ENDROOT
BRANCH   1   4
HETATM    4  C9    D T 802       9.705  -5.406   1.237  1.00 39.24     0.059 A 
HETATM    5  C8    D T 802      10.428  -4.680   2.158  1.00 38.85     0.004 A 
HETATM    6  C7    D T 802      10.744  -3.376   1.851  1.00 38.31    -0.004 A 
HETATM    7  C6    D T 802      10.326  -2.826   0.644  1.00 39.99    -0.014 A 
HETATM    8  C5    D T 802       9.583  -3.580  -0.276  1.00 37.28     0.038 A 
HETATM    9  C11   D T 802      10.688  -1.403   0.343  1.00 36.14     0.032 C 
HETATM   10  C10   D T 802       9.268  -4.892   0.015  1.00 38.91     0.013 A 
BRANCH   8  11
HETATM   11  C4    D T 802       9.092  -3.053  -1.588  1.00 36.52    -0.058 C 
HETATM   12  C3    D T 802       8.747  -2.577  -2.649  1.00 35.65    -0.039 C 
BRANCH  12  13
HETATM   13  C2    D T 802       8.344  -1.912  -3.923  1.00 34.07     0.145 A 
HETATM   14  N82   D T 802       8.650  -0.653  -4.359  1.00 35.67    -0.203 N 
HETATM   15  N81   D T 802       9.368   0.385  -3.815  1.00 35.29    -0.162 NA
HETATM   16  C84   D T 802       8.061  -0.508  -5.600  1.00 34.05     0.165 A 
HETATM   17  C83   D T 802       9.498   1.540  -4.485  1.00 37.33     0.121 A 
HETATM   18  C82   D T 802       8.923   1.713  -5.711  1.00 38.88     0.026 A 
HETATM   19  C81   D T 802       8.193   0.698  -6.296  1.00 36.88     0.041 A 
HETATM   20  N1    D T 802       7.434  -1.630  -5.897  1.00 28.39    -0.223 NA
HETATM   21  C1    D T 802       7.577  -2.505  -4.917  1.00 31.93     0.128 A 
ENDBRANCH  12  13
ENDBRANCH   8  11
ENDBRANCH   1   4
BRANCH   3  22
HETATM   22  C13   D T 802       8.669  -9.146   0.407  1.00 25.44     0.085 A 
HETATM   23  C14   D T 802       8.846  -9.971  -0.698  1.00 31.06     0.019 A 
HETATM   24  C15   D T 802       8.536 -11.331  -0.662  1.00 31.55    -0.001 A 
HETATM   25  C16   D T 802       8.051 -11.894   0.483  1.00 34.66     0.015 A 
HETATM   26  C17   D T 802       7.856 -11.095   1.631  1.00 33.80     0.071 A 
HETATM   27  C18   D T 802       8.170  -9.716   1.604  1.00 29.18     0.023 A 
BRANCH  25  28
HETATM   28  C20   D T 802       7.733 -13.379   0.419  1.00 35.75     0.277 C 
BRANCH  28  29
HETATM   29  N3    D T 802       8.738 -14.149  -0.256  1.00 36.89     0.145 N 
HETATM   30  C21   D T 802       9.650 -14.772   0.690  1.00 44.86     0.274 C 
HETATM   31  C22   D T 802      10.746 -15.500   0.010  1.00 44.44     0.133 C 
HETATM   32  N4    D T 802      10.118 -16.508  -0.781  1.00 40.34    -0.364 N 
HETATM   33  C23   D T 802       9.186 -16.039  -1.809  1.00 39.95     0.133 C 
HETATM   34  C25   D T 802      10.903 -17.648  -1.119  1.00 37.53     0.121 C 
HETATM   35  C24   D T 802       8.205 -14.976  -1.341  1.00 39.71     0.274 C 
ENDBRANCH  28  29
ENDBRANCH  25  28
BRANCH  26  36
HETATM   36  C19   D T 802       7.328 -11.724   2.887  1.00 33.51     0.419 C 
HETATM   37  F1    D T 802       7.018 -10.759   3.746  1.00 36.24    -0.166 F 
HETATM   38  F2    D T 802       8.252 -12.559   3.386  1.00 30.68    -0.166 F 
HETATM   39  F3    D T 802       6.239 -12.414   2.623  1.00 35.27    -0.166 F 
ENDBRANCH  26  36
ENDBRANCH   3  22
TORSDOF 7
ENDMDL
MODEL 5
REMARK VINA RESULT:    -7.667      3.894     12.535
REMARK INTER + INTRA:         -11.726
REMARK INTER:                 -10.838
REMARK INTRA:                  -0.889
REMARK UNBOUND:                -0.922
REMARK  7 active torsions:
REMARK  status: ('A' for Active; 'I' for Inactive)
REMARK    1  A    between atoms: N3_2  and  C20_12 
REMARK    2  A    between atoms: C4_3  and  C5_4 
REMARK    3  A    between atoms: C13_9  and  N2_29 
REMARK    4  A    between atoms: C17_11  and  C19_33 
REMARK    5  A    between atoms: C20_12  and  C16_31 
REMARK    6  A    between atoms: C2_23  and  C3_24 
REMARK    7  A    between atoms: C9_25  and  C12_27 
REMARK       I    between atoms: C12_27  and  N2_29 
ROOT
HETATM    1  C12   D T 802      10.259  -6.386   0.453  1.00 36.63     0.279 C 
HETATM    2  O1    D T 802      11.262  -6.931  -0.001  1.00 28.54    -0.265 OA
HETATM    3  N2    D T 802       9.495  -5.228  -0.073  1.00 30.48    -0.208 NA
ENDROOT
BRANCH   1   4
HETATM    4  C9    D T 802       9.807  -7.069   1.704  1.00 39.24     0.059 A 
HETATM    5  C8    D T 802       9.839  -6.443   2.931  1.00 38.85     0.004 A 
HETATM    6  C7    D T 802       9.394  -7.146   4.028  1.00 38.31    -0.004 A 
HETATM    7  C6    D T 802       8.940  -8.452   3.879  1.00 39.99    -0.014 A 
HETATM    8  C5    D T 802       8.924  -9.073   2.622  1.00 37.28     0.038 A 
HETATM    9  C11   D T 802       8.464  -9.187   5.095  1.00 36.14     0.032 C 
HETATM   10  C10   D T 802       9.358  -8.377   1.512  1.00 38.91     0.013 A 
BRANCH   8  11
HETATM   11  C4    D T 802       8.458 -10.476   2.387  1.00 36.52    -0.058 C 
HETATM   12  C3    D T 802       8.021 -11.586   2.167  1.00 35.65    -0.039 C 
BRANCH  12  13
HETATM   13  C2    D T 802       7.402 -12.920   1.913  1.00 34.07     0.145 A 
HETATM   14  N82   D T 802       7.505 -13.709   0.801  1.00 35.67    -0.203 N 
HETATM   15  N81   D T 802       8.152 -13.561  -0.403  1.00 35.29    -0.162 NA
HETATM   16  C84   D T 802       6.769 -14.850   1.052  1.00 34.05     0.165 A 
HETATM   17  C83   D T 802       8.067 -14.520  -1.337  1.00 37.33     0.121 A 
HETATM   18  C82   D T 802       7.343 -15.656  -1.118  1.00 38.88     0.026 A 
HETATM   19  C81   D T 802       6.678 -15.848   0.077  1.00 36.88     0.041 A 
HETATM   20  N1    D T 802       6.251 -14.753   2.261  1.00 28.39    -0.223 NA
HETATM   21  C1    D T 802       6.605 -13.608   2.819  1.00 31.93     0.128 A 
ENDBRANCH  12  13
ENDBRANCH   8  11
ENDBRANCH   1   4
BRANCH   3  22
HETATM   22  C13   D T 802       9.836  -4.450  -1.276  1.00 25.44     0.085 A 
HETATM   23  C14   D T 802      10.453  -3.209  -1.144  1.00 31.06     0.019 A 
HETATM   24  C15   D T 802      10.814  -2.443  -2.252  1.00 31.55    -0.001 A 
HETATM   25  C16   D T 802      10.575  -2.905  -3.514  1.00 34.66     0.015 A 
HETATM   26  C17   D T 802       9.951  -4.159  -3.697  1.00 33.80     0.071 A 
HETATM   27  C18   D T 802       9.583  -4.943  -2.579  1.00 29.18     0.023 A 
BRANCH  25  28
HETATM   28  C20   D T 802      10.995  -1.992  -4.654  1.00 35.75     0.277 C 
BRANCH  28  29
HETATM   29  N3    D T 802      10.289  -0.743  -4.675  1.00 36.89     0.145 N 
HETATM   30  C21   D T 802      11.122   0.325  -5.203  1.00 44.86     0.274 C 
HETATM   31  C22   D T 802      10.441   1.640  -5.150  1.00 44.44     0.133 C 
HETATM   32  N4    D T 802       9.269   1.509  -5.954  1.00 40.34    -0.364 N 
HETATM   33  C23   D T 802       8.307   0.487  -5.535  1.00 39.95     0.133 C 
HETATM   34  C25   D T 802       8.719   2.705  -6.497  1.00 37.53     0.121 C 
HETATM   35  C24   D T 802       8.919  -0.858  -5.181  1.00 39.71     0.274 C 
ENDBRANCH  28  29
ENDBRANCH  25  28
BRANCH  26  36
HETATM   36  C19   D T 802       9.698  -4.661  -5.088  1.00 33.51     0.419 C 
HETATM   37  F1    D T 802       9.292  -5.924  -5.015  1.00 36.24    -0.166 F 
HETATM   38  F2    D T 802      10.818  -4.537  -5.814  1.00 30.68    -0.166 F 
HETATM   39  F3    D T 802       8.747  -3.950  -5.658  1.00 35.27    -0.166 F 
ENDBRANCH  26  36
ENDBRANCH   3  22
TORSDOF 7
ENDMDL
MODEL 6
REMARK VINA RESULT:    -7.606      2.613      3.570
REMARK INTER + INTRA:         -11.641
REMARK INTER:                 -10.770
REMARK INTRA:                  -0.870
REMARK UNBOUND:                -0.922
REMARK  7 active torsions:
REMARK  status: ('A' for Active; 'I' for Inactive)
REMARK    1  A    between atoms: N3_2  and  C20_12 
REMARK    2  A    between atoms: C4_3  and  C5_4 
REMARK    3  A    between atoms: C13_9  and  N2_29 
REMARK    4  A    between atoms: C17_11  and  C19_33 
REMARK    5  A    between atoms: C20_12  and  C16_31 
REMARK    6  A    between atoms: C2_23  and  C3_24 
REMARK    7  A    between atoms: C9_25  and  C12_27 
REMARK       I    between atoms: C12_27  and  N2_29 
ROOT
HETATM    1  C12   D T 802       9.648  -6.611   2.143  1.00 36.63     0.279 C 
HETATM    2  O1    D T 802       9.390  -6.776   3.333  1.00 28.54    -0.265 OA
HETATM    3  N2    D T 802       9.557  -7.573   1.017  1.00 30.48    -0.208 NA
ENDROOT
BRANCH   1   4
HETATM    4  C9    D T 802      10.088  -5.205   1.887  1.00 39.24     0.059 A 
HETATM    5  C8    D T 802      10.947  -4.542   2.737  1.00 38.85     0.004 A 
HETATM    6  C7    D T 802      11.306  -3.252   2.417  1.00 38.31    -0.004 A 
HETATM    7  C6    D T 802      10.797  -2.654   1.270  1.00 39.99    -0.014 A 
HETATM    8  C5    D T 802       9.918  -3.343   0.423  1.00 37.28     0.038 A 
HETATM    9  C11   D T 802      11.210  -1.248   0.953  1.00 36.14     0.032 C 
HETATM   10  C10   D T 802       9.557  -4.641   0.726  1.00 38.91     0.013 A 
BRANCH   8  11
HETATM   11  C4    D T 802       9.324  -2.762  -0.822  1.00 36.52    -0.058 C 
HETATM   12  C3    D T 802       8.898  -2.319  -1.868  1.00 35.65    -0.039 C 
BRANCH  12  13
HETATM   13  C2    D T 802       8.456  -1.763  -3.180  1.00 34.07     0.145 A 
HETATM   14  N82   D T 802       8.771  -0.556  -3.742  1.00 35.67    -0.203 N 
HETATM   15  N81   D T 802       9.534   0.508  -3.325  1.00 35.29    -0.162 NA
HETATM   16  C84   D T 802       8.134  -0.510  -4.967  1.00 34.05     0.165 A 
HETATM   17  C83   D T 802       9.660   1.594  -4.102  1.00 37.33     0.121 A 
HETATM   18  C82   D T 802       9.039   1.670  -5.315  1.00 38.88     0.026 A 
HETATM   19  C81   D T 802       8.263   0.625  -5.775  1.00 36.88     0.041 A 
HETATM   20  N1    D T 802       7.472  -1.638  -5.134  1.00 28.39    -0.223 NA
HETATM   21  C1    D T 802       7.636  -2.424  -4.085  1.00 31.93     0.128 A 
ENDBRANCH  12  13
ENDBRANCH   8  11
ENDBRANCH   1   4
BRANCH   3  22
HETATM   22  C13   D T 802       9.162  -8.988   1.126  1.00 25.44     0.085 A 
HETATM   23  C14   D T 802       7.845  -9.316   1.432  1.00 31.06     0.019 A 
HETATM   24  C15   D T 802       7.417 -10.640   1.526  1.00 31.55    -0.001 A 
HETATM   25  C16   D T 802       8.295 -11.663   1.308  1.00 34.66     0.015 A 
HETATM   26  C17   D T 802       9.642 -11.377   0.994  1.00 33.80     0.071 A 
HETATM   27  C18   D T 802      10.084 -10.038   0.894  1.00 29.18     0.023 A 
BRANCH  25  28
HETATM   28  C20   D T 802       7.736 -13.069   1.445  1.00 35.75     0.277 C 
BRANCH  28  29
HETATM   29  N3    D T 802       7.097 -13.309   2.707  1.00 36.89     0.145 N 
HETATM   30  C21   D T 802       6.305 -14.528   2.676  1.00 44.86     0.274 C 
HETATM   31  C22   D T 802       5.567 -14.746   3.942  1.00 44.44     0.133 C 
HETATM   32  N4    D T 802       6.559 -14.848   4.962  1.00 40.34    -0.364 N 
HETATM   33  C23   D T 802       7.426 -13.682   5.143  1.00 39.95     0.133 C 
HETATM   34  C25   D T 802       6.198 -15.553   6.147  1.00 37.53     0.121 C 
HETATM   35  C24   D T 802       7.981 -13.095   3.856  1.00 39.71     0.274 C 
ENDBRANCH  28  29
ENDBRANCH  25  28
BRANCH  26  36
HETATM   36  C19   D T 802      10.598 -12.508   0.750  1.00 33.51     0.419 C 
HETATM   37  F1    D T 802      10.705 -13.220   1.867  1.00 36.24    -0.166 F 
HETATM   38  F2    D T 802      11.780 -12.012   0.359  1.00 30.68    -0.166 F 
HETATM   39  F3    D T 802      10.136 -13.292  -0.202  1.00 35.27    -0.166 F 
ENDBRANCH  26  36
ENDBRANCH   3  22
TORSDOF 7
ENDMDL
MODEL 7
REMARK VINA RESULT:    -7.560     25.153     26.978
REMARK INTER + INTRA:         -11.575
REMARK INTER:                 -10.701
REMARK INTRA:                  -0.875
REMARK UNBOUND:                -0.922
REMARK  7 active torsions:
REMARK  status: ('A' for Active; 'I' for Inactive)
REMARK    1  A    between atoms: N3_2  and  C20_12 
REMARK    2  A    between atoms: C4_3  and  C5_4 
REMARK    3  A    between atoms: C13_9  and  N2_29 
REMARK    4  A    between atoms: C17_11  and  C19_33 
REMARK    5  A    between atoms: C20_12  and  C16_31 
REMARK    6  A    between atoms: C2_23  and  C3_24 
REMARK    7  A    between atoms: C9_25  and  C12_27 
REMARK       I    between atoms: C12_27  and  N2_29 
ROOT
HETATM    1  C12   D T 802      -6.301   6.105 -17.663  1.00 36.63     0.279 C 
HETATM    2  O1    D T 802      -6.660   7.027 -18.392  1.00 28.54    -0.265 OA
HETATM    3  N2    D T 802      -6.372   5.989 -16.185  1.00 30.48    -0.208 NA
ENDROOT
BRANCH   1   4
HETATM    4  C9    D T 802      -5.744   4.977 -18.472  1.00 39.24     0.059 A 
HETATM    5  C8    D T 802      -6.516   3.901 -18.853  1.00 38.85     0.004 A 
HETATM    6  C7    D T 802      -5.922   2.913 -19.606  1.00 38.31    -0.004 A 
HETATM    7  C6    D T 802      -4.579   3.016 -19.952  1.00 39.99    -0.014 A 
HETATM    8  C5    D T 802      -3.810   4.116 -19.547  1.00 37.28     0.038 A 
HETATM    9  C11   D T 802      -3.966   1.922 -20.772  1.00 36.14     0.032 C 
HETATM   10  C10   D T 802      -4.395   5.119 -18.800  1.00 38.91     0.013 A 
BRANCH   8  11
HETATM   11  C4    D T 802      -2.360   4.291 -19.874  1.00 36.52    -0.058 C 
HETATM   12  C3    D T 802      -1.205   4.460 -20.202  1.00 35.65    -0.039 C 
BRANCH  12  13
HETATM   13  C2    D T 802       0.194   4.650 -20.688  1.00 34.07     0.145 A 
HETATM   14  N82   D T 802       1.056   5.676 -20.420  1.00 35.67    -0.203 N 
HETATM   15  N81   D T 802       0.949   6.829 -19.679  1.00 35.29    -0.162 NA
HETATM   16  C84   D T 802       2.233   5.392 -21.086  1.00 34.05     0.165 A 
HETATM   17  C83   D T 802       1.983   7.680 -19.600  1.00 37.33     0.121 A 
HETATM   18  C82   D T 802       3.156   7.427 -20.251  1.00 38.88     0.026 A 
HETATM   19  C81   D T 802       3.308   6.282 -21.007  1.00 36.88     0.041 A 
HETATM   20  N1    D T 802       2.085   4.245 -21.720  1.00 28.39    -0.223 NA
HETATM   21  C1    D T 802       0.873   3.760 -21.509  1.00 31.93     0.128 A 
ENDBRANCH  12  13
ENDBRANCH   8  11
ENDBRANCH   1   4
BRANCH   3  22
HETATM   22  C13   D T 802      -6.872   7.025 -15.266  1.00 25.44     0.085 A 
HETATM   23  C14   D T 802      -8.176   7.493 -15.395  1.00 31.06     0.019 A 
HETATM   24  C15   D T 802      -8.703   8.458 -14.537  1.00 31.55    -0.001 A 
HETATM   25  C16   D T 802      -7.940   8.967 -13.526  1.00 34.66     0.015 A 
HETATM   26  C17   D T 802      -6.611   8.521 -13.355  1.00 33.80     0.071 A 
HETATM   27  C18   D T 802      -6.070   7.541 -14.219  1.00 29.18     0.023 A 
BRANCH  25  28
HETATM   28  C20   D T 802      -8.600  10.021 -12.652  1.00 35.75     0.277 C 
BRANCH  28  29
HETATM   29  N3    D T 802      -9.747   9.535 -11.940  1.00 36.89     0.145 N 
HETATM   30  C21   D T 802      -9.447   9.330 -10.532  1.00 44.86     0.274 C 
HETATM   31  C22   D T 802     -10.593   8.746  -9.797  1.00 44.44     0.133 C 
HETATM   32  N4    D T 802     -11.662   9.682  -9.925  1.00 40.34    -0.364 N 
HETATM   33  C23   D T 802     -12.106   9.976 -11.290  1.00 39.95     0.133 C 
HETATM   34  C25   D T 802     -12.679   9.644  -8.928  1.00 37.53     0.121 C 
HETATM   35  C24   D T 802     -10.985  10.239 -12.282  1.00 39.71     0.274 C 
ENDBRANCH  28  29
ENDBRANCH  25  28
BRANCH  26  36
HETATM   36  C19   D T 802      -5.783   9.083 -12.237  1.00 33.51     0.419 C 
HETATM   37  F1    D T 802      -6.331   8.722 -11.082  1.00 36.24    -0.166 F 
HETATM   38  F2    D T 802      -5.714  10.415 -12.362  1.00 30.68    -0.166 F 
HETATM   39  F3    D T 802      -4.562   8.593 -12.290  1.00 35.27    -0.166 F 
ENDBRANCH  26  36
ENDBRANCH   3  22
TORSDOF 7
ENDMDL
MODEL 8
REMARK VINA RESULT:    -7.437      1.834      2.287
REMARK INTER + INTRA:         -11.402
REMARK INTER:                 -10.902
REMARK INTRA:                  -0.500
REMARK UNBOUND:                -0.922
REMARK  7 active torsions:
REMARK  status: ('A' for Active; 'I' for Inactive)
REMARK    1  A    between atoms: N3_2  and  C20_12 
REMARK    2  A    between atoms: C4_3  and  C5_4 
REMARK    3  A    between atoms: C13_9  and  N2_29 
REMARK    4  A    between atoms: C17_11  and  C19_33 
REMARK    5  A    between atoms: C20_12  and  C16_31 
REMARK    6  A    between atoms: C2_23  and  C3_24 
REMARK    7  A    between atoms: C9_25  and  C12_27 
REMARK       I    between atoms: C12_27  and  N2_29 
ROOT
HETATM    1  C12   D T 802       9.780  -7.709  -0.031  1.00 36.63     0.279 C 
HETATM    2  O1    D T 802      10.670  -8.122  -0.772  1.00 28.54    -0.265 OA
HETATM    3  N2    D T 802       8.807  -8.472   0.789  1.00 30.48    -0.208 NA
ENDROOT
BRANCH   1   4
HETATM    4  C9    D T 802       9.768  -6.214  -0.002  1.00 39.24     0.059 A 
HETATM    5  C8    D T 802      10.119  -5.503   1.125  1.00 38.85     0.004 A 
HETATM    6  C7    D T 802      10.088  -4.128   1.059  1.00 38.31    -0.004 A 
HETATM    7  C6    D T 802       9.703  -3.498  -0.120  1.00 39.99    -0.014 A 
HETATM    8  C5    D T 802       9.342  -4.242  -1.253  1.00 37.28     0.038 A 
HETATM    9  C11   D T 802       9.681  -2.000  -0.157  1.00 36.14     0.032 C 
HETATM   10  C10   D T 802       9.377  -5.621  -1.203  1.00 38.91     0.013 A 
BRANCH   8  11
HETATM   11  C4    D T 802       8.909  -3.634  -2.550  1.00 36.52    -0.058 C 
HETATM   12  C3    D T 802       8.581  -3.079  -3.577  1.00 35.65    -0.039 C 
BRANCH  12  13
HETATM   13  C2    D T 802       8.156  -2.324  -4.794  1.00 34.07     0.145 A 
HETATM   14  N82   D T 802       8.373  -1.009  -5.098  1.00 35.67    -0.203 N 
HETATM   15  N81   D T 802       8.996   0.022  -4.435  1.00 35.29    -0.162 NA
HETATM   16  C84   D T 802       7.802  -0.788  -6.336  1.00 34.05     0.165 A 
HETATM   17  C83   D T 802       9.050   1.244  -4.986  1.00 37.33     0.121 A 
HETATM   18  C82   D T 802       8.491   1.492  -6.207  1.00 38.88     0.026 A 
HETATM   19  C81   D T 802       7.855   0.487  -6.908  1.00 36.88     0.041 A 
HETATM   20  N1    D T 802       7.272  -1.920  -6.758  1.00 28.39    -0.223 NA
HETATM   21  C1    D T 802       7.461  -2.874  -5.863  1.00 31.93     0.128 A 
ENDBRANCH  12  13
ENDBRANCH   8  11
ENDBRANCH   1   4
BRANCH   3  22
HETATM   22  C13   D T 802       8.690  -9.939   0.839  1.00 25.44     0.085 A 
HETATM   23  C14   D T 802       8.737 -10.595   2.065  1.00 31.06     0.019 A 
HETATM   24  C15   D T 802       8.611 -11.980   2.168  1.00 31.55    -0.001 A 
HETATM   25  C16   D T 802       8.425 -12.737   1.047  1.00 34.66     0.015 A 
HETATM   26  C17   D T 802       8.369 -12.115  -0.220  1.00 33.80     0.071 A 
HETATM   27  C18   D T 802       8.494 -10.711  -0.332  1.00 29.18     0.023 A 
BRANCH  25  28
HETATM   28  C20   D T 802       8.309 -14.237   1.261  1.00 35.75     0.277 C 
BRANCH  28  29
HETATM   29  N3    D T 802       9.479 -14.962   0.858  1.00 36.89     0.145 N 
HETATM   30  C21   D T 802      10.630 -14.601   1.670  1.00 44.86     0.274 C 
HETATM   31  C22   D T 802      11.868 -15.274   1.213  1.00 44.44     0.133 C 
HETATM   32  N4    D T 802      11.622 -16.675   1.333  1.00 40.34    -0.364 N 
HETATM   33  C23   D T 802      10.506 -17.206   0.548  1.00 39.95     0.133 C 
HETATM   34  C25   D T 802      12.759 -17.523   1.463  1.00 37.53     0.121 C 
HETATM   35  C24   D T 802       9.228 -16.387   0.621  1.00 39.71     0.274 C 
ENDBRANCH  28  29
ENDBRANCH  25  28
BRANCH  26  36
HETATM   36  C19   D T 802       8.158 -12.955  -1.446  1.00 33.51     0.419 C 
HETATM   37  F1    D T 802       7.752 -12.166  -2.434  1.00 36.24    -0.166 F 
HETATM   38  F2    D T 802       7.264 -13.916  -1.175  1.00 30.68    -0.166 F 
HETATM   39  F3    D T 802       9.291 -13.523  -1.803  1.00 35.27    -0.166 F 
ENDBRANCH  26  36
ENDBRANCH   3  22
TORSDOF 7
ENDMDL
MODEL 9
REMARK VINA RESULT:    -7.332      1.760      2.139
REMARK INTER + INTRA:         -11.254
REMARK INTER:                 -10.478
REMARK INTRA:                  -0.777
REMARK UNBOUND:                -0.922
REMARK  7 active torsions:
REMARK  status: ('A' for Active; 'I' for Inactive)
REMARK    1  A    between atoms: N3_2  and  C20_12 
REMARK    2  A    between atoms: C4_3  and  C5_4 
REMARK    3  A    between atoms: C13_9  and  N2_29 
REMARK    4  A    between atoms: C17_11  and  C19_33 
REMARK    5  A    between atoms: C20_12  and  C16_31 
REMARK    6  A    between atoms: C2_23  and  C3_24 
REMARK    7  A    between atoms: C9_25  and  C12_27 
REMARK       I    between atoms: C12_27  and  N2_29 
ROOT
HETATM    1  C12   D T 802       9.667  -7.169   0.554  1.00 36.63     0.279 C 
HETATM    2  O1    D T 802       8.474  -7.097   0.267  1.00 28.54    -0.265 OA
HETATM    3  N2    D T 802      10.453  -8.334   1.030  1.00 30.48    -0.208 NA
ENDROOT
BRANCH   1   4
HETATM    4  C9    D T 802      10.342  -5.852   0.343  1.00 39.24     0.059 A 
HETATM    5  C8    D T 802      11.329  -5.393   1.187  1.00 38.85     0.004 A 
HETATM    6  C7    D T 802      11.902  -4.172   0.910  1.00 38.31    -0.004 A 
HETATM    7  C6    D T 802      11.474  -3.438  -0.191  1.00 39.99    -0.014 A 
HETATM    8  C5    D T 802      10.462  -3.920  -1.033  1.00 37.28     0.038 A 
HETATM    9  C11   D T 802      12.120  -2.113  -0.462  1.00 36.14     0.032 C 
HETATM   10  C10   D T 802       9.885  -5.147  -0.772  1.00 38.91     0.013 A 
BRANCH   8  11
HETATM   11  C4    D T 802       9.945  -3.183  -2.229  1.00 36.52    -0.058 C 
HETATM   12  C3    D T 802       9.471  -2.562  -3.157  1.00 35.65    -0.039 C 
BRANCH  12  13
HETATM   13  C2    D T 802       8.808  -1.817  -4.267  1.00 34.07     0.145 A 
HETATM   14  N82   D T 802       9.023  -0.530  -4.677  1.00 35.67    -0.203 N 
HETATM   15  N81   D T 802       9.851   0.474  -4.235  1.00 35.29    -0.162 NA
HETATM   16  C84   D T 802       8.181  -0.308  -5.749  1.00 34.05     0.165 A 
HETATM   17  C83   D T 802       9.843   1.671  -4.839  1.00 37.33     0.121 A 
HETATM   18  C82   D T 802       9.018   1.921  -5.898  1.00 38.88     0.026 A 
HETATM   19  C81   D T 802       8.170   0.942  -6.376  1.00 36.88     0.041 A 
HETATM   20  N1    D T 802       7.496  -1.412  -5.975  1.00 28.39    -0.223 NA
HETATM   21  C1    D T 802       7.839  -2.349  -5.109  1.00 31.93     0.128 A 
ENDBRANCH  12  13
ENDBRANCH   8  11
ENDBRANCH   1   4
BRANCH   3  22
HETATM   22  C13   D T 802       9.916  -9.679   1.302  1.00 25.44     0.085 A 
HETATM   23  C14   D T 802      10.444 -10.781   0.637  1.00 31.06     0.019 A 
HETATM   24  C15   D T 802       9.985 -12.076   0.875  1.00 31.55    -0.001 A 
HETATM   25  C16   D T 802       8.995 -12.297   1.788  1.00 34.66     0.015 A 
HETATM   26  C17   D T 802       8.429 -11.208   2.488  1.00 33.80     0.071 A 
HETATM   27  C18   D T 802       8.891  -9.892   2.255  1.00 29.18     0.023 A 
BRANCH  25  28
HETATM   28  C20   D T 802       8.556 -13.741   1.968  1.00 35.75     0.277 C 
BRANCH  28  29
HETATM   29  N3    D T 802       7.459 -14.112   1.122  1.00 36.89     0.145 N 
HETATM   30  C21   D T 802       7.915 -14.868  -0.034  1.00 44.86     0.274 C 
HETATM   31  C22   D T 802       6.808 -15.186  -0.965  1.00 44.44     0.133 C 
HETATM   32  N4    D T 802       5.879 -15.971  -0.219  1.00 40.34    -0.364 N 
HETATM   33  C23   D T 802       5.300 -15.338   0.968  1.00 39.95     0.133 C 
HETATM   34  C25   D T 802       5.014 -16.828  -0.959  1.00 37.53     0.121 C 
HETATM   35  C24   D T 802       6.301 -14.623   1.861  1.00 39.71     0.274 C 
ENDBRANCH  28  29
ENDBRANCH  25  28
BRANCH  26  36
HETATM   36  C19   D T 802       7.346 -11.462   3.495  1.00 33.51     0.419 C 
HETATM   37  F1    D T 802       7.223 -10.385   4.264  1.00 36.24    -0.166 F 
HETATM   38  F2    D T 802       7.652 -12.554   4.209  1.00 30.68    -0.166 F 
HETATM   39  F3    D T 802       6.199 -11.669   2.882  1.00 35.27    -0.166 F 
ENDBRANCH  26  36
ENDBRANCH   3  22
TORSDOF 7
ENDMDL
