MODEL 1
REMARK VINA RESULT:    -6.851      0.000      0.000
REMARK INTER + INTRA:          -9.953
REMARK INTER:                  -8.854
REMARK INTRA:                  -1.099
REMARK UNBOUND:                -1.099
REMARK  10 active torsions:
REMARK  status: ('A' for Active; 'I' for Inactive)
REMARK    1  A    between atoms: C1_1  and  C21_25 
REMARK    2  A    between atoms: N1_14  and  C13_15 
REMARK    3  A    between atoms: C13_15  and  C14_16 
REMARK    4  A    between atoms: C14_16  and  C15_17 
REMARK    5  A    between atoms: C15_17  and  N2_18 
REMARK    6  A    between atoms: C1_29  and  C21_53 
REMARK    7  A    between atoms: N1_42  and  C13_43 
REMARK    8  A    between atoms: C13_43  and  C14_44 
REMARK    9  A    between atoms: C14_44  and  C15_45 
REMARK   10  A    between atoms: C15_45  and  N2_46 
ROOT
HETATM    1  C1    D T 203      26.355   7.035 -12.336  1.00 31.24     0.073 A 
HETATM    2  C2    D T 203      26.990   6.731 -13.525  1.00 29.52     0.004 A 
HETATM    3  C3    D T 203      28.100   5.893 -13.548  1.00 31.64     0.008 A 
HETATM    4  C4    D T 203      28.576   5.356 -12.355  1.00 32.35     0.045 A 
HETATM    5  C5    D T 203      27.938   5.671 -11.171  1.00 27.55     0.066 A 
HETATM    6  C6    D T 203      26.820   6.512 -11.137  1.00 28.26     0.022 A 
HETATM    7  S     D T 203      29.903   4.315 -12.302  1.00 46.57    -0.084 SA
HETATM    8  C7    D T 203      29.764   3.128 -11.139  1.00 54.54     0.045 A 
HETATM    9  C8    D T 203      30.267   1.836 -11.325  1.00 55.49     0.008 A 
HETATM   10  C9    D T 203      30.092   0.895 -10.318  1.00 51.42     0.001 A 
HETATM   11  C10   D T 203      29.441   1.244  -9.139  1.00 49.41     0.002 A 
HETATM   12  C11   D T 203      28.944   2.525  -8.945  1.00 52.67     0.018 A 
HETATM   13  C12   D T 203      29.114   3.464  -9.964  1.00 54.53     0.066 A 
HETATM   14  N1    D T 203      28.566   4.996  -9.836  1.00 62.60    -0.327 N 
ENDROOT
BRANCH  14  15
HETATM   15  C13   D T 203      27.905   5.352  -8.595  1.00 67.98     0.108 C 
BRANCH  15  16
HETATM   16  C14   D T 203      28.802   6.283  -7.775  1.00 73.94     0.060 C 
BRANCH  16  17
HETATM   17  C15   D T 203      28.617   7.762  -8.133  1.00 76.78     0.252 C 
BRANCH  17  18
HETATM   18  N2    D T 203      29.906   8.327  -8.495  1.00 78.95     0.141 N 
HETATM   19  C16   D T 203      30.092   8.389  -9.940  1.00 79.86     0.285 C 
HETATM   20  C17   D T 203      31.251   9.271 -10.436  1.00 78.05     0.285 C 
HETATM   21  N3    D T 203      31.724  10.266  -9.489  1.00 74.54     0.143 N 
HETATM   22  C18   D T 203      30.657  10.704  -8.614  1.00 73.58     0.285 C 
HETATM   23  C20   D T 203      32.834   9.753  -8.701  1.00 70.39     0.285 C 
HETATM   24  C19   D T 203      30.177   9.547  -7.748  1.00 76.99     0.285 C 
ENDBRANCH  17  18
ENDBRANCH  16  17
ENDBRANCH  15  16
ENDBRANCH  14  15
BRANCH   1  25
HETATM   25  C21   D T 203      25.154   7.984 -12.375  1.00 34.94     0.419 C 
HETATM   26  F1    D T 203      24.077   7.332 -12.870  1.00 43.95    -0.166 F 
HETATM   27  F2    D T 203      25.421   9.013 -13.220  1.00 34.86    -0.166 F 
HETATM   28  F3    D T 203      24.903   8.501 -11.140  1.00 34.91    -0.166 F 
ENDBRANCH   1  25
TORSDOF 10
ENDMDL
MODEL 2
REMARK VINA RESULT:    -6.535      1.286      1.682
REMARK INTER + INTRA:          -9.544
REMARK INTER:                  -8.735
REMARK INTRA:                  -0.808
REMARK UNBOUND:                -1.099
REMARK  10 active torsions:
REMARK  status: ('A' for Active; 'I' for Inactive)
REMARK    1  A    between atoms: C1_1  and  C21_25 
REMARK    2  A    between atoms: N1_14  and  C13_15 
REMARK    3  A    between atoms: C13_15  and  C14_16 
REMARK    4  A    between atoms: C14_16  and  C15_17 
REMARK    5  A    between atoms: C15_17  and  N2_18 
REMARK    6  A    between atoms: C1_29  and  C21_53 
REMARK    7  A    between atoms: N1_42  and  C13_43 
REMARK    8  A    between atoms: C13_43  and  C14_44 
REMARK    9  A    between atoms: C14_44  and  C15_45 
REMARK   10  A    between atoms: C15_45  and  N2_46 
ROOT
HETATM    1  C1    D T 203      26.395   6.920 -12.388  1.00 31.24     0.073 A 
HETATM    2  C2    D T 203      27.031   6.684 -13.591  1.00 29.52     0.004 A 
HETATM    3  C3    D T 203      28.155   5.867 -13.657  1.00 31.64     0.008 A 
HETATM    4  C4    D T 203      28.644   5.282 -12.493  1.00 32.35     0.045 A 
HETATM    5  C5    D T 203      28.005   5.528 -11.293  1.00 27.55     0.066 A 
HETATM    6  C6    D T 203      26.873   6.348 -11.217  1.00 28.26     0.022 A 
HETATM    7  S     D T 203      29.988   4.261 -12.493  1.00 46.57    -0.084 SA
HETATM    8  C7    D T 203      29.873   3.018 -11.388  1.00 54.54     0.045 A 
HETATM    9  C8    D T 203      30.396   1.746 -11.637  1.00 55.49     0.008 A 
HETATM   10  C9    D T 203      30.240   0.754 -10.676  1.00 51.42     0.001 A 
HETATM   11  C10   D T 203      29.588   1.036  -9.479  1.00 49.41     0.002 A 
HETATM   12  C11   D T 203      29.070   2.297  -9.223  1.00 52.67     0.018 A 
HETATM   13  C12   D T 203      29.221   3.287 -10.197  1.00 54.53     0.066 A 
HETATM   14  N1    D T 203      28.647   4.801  -9.994  1.00 62.60    -0.327 N 
ENDROOT
BRANCH  14  15
HETATM   15  C13   D T 203      27.985   5.086  -8.736  1.00 67.98     0.108 C 
BRANCH  15  16
HETATM   16  C14   D T 203      28.682   6.254  -8.031  1.00 73.94     0.060 C 
BRANCH  16  17
HETATM   17  C15   D T 203      27.746   7.438  -7.766  1.00 76.78     0.252 C 
BRANCH  17  18
HETATM   18  N2    D T 203      28.488   8.485  -7.084  1.00 78.95     0.141 N 
HETATM   19  C16   D T 203      29.606   8.975  -7.882  1.00 79.86     0.285 C 
HETATM   20  C17   D T 203      30.240  10.298  -7.420  1.00 78.05     0.285 C 
HETATM   21  N3    D T 203      29.406  11.118  -6.555  1.00 74.54     0.143 N 
HETATM   22  C18   D T 203      28.002  10.922  -6.845  1.00 73.58     0.285 C 
HETATM   23  C20   D T 203      29.670  10.835  -5.153  1.00 70.39     0.285 C 
HETATM   24  C19   D T 203      27.593   9.489  -6.527  1.00 76.99     0.285 C 
ENDBRANCH  17  18
ENDBRANCH  16  17
ENDBRANCH  15  16
ENDBRANCH  14  15
BRANCH   1  25
HETATM   25  C21   D T 203      25.178   7.850 -12.378  1.00 34.94     0.419 C 
HETATM   26  F1    D T 203      24.096   7.185 -12.846  1.00 43.95    -0.166 F 
HETATM   27  F2    D T 203      25.402   8.892 -13.219  1.00 34.86    -0.166 F 
HETATM   28  F3    D T 203      24.958   8.350 -11.130  1.00 34.91    -0.166 F 
ENDBRANCH   1  25
TORSDOF 10
ENDMDL
MODEL 3
REMARK VINA RESULT:    -6.370      2.605      4.378
REMARK INTER + INTRA:          -9.331
REMARK INTER:                  -8.486
REMARK INTRA:                  -0.845
REMARK UNBOUND:                -1.099
REMARK  10 active torsions:
REMARK  status: ('A' for Active; 'I' for Inactive)
REMARK    1  A    between atoms: C1_1  and  C21_25 
REMARK    2  A    between atoms: N1_14  and  C13_15 
REMARK    3  A    between atoms: C13_15  and  C14_16 
REMARK    4  A    between atoms: C14_16  and  C15_17 
REMARK    5  A    between atoms: C15_17  and  N2_18 
REMARK    6  A    between atoms: C1_29  and  C21_53 
REMARK    7  A    between atoms: N1_42  and  C13_43 
REMARK    8  A    between atoms: C13_43  and  C14_44 
REMARK    9  A    between atoms: C14_44  and  C15_45 
REMARK   10  A    between atoms: C15_45  and  N2_46 
ROOT
HETATM    1  C1    D T 203      26.448   6.901 -12.326  1.00 31.24     0.073 A 
HETATM    2  C2    D T 203      27.182   6.707 -13.480  1.00 29.52     0.004 A 
HETATM    3  C3    D T 203      28.309   5.891 -13.481  1.00 31.64     0.008 A 
HETATM    4  C4    D T 203      28.701   5.265 -12.301  1.00 32.35     0.045 A 
HETATM    5  C5    D T 203      27.964   5.470 -11.151  1.00 27.55     0.066 A 
HETATM    6  C6    D T 203      26.828   6.289 -11.140  1.00 28.26     0.022 A 
HETATM    7  S     D T 203      30.042   4.243 -12.225  1.00 46.57    -0.084 SA
HETATM    8  C7    D T 203      29.838   2.962 -11.177  1.00 54.54     0.045 A 
HETATM    9  C8    D T 203      30.382   1.699 -11.426  1.00 55.49     0.008 A 
HETATM   10  C9    D T 203      30.149   0.675 -10.517  1.00 51.42     0.001 A 
HETATM   11  C10   D T 203      29.399   0.915  -9.369  1.00 49.41     0.002 A 
HETATM   12  C11   D T 203      28.860   2.168  -9.113  1.00 52.67     0.018 A 
HETATM   13  C12   D T 203      29.090   3.190 -10.036  1.00 54.53     0.066 A 
HETATM   14  N1    D T 203      28.498   4.698  -9.829  1.00 62.60    -0.327 N 
ENDROOT
BRANCH  14  15
HETATM   15  C13   D T 203      27.734   4.939  -8.621  1.00 67.98     0.108 C 
BRANCH  15  16
HETATM   16  C14   D T 203      28.611   5.640  -7.579  1.00 73.94     0.060 C 
BRANCH  16  17
HETATM   17  C15   D T 203      28.872   4.778  -6.339  1.00 76.78     0.252 C 
BRANCH  17  18
HETATM   18  N2    D T 203      27.610   4.515  -5.670  1.00 78.95     0.141 N 
HETATM   19  C16   D T 203      27.457   3.107  -5.321  1.00 79.86     0.285 C 
HETATM   20  C17   D T 203      26.337   2.774  -4.320  1.00 78.05     0.285 C 
HETATM   21  N3    D T 203      25.875   3.891  -3.512  1.00 74.54     0.143 N 
HETATM   22  C18   D T 203      26.936   4.850  -3.290  1.00 73.58     0.285 C 
HETATM   23  C20   D T 203      24.733   4.547  -4.130  1.00 70.39     0.285 C 
HETATM   24  C19   D T 203      27.362   5.481  -4.610  1.00 76.99     0.285 C 
ENDBRANCH  17  18
ENDBRANCH  16  17
ENDBRANCH  15  16
ENDBRANCH  14  15
BRANCH   1  25
HETATM   25  C21   D T 203      25.234   7.831 -12.384  1.00 34.94     0.419 C 
HETATM   26  F1    D T 203      24.172   7.159 -12.887  1.00 43.95    -0.166 F 
HETATM   27  F2    D T 203      25.494   8.859 -13.233  1.00 34.86    -0.166 F 
HETATM   28  F3    D T 203      24.960   8.353 -11.156  1.00 34.91    -0.166 F 
ENDBRANCH   1  25
TORSDOF 10
ENDMDL
MODEL 4
REMARK VINA RESULT:    -6.323      9.119     11.794
REMARK INTER + INTRA:          -9.270
REMARK INTER:                  -8.532
REMARK INTRA:                  -0.738
REMARK UNBOUND:                -1.099
REMARK  10 active torsions:
REMARK  status: ('A' for Active; 'I' for Inactive)
REMARK    1  A    between atoms: C1_1  and  C21_25 
REMARK    2  A    between atoms: N1_14  and  C13_15 
REMARK    3  A    between atoms: C13_15  and  C14_16 
REMARK    4  A    between atoms: C14_16  and  C15_17 
REMARK    5  A    between atoms: C15_17  and  N2_18 
REMARK    6  A    between atoms: C1_29  and  C21_53 
REMARK    7  A    between atoms: N1_42  and  C13_43 
REMARK    8  A    between atoms: C13_43  and  C14_44 
REMARK    9  A    between atoms: C14_44  and  C15_45 
REMARK   10  A    between atoms: C15_45  and  N2_46 
ROOT
HETATM    1  C1    D T 203      24.695   3.812   0.643  1.00 31.24     0.073 A 
HETATM    2  C2    D T 203      25.656   2.847   0.417  1.00 29.52     0.004 A 
HETATM    3  C3    D T 203      26.132   2.599  -0.867  1.00 31.64     0.008 A 
HETATM    4  C4    D T 203      25.629   3.336  -1.936  1.00 32.35     0.045 A 
HETATM    5  C5    D T 203      24.663   4.296  -1.700  1.00 27.55     0.066 A 
HETATM    6  C6    D T 203      24.179   4.552  -0.412  1.00 28.26     0.022 A 
HETATM    7  S     D T 203      26.169   3.112  -3.519  1.00 46.57    -0.084 SA
HETATM    8  C7    D T 203      26.225   4.524  -4.404  1.00 54.54     0.045 A 
HETATM    9  C8    D T 203      27.210   4.765  -5.366  1.00 55.49     0.008 A 
HETATM   10  C9    D T 203      27.203   5.976  -6.047  1.00 51.42     0.001 A 
HETATM   11  C10   D T 203      26.218   6.923  -5.782  1.00 49.41     0.002 A 
HETATM   12  C11   D T 203      25.234   6.688  -4.832  1.00 52.67     0.018 A 
HETATM   13  C12   D T 203      25.252   5.473  -4.144  1.00 54.53     0.066 A 
HETATM   14  N1    D T 203      24.142   5.101  -3.007  1.00 62.60    -0.327 N 
ENDROOT
BRANCH  14  15
HETATM   15  C13   D T 203      23.110   6.088  -2.754  1.00 67.98     0.108 C 
BRANCH  15  16
HETATM   16  C14   D T 203      21.730   5.485  -3.031  1.00 73.94     0.060 C 
BRANCH  16  17
HETATM   17  C15   D T 203      21.070   6.055  -4.292  1.00 76.78     0.252 C 
BRANCH  17  18
HETATM   18  N2    D T 203      19.890   5.268  -4.606  1.00 78.95     0.141 N 
HETATM   19  C16   D T 203      18.981   5.974  -5.502  1.00 79.86     0.285 C 
HETATM   20  C17   D T 203      17.888   5.121  -6.168  1.00 78.05     0.285 C 
HETATM   21  N3    D T 203      18.147   3.691  -6.197  1.00 74.54     0.143 N 
HETATM   22  C18   D T 203      19.567   3.418  -6.251  1.00 73.58     0.285 C 
HETATM   23  C20   D T 203      17.556   3.029  -5.044  1.00 70.39     0.285 C 
HETATM   24  C19   D T 203      20.247   3.906  -4.977  1.00 76.99     0.285 C 
ENDBRANCH  17  18
ENDBRANCH  16  17
ENDBRANCH  15  16
ENDBRANCH  14  15
BRANCH   1  25
HETATM   25  C21   D T 203      24.194   4.018   2.075  1.00 34.94     0.419 C 
HETATM   26  F1    D T 203      22.969   4.593   2.049  1.00 43.95    -0.166 F 
HETATM   27  F2    D T 203      25.024   4.876   2.724  1.00 34.86    -0.166 F 
HETATM   28  F3    D T 203      24.179   2.840   2.760  1.00 34.91    -0.166 F 
ENDBRANCH   1  25
TORSDOF 10
ENDMDL
MODEL 5
REMARK VINA RESULT:    -6.093      3.593      6.496
REMARK INTER + INTRA:          -8.973
REMARK INTER:                  -7.952
REMARK INTRA:                  -1.021
REMARK UNBOUND:                -1.099
REMARK  10 active torsions:
REMARK  status: ('A' for Active; 'I' for Inactive)
REMARK    1  A    between atoms: C1_1  and  C21_25 
REMARK    2  A    between atoms: N1_14  and  C13_15 
REMARK    3  A    between atoms: C13_15  and  C14_16 
REMARK    4  A    between atoms: C14_16  and  C15_17 
REMARK    5  A    between atoms: C15_17  and  N2_18 
REMARK    6  A    between atoms: C1_29  and  C21_53 
REMARK    7  A    between atoms: N1_42  and  C13_43 
REMARK    8  A    between atoms: C13_43  and  C14_44 
REMARK    9  A    between atoms: C14_44  and  C15_45 
REMARK   10  A    between atoms: C15_45  and  N2_46 
ROOT
HETATM    1  C1    D T 203      31.099  10.572  -8.140  1.00 31.24     0.073 A 
HETATM    2  C2    D T 203      32.088  10.269  -9.055  1.00 29.52     0.004 A 
HETATM    3  C3    D T 203      31.917   9.241  -9.977  1.00 31.64     0.008 A 
HETATM    4  C4    D T 203      30.732   8.510  -9.974  1.00 32.35     0.045 A 
HETATM    5  C5    D T 203      29.751   8.817  -9.051  1.00 27.55     0.066 A 
HETATM    6  C6    D T 203      29.914   9.850  -8.120  1.00 28.26     0.022 A 
HETATM    7  S     D T 203      30.439   7.264 -11.074  1.00 46.57    -0.084 SA
HETATM    8  C7    D T 203      28.844   7.167 -11.552  1.00 54.54     0.045 A 
HETATM    9  C8    D T 203      28.474   6.789 -12.846  1.00 55.49     0.008 A 
HETATM   10  C9    D T 203      27.125   6.754 -13.176  1.00 51.42     0.001 A 
HETATM   11  C10   D T 203      26.162   7.073 -12.222  1.00 49.41     0.002 A 
HETATM   12  C11   D T 203      26.523   7.443 -10.935  1.00 52.67     0.018 A 
HETATM   13  C12   D T 203      27.881   7.487 -10.612  1.00 54.53     0.066 A 
HETATM   14  N1    D T 203      28.409   7.911  -9.127  1.00 62.60    -0.327 N 
ENDROOT
BRANCH  14  15
HETATM   15  C13   D T 203      27.395   8.224  -8.138  1.00 67.98     0.108 C 
BRANCH  15  16
HETATM   16  C14   D T 203      27.228   7.048  -7.172  1.00 73.94     0.060 C 
BRANCH  16  17
HETATM   17  C15   D T 203      28.518   6.700  -6.423  1.00 76.78     0.252 C 
BRANCH  17  18
HETATM   18  N2    D T 203      28.635   5.255  -6.326  1.00 78.95     0.141 N 
HETATM   19  C16   D T 203      27.545   4.666  -5.558  1.00 79.86     0.285 C 
HETATM   20  C17   D T 203      27.377   3.141  -5.680  1.00 78.05     0.285 C 
HETATM   21  N3    D T 203      27.997   2.539  -6.849  1.00 74.54     0.143 N 
HETATM   22  C18   D T 203      28.029   3.467  -7.959  1.00 73.58     0.285 C 
HETATM   23  C20   D T 203      29.342   2.077  -6.548  1.00 70.39     0.285 C 
HETATM   24  C19   D T 203      28.916   4.660  -7.625  1.00 76.99     0.285 C 
ENDBRANCH  17  18
ENDBRANCH  16  17
ENDBRANCH  15  16
ENDBRANCH  14  15
BRANCH   1  25
HETATM   25  C21   D T 203      31.359  11.697  -7.135  1.00 34.94     0.419 C 
HETATM   26  F1    D T 203      30.215  11.987  -6.472  1.00 43.95    -0.166 F 
HETATM   27  F2    D T 203      31.729  12.821  -7.802  1.00 34.86    -0.166 F 
HETATM   28  F3    D T 203      32.363  11.362  -6.277  1.00 34.91    -0.166 F 
ENDBRANCH   1  25
TORSDOF 10
ENDMDL
MODEL 6
REMARK VINA RESULT:    -6.069      6.332      8.212
REMARK INTER + INTRA:          -8.941
REMARK INTER:                  -7.829
REMARK INTRA:                  -1.113
REMARK UNBOUND:                -1.099
REMARK  10 active torsions:
REMARK  status: ('A' for Active; 'I' for Inactive)
REMARK    1  A    between atoms: C1_1  and  C21_25 
REMARK    2  A    between atoms: N1_14  and  C13_15 
REMARK    3  A    between atoms: C13_15  and  C14_16 
REMARK    4  A    between atoms: C14_16  and  C15_17 
REMARK    5  A    between atoms: C15_17  and  N2_18 
REMARK    6  A    between atoms: C1_29  and  C21_53 
REMARK    7  A    between atoms: N1_42  and  C13_43 
REMARK    8  A    between atoms: C13_43  and  C14_44 
REMARK    9  A    between atoms: C14_44  and  C15_45 
REMARK   10  A    between atoms: C15_45  and  N2_46 
ROOT
HETATM    1  C1    D T 203      25.335   9.154  -7.412  1.00 31.24     0.073 A 
HETATM    2  C2    D T 203      26.700   9.218  -7.609  1.00 29.52     0.004 A 
HETATM    3  C3    D T 203      27.568   8.425  -6.865  1.00 31.64     0.008 A 
HETATM    4  C4    D T 203      27.050   7.557  -5.909  1.00 32.35     0.045 A 
HETATM    5  C5    D T 203      25.683   7.504  -5.714  1.00 27.55     0.066 A 
HETATM    6  C6    D T 203      24.802   8.297  -6.458  1.00 28.26     0.022 A 
HETATM    7  S     D T 203      28.034   6.547  -4.982  1.00 46.57    -0.084 SA
HETATM    8  C7    D T 203      27.338   5.067  -4.654  1.00 54.54     0.045 A 
HETATM    9  C8    D T 203      28.089   3.890  -4.574  1.00 55.49     0.008 A 
HETATM   10  C9    D T 203      27.434   2.691  -4.320  1.00 51.42     0.001 A 
HETATM   11  C10   D T 203      26.055   2.673  -4.132  1.00 49.41     0.002 A 
HETATM   12  C11   D T 203      25.305   3.837  -4.206  1.00 52.67     0.018 A 
HETATM   13  C12   D T 203      25.967   5.038  -4.471  1.00 54.53     0.066 A 
HETATM   14  N1    D T 203      25.177   6.462  -4.579  1.00 62.60    -0.327 N 
ENDROOT
BRANCH  14  15
HETATM   15  C13   D T 203      23.743   6.432  -4.364  1.00 67.98     0.108 C 
BRANCH  15  16
HETATM   16  C14   D T 203      23.432   6.672  -2.884  1.00 73.94     0.060 C 
BRANCH  16  17
HETATM   17  C15   D T 203      22.704   5.494  -2.226  1.00 76.78     0.252 C 
BRANCH  17  18
HETATM   18  N2    D T 203      23.470   5.047  -1.076  1.00 78.95     0.141 N 
HETATM   19  C16   D T 203      23.602   3.595  -1.034  1.00 79.86     0.285 C 
HETATM   20  C17   D T 203      24.665   3.039  -0.071  1.00 78.05     0.285 C 
HETATM   21  N3    D T 203      25.693   3.985   0.334  1.00 74.54     0.143 N 
HETATM   22  C18   D T 203      25.937   4.966  -0.701  1.00 73.58     0.285 C 
HETATM   23  C20   D T 203      25.331   4.650   1.575  1.00 70.39     0.285 C 
HETATM   24  C19   D T 203      24.694   5.820  -0.922  1.00 76.99     0.285 C 
ENDBRANCH  17  18
ENDBRANCH  16  17
ENDBRANCH  15  16
ENDBRANCH  14  15
BRANCH   1  25
HETATM   25  C21   D T 203      24.435  10.071  -8.244  1.00 34.94     0.419 C 
HETATM   26  F1    D T 203      24.720  11.364  -7.962  1.00 43.95    -0.166 F 
HETATM   27  F2    D T 203      23.138   9.864  -7.898  1.00 34.86    -0.166 F 
HETATM   28  F3    D T 203      24.568   9.808  -9.574  1.00 34.91    -0.166 F 
ENDBRANCH   1  25
TORSDOF 10
ENDMDL
MODEL 7
REMARK VINA RESULT:    -5.959      3.858      6.712
REMARK INTER + INTRA:          -8.799
REMARK INTER:                  -7.947
REMARK INTRA:                  -0.852
REMARK UNBOUND:                -1.099
REMARK  10 active torsions:
REMARK  status: ('A' for Active; 'I' for Inactive)
REMARK    1  A    between atoms: C1_1  and  C21_25 
REMARK    2  A    between atoms: N1_14  and  C13_15 
REMARK    3  A    between atoms: C13_15  and  C14_16 
REMARK    4  A    between atoms: C14_16  and  C15_17 
REMARK    5  A    between atoms: C15_17  and  N2_18 
REMARK    6  A    between atoms: C1_29  and  C21_53 
REMARK    7  A    between atoms: N1_42  and  C13_43 
REMARK    8  A    between atoms: C13_43  and  C14_44 
REMARK    9  A    between atoms: C14_44  and  C15_45 
REMARK   10  A    between atoms: C15_45  and  N2_46 
ROOT
HETATM    1  C1    D T 203      31.018  10.503  -8.051  1.00 31.24     0.073 A 
HETATM    2  C2    D T 203      32.037  10.172  -8.924  1.00 29.52     0.004 A 
HETATM    3  C3    D T 203      31.884   9.137  -9.841  1.00 31.64     0.008 A 
HETATM    4  C4    D T 203      30.687   8.427  -9.877  1.00 32.35     0.045 A 
HETATM    5  C5    D T 203      29.677   8.761  -8.996  1.00 27.55     0.066 A 
HETATM    6  C6    D T 203      29.821   9.801  -8.070  1.00 28.26     0.022 A 
HETATM    7  S     D T 203      30.416   7.174 -10.974  1.00 46.57    -0.084 SA
HETATM    8  C7    D T 203      28.840   7.099 -11.514  1.00 54.54     0.045 A 
HETATM    9  C8    D T 203      28.514   6.714 -12.818  1.00 55.49     0.008 A 
HETATM   10  C9    D T 203      27.178   6.698 -13.200  1.00 51.42     0.001 A 
HETATM   11  C10   D T 203      26.185   7.044 -12.288  1.00 49.41     0.002 A 
HETATM   12  C11   D T 203      26.501   7.422 -10.992  1.00 52.67     0.018 A 
HETATM   13  C12   D T 203      27.846   7.446 -10.616  1.00 54.53     0.066 A 
HETATM   14  N1    D T 203      28.322   7.878  -9.116  1.00 62.60    -0.327 N 
ENDROOT
BRANCH  14  15
HETATM   15  C13   D T 203      27.277   8.219  -8.171  1.00 67.98     0.108 C 
BRANCH  15  16
HETATM   16  C14   D T 203      27.397   7.344  -6.920  1.00 73.94     0.060 C 
BRANCH  16  17
HETATM   17  C15   D T 203      27.930   5.939  -7.221  1.00 76.78     0.252 C 
BRANCH  17  18
HETATM   18  N2    D T 203      27.336   4.996  -6.289  1.00 78.95     0.141 N 
HETATM   19  C16   D T 203      28.238   3.894  -5.973  1.00 79.86     0.285 C 
HETATM   20  C17   D T 203      27.858   3.037  -4.753  1.00 78.05     0.285 C 
HETATM   21  N3    D T 203      26.941   3.663  -3.814  1.00 74.54     0.143 N 
HETATM   22  C18   D T 203      27.104   5.101  -3.805  1.00 73.58     0.285 C 
HETATM   23  C20   D T 203      25.562   3.320  -4.123  1.00 70.39     0.285 C 
HETATM   24  C19   D T 203      26.723   5.683  -5.161  1.00 76.99     0.285 C 
ENDBRANCH  17  18
ENDBRANCH  16  17
ENDBRANCH  15  16
ENDBRANCH  14  15
BRANCH   1  25
HETATM   25  C21   D T 203      31.259  11.634  -7.048  1.00 34.94     0.419 C 
HETATM   26  F1    D T 203      30.107  11.912  -6.394  1.00 43.95    -0.166 F 
HETATM   27  F2    D T 203      31.620  12.759  -7.717  1.00 34.86    -0.166 F 
HETATM   28  F3    D T 203      32.261  11.313  -6.183  1.00 34.91    -0.166 F 
ENDBRANCH   1  25
TORSDOF 10
ENDMDL
MODEL 8
REMARK VINA RESULT:    -5.870      1.959      2.691
REMARK INTER + INTRA:          -8.684
REMARK INTER:                  -7.658
REMARK INTRA:                  -1.026
REMARK UNBOUND:                -1.099
REMARK  10 active torsions:
REMARK  status: ('A' for Active; 'I' for Inactive)
REMARK    1  A    between atoms: C1_1  and  C21_25 
REMARK    2  A    between atoms: N1_14  and  C13_15 
REMARK    3  A    between atoms: C13_15  and  C14_16 
REMARK    4  A    between atoms: C14_16  and  C15_17 
REMARK    5  A    between atoms: C15_17  and  N2_18 
REMARK    6  A    between atoms: C1_29  and  C21_53 
REMARK    7  A    between atoms: N1_42  and  C13_43 
REMARK    8  A    between atoms: C13_43  and  C14_44 
REMARK    9  A    between atoms: C14_44  and  C15_45 
REMARK   10  A    between atoms: C15_45  and  N2_46 
ROOT
HETATM    1  C1    D T 203      27.362   5.952 -11.429  1.00 31.24     0.073 A 
HETATM    2  C2    D T 203      27.985   4.853 -11.987  1.00 29.52     0.004 A 
HETATM    3  C3    D T 203      28.626   3.912 -11.187  1.00 31.64     0.008 A 
HETATM    4  C4    D T 203      28.639   4.085  -9.806  1.00 32.35     0.045 A 
HETATM    5  C5    D T 203      28.019   5.191  -9.258  1.00 27.55     0.066 A 
HETATM    6  C6    D T 203      27.370   6.142 -10.054  1.00 28.26     0.022 A 
HETATM    7  S     D T 203      29.376   2.978  -8.766  1.00 46.57    -0.084 SA
HETATM    8  C7    D T 203      28.570   2.796  -7.318  1.00 54.54     0.045 A 
HETATM    9  C8    D T 203      28.503   1.569  -6.650  1.00 55.49     0.008 A 
HETATM   10  C9    D T 203      27.793   1.492  -5.458  1.00 51.42     0.001 A 
HETATM   11  C10   D T 203      27.176   2.625  -4.935  1.00 49.41     0.002 A 
HETATM   12  C11   D T 203      27.243   3.845  -5.590  1.00 52.67     0.018 A 
HETATM   13  C12   D T 203      27.950   3.916  -6.793  1.00 54.53     0.066 A 
HETATM   14  N1    D T 203      28.087   5.303  -7.641  1.00 62.60    -0.327 N 
ENDROOT
BRANCH  14  15
HETATM   15  C13   D T 203      27.455   6.480  -7.077  1.00 67.98     0.108 C 
BRANCH  15  16
HETATM   16  C14   D T 203      28.523   7.477  -6.618  1.00 73.94     0.060 C 
BRANCH  16  17
HETATM   17  C15   D T 203      28.544   8.760  -7.455  1.00 76.78     0.252 C 
BRANCH  17  18
HETATM   18  N2    D T 203      29.872   8.940  -8.014  1.00 78.95     0.141 N 
HETATM   19  C16   D T 203      29.922   8.605  -9.433  1.00 79.86     0.285 C 
HETATM   20  C17   D T 203      31.169   9.079 -10.198  1.00 78.05     0.285 C 
HETATM   21  N3    D T 203      31.912  10.158  -9.567  1.00 74.54     0.143 N 
HETATM   22  C18   D T 203      31.039  11.008  -8.787  1.00 73.58     0.285 C 
HETATM   23  C20   D T 203      32.979   9.637  -8.728  1.00 70.39     0.285 C 
HETATM   24  C19   D T 203      30.439  10.224  -7.626  1.00 76.99     0.285 C 
ENDBRANCH  17  18
ENDBRANCH  16  17
ENDBRANCH  15  16
ENDBRANCH  14  15
BRANCH   1  25
HETATM   25  C21   D T 203      26.696   6.965 -12.365  1.00 34.94     0.419 C 
HETATM   26  F1    D T 203      25.541   6.448 -12.844  1.00 43.95    -0.166 F 
HETATM   27  F2    D T 203      27.506   7.190 -13.432  1.00 34.86    -0.166 F 
HETATM   28  F3    D T 203      26.488   8.152 -11.730  1.00 34.91    -0.166 F 
ENDBRANCH   1  25
TORSDOF 10
ENDMDL
MODEL 9
REMARK VINA RESULT:    -5.766      8.551     11.145
REMARK INTER + INTRA:          -8.550
REMARK INTER:                  -7.736
REMARK INTRA:                  -0.815
REMARK UNBOUND:                -1.099
REMARK  10 active torsions:
REMARK  status: ('A' for Active; 'I' for Inactive)
REMARK    1  A    between atoms: C1_1  and  C21_25 
REMARK    2  A    between atoms: N1_14  and  C13_15 
REMARK    3  A    between atoms: C13_15  and  C14_16 
REMARK    4  A    between atoms: C14_16  and  C15_17 
REMARK    5  A    between atoms: C15_17  and  N2_18 
REMARK    6  A    between atoms: C1_29  and  C21_53 
REMARK    7  A    between atoms: N1_42  and  C13_43 
REMARK    8  A    between atoms: C13_43  and  C14_44 
REMARK    9  A    between atoms: C14_44  and  C15_45 
REMARK   10  A    between atoms: C15_45  and  N2_46 
ROOT
HETATM    1  C1    D T 203      25.756   3.046   1.057  1.00 31.24     0.073 A 
HETATM    2  C2    D T 203      25.283   4.259   1.519  1.00 29.52     0.004 A 
HETATM    3  C3    D T 203      24.652   5.154   0.660  1.00 31.64     0.008 A 
HETATM    4  C4    D T 203      24.498   4.819  -0.683  1.00 32.35     0.045 A 
HETATM    5  C5    D T 203      24.980   3.607  -1.136  1.00 27.55     0.066 A 
HETATM    6  C6    D T 203      25.615   2.700  -0.280  1.00 28.26     0.022 A 
HETATM    7  S     D T 203      23.725   5.839  -1.783  1.00 46.57    -0.084 SA
HETATM    8  C7    D T 203      22.843   5.020  -2.936  1.00 54.54     0.045 A 
HETATM    9  C8    D T 203      21.642   5.517  -3.451  1.00 55.49     0.008 A 
HETATM   10  C9    D T 203      20.953   4.764  -4.394  1.00 51.42     0.001 A 
HETATM   11  C10   D T 203      21.465   3.544  -4.827  1.00 49.41     0.002 A 
HETATM   12  C11   D T 203      22.658   3.048  -4.323  1.00 52.67     0.018 A 
HETATM   13  C12   D T 203      23.342   3.804  -3.369  1.00 54.53     0.066 A 
HETATM   14  N1    D T 203      24.752   3.308  -2.714  1.00 62.60    -0.327 N 
ENDROOT
BRANCH  14  15
HETATM   15  C13   D T 203      25.284   2.044  -3.186  1.00 67.98     0.108 C 
BRANCH  15  16
HETATM   16  C14   D T 203      26.692   2.249  -3.753  1.00 73.94     0.060 C 
BRANCH  16  17
HETATM   17  C15   D T 203      26.807   3.497  -4.634  1.00 76.78     0.252 C 
BRANCH  17  18
HETATM   18  N2    D T 203      27.338   3.115  -5.931  1.00 78.95     0.141 N 
HETATM   19  C16   D T 203      28.090   4.197  -6.557  1.00 79.86     0.285 C 
HETATM   20  C17   D T 203      28.974   3.803  -7.753  1.00 78.05     0.285 C 
HETATM   21  N3    D T 203      29.311   2.391  -7.838  1.00 74.54     0.143 N 
HETATM   22  C18   D T 203      29.366   1.787  -6.525  1.00 73.58     0.285 C 
HETATM   23  C20   D T 203      28.361   1.677  -8.676  1.00 70.39     0.285 C 
HETATM   24  C19   D T 203      27.989   1.814  -5.873  1.00 76.99     0.285 C 
ENDBRANCH  17  18
ENDBRANCH  16  17
ENDBRANCH  15  16
ENDBRANCH  14  15
BRANCH   1  25
HETATM   25  C21   D T 203      26.464   2.117   2.047  1.00 34.94     0.419 C 
HETATM   26  F1    D T 203      26.805   0.966   1.423  1.00 43.95    -0.166 F 
HETATM   27  F2    D T 203      25.608   1.790   3.049  1.00 34.86    -0.166 F 
HETATM   28  F3    D T 203      27.550   2.729   2.598  1.00 34.91    -0.166 F 
ENDBRANCH   1  25
TORSDOF 10
ENDMDL
