MODEL 1
REMARK VINA RESULT:    -6.139      0.000      0.000
REMARK INTER + INTRA:          -8.756
REMARK INTER:                  -7.934
REMARK INTRA:                  -0.822
REMARK UNBOUND:                -0.822
REMARK  10 active torsions:
REMARK  status: ('A' for Active; 'I' for Inactive)
REMARK    1  A    between atoms: C1_1  and  C21_25 
REMARK    2  A    between atoms: N1_14  and  C13_15 
REMARK    3  A    between atoms: C13_15  and  C14_16 
REMARK    4  A    between atoms: C14_16  and  C15_17 
REMARK    5  A    between atoms: C15_17  and  N2_18 
REMARK    6  A    between atoms: C1_29  and  C21_53 
REMARK    7  A    between atoms: N1_42  and  C13_43 
REMARK    8  A    between atoms: C13_43  and  C14_44 
REMARK    9  A    between atoms: C14_44  and  C15_45 
REMARK   10  A    between atoms: C15_45  and  N2_46 
ROOT
HETATM    1  C1    D T 203     -14.182   3.309   9.367  1.00 31.24     0.073 A 
HETATM    2  C2    D T 203     -13.509   4.118  10.264  1.00 29.52     0.004 A 
HETATM    3  C3    D T 203     -12.314   4.736   9.910  1.00 31.64     0.008 A 
HETATM    4  C4    D T 203     -11.792   4.536   8.635  1.00 32.35     0.045 A 
HETATM    5  C5    D T 203     -12.469   3.722   7.749  1.00 27.55     0.066 A 
HETATM    6  C6    D T 203     -13.671   3.095   8.095  1.00 28.26     0.022 A 
HETATM    7  S     D T 203     -10.361   5.268   8.123  1.00 46.57    -0.084 SA
HETATM    8  C7    D T 203     -10.379   5.697   6.511  1.00 54.54     0.045 A 
HETATM    9  C8    D T 203      -9.737   6.845   6.036  1.00 55.49     0.008 A 
HETATM   10  C9    D T 203      -9.818   7.148   4.683  1.00 51.42     0.001 A 
HETATM   11  C10   D T 203     -10.510   6.308   3.818  1.00 49.41     0.002 A 
HETATM   12  C11   D T 203     -11.145   5.163   4.281  1.00 52.67     0.018 A 
HETATM   13  C12   D T 203     -11.069   4.870   5.644  1.00 54.53     0.066 A 
HETATM   14  N1    D T 203     -11.782   3.551   6.289  1.00 62.60    -0.327 N 
ENDROOT
BRANCH  14  15
HETATM   15  C13   D T 203     -12.485   2.675   5.374  1.00 67.98     0.108 C 
BRANCH  15  16
HETATM   16  C14   D T 203     -11.883   1.268   5.429  1.00 73.94     0.060 C 
BRANCH  16  17
HETATM   17  C15   D T 203     -10.384   1.247   5.111  1.00 76.78     0.252 C 
BRANCH  17  18
HETATM   18  N2    D T 203     -10.201   0.910   3.709  1.00 78.95     0.141 N 
HETATM   19  C16   D T 203      -8.811   0.595   3.396  1.00 79.86     0.285 C 
HETATM   20  C17   D T 203      -8.562  -0.099   2.047  1.00 78.05     0.285 C 
HETATM   21  N3    D T 203      -9.720  -0.756   1.462  1.00 74.54     0.143 N 
HETATM   22  C18   D T 203     -10.628  -1.222   2.485  1.00 73.58     0.285 C 
HETATM   23  C20   D T 203     -10.418   0.136   0.547  1.00 70.39     0.285 C 
HETATM   24  C19   D T 203     -11.205  -0.044   3.260  1.00 76.99     0.285 C 
ENDBRANCH  17  18
ENDBRANCH  16  17
ENDBRANCH  15  16
ENDBRANCH  14  15
BRANCH   1  25
HETATM   25  C21   D T 203     -15.478   2.637   9.826  1.00 34.94     0.419 C 
HETATM   26  F1    D T 203     -15.346   2.222  11.107  1.00 43.95    -0.166 F 
HETATM   27  F2    D T 203     -15.703   1.532   9.070  1.00 34.86    -0.166 F 
HETATM   28  F3    D T 203     -16.541   3.476   9.679  1.00 34.91    -0.166 F 
ENDBRANCH   1  25
TORSDOF 10
ENDMDL
MODEL 2
REMARK VINA RESULT:    -5.885      6.741     11.180
REMARK INTER + INTRA:          -8.428
REMARK INTER:                  -7.640
REMARK INTRA:                  -0.788
REMARK UNBOUND:                -0.822
REMARK  10 active torsions:
REMARK  status: ('A' for Active; 'I' for Inactive)
REMARK    1  A    between atoms: C1_1  and  C21_25 
REMARK    2  A    between atoms: N1_14  and  C13_15 
REMARK    3  A    between atoms: C13_15  and  C14_16 
REMARK    4  A    between atoms: C14_16  and  C15_17 
REMARK    5  A    between atoms: C15_17  and  N2_18 
REMARK    6  A    between atoms: C1_29  and  C21_53 
REMARK    7  A    between atoms: N1_42  and  C13_43 
REMARK    8  A    between atoms: C13_43  and  C14_44 
REMARK    9  A    between atoms: C14_44  and  C15_45 
REMARK   10  A    between atoms: C15_45  and  N2_46 
ROOT
HETATM    1  C1    D T 203      -6.797  -3.875  -1.662  1.00 31.24     0.073 A 
HETATM    2  C2    D T 203      -7.401  -4.748  -2.546  1.00 29.52     0.004 A 
HETATM    3  C3    D T 203      -8.777  -4.716  -2.754  1.00 31.64     0.008 A 
HETATM    4  C4    D T 203      -9.551  -3.790  -2.060  1.00 32.35     0.045 A 
HETATM    5  C5    D T 203      -8.938  -2.925  -1.175  1.00 27.55     0.066 A 
HETATM    6  C6    D T 203      -7.556  -2.950  -0.959  1.00 28.26     0.022 A 
HETATM    7  S     D T 203     -11.220  -3.672  -2.274  1.00 46.57    -0.084 SA
HETATM    8  C7    D T 203     -11.791  -2.107  -2.174  1.00 54.54     0.045 A 
HETATM    9  C8    D T 203     -12.858  -1.650  -2.952  1.00 55.49     0.008 A 
HETATM   10  C9    D T 203     -13.259  -0.326  -2.828  1.00 51.42     0.001 A 
HETATM   11  C10   D T 203     -12.618   0.519  -1.929  1.00 49.41     0.002 A 
HETATM   12  C11   D T 203     -11.562   0.070  -1.149  1.00 52.67     0.018 A 
HETATM   13  C12   D T 203     -11.156  -1.259  -1.285  1.00 54.53     0.066 A 
HETATM   14  N1    D T 203      -9.923  -1.884  -0.416  1.00 62.60    -0.327 N 
ENDROOT
BRANCH  14  15
HETATM   15  C13   D T 203      -9.276  -0.998   0.530  1.00 67.98     0.108 C 
BRANCH  15  16
HETATM   16  C14   D T 203      -9.573  -1.453   1.961  1.00 73.94     0.060 C 
BRANCH  16  17
HETATM   17  C15   D T 203     -11.026  -1.202   2.379  1.00 76.78     0.252 C 
BRANCH  17  18
HETATM   18  N2    D T 203     -11.123   0.111   2.992  1.00 78.95     0.141 N 
HETATM   19  C16   D T 203     -12.415   0.324   3.636  1.00 79.86     0.285 C 
HETATM   20  C17   D T 203     -12.504   1.521   4.596  1.00 78.05     0.285 C 
HETATM   21  N3    D T 203     -11.232   2.014   5.095  1.00 74.54     0.143 N 
HETATM   22  C18   D T 203     -10.255   0.951   5.175  1.00 73.58     0.285 C 
HETATM   23  C20   D T 203     -10.725   3.093   4.259  1.00 70.39     0.285 C 
HETATM   24  C19   D T 203      -9.940   0.414   3.784  1.00 76.99     0.285 C 
ENDBRANCH  17  18
ENDBRANCH  16  17
ENDBRANCH  15  16
ENDBRANCH  14  15
BRANCH   1  25
HETATM   25  C21   D T 203      -5.284  -3.979  -1.458  1.00 34.94     0.419 C 
HETATM   26  F1    D T 203      -4.872  -5.237  -1.739  1.00 43.95    -0.166 F 
HETATM   27  F2    D T 203      -4.988  -3.744  -0.154  1.00 34.86    -0.166 F 
HETATM   28  F3    D T 203      -4.625  -3.057  -2.215  1.00 34.91    -0.166 F 
ENDBRANCH   1  25
TORSDOF 10
ENDMDL
MODEL 3
REMARK VINA RESULT:    -5.864      6.527      9.736
REMARK INTER + INTRA:          -8.400
REMARK INTER:                  -7.596
REMARK INTRA:                  -0.804
REMARK UNBOUND:                -0.822
REMARK  10 active torsions:
REMARK  status: ('A' for Active; 'I' for Inactive)
REMARK    1  A    between atoms: C1_1  and  C21_25 
REMARK    2  A    between atoms: N1_14  and  C13_15 
REMARK    3  A    between atoms: C13_15  and  C14_16 
REMARK    4  A    between atoms: C14_16  and  C15_17 
REMARK    5  A    between atoms: C15_17  and  N2_18 
REMARK    6  A    between atoms: C1_29  and  C21_53 
REMARK    7  A    between atoms: N1_42  and  C13_43 
REMARK    8  A    between atoms: C13_43  and  C14_44 
REMARK    9  A    between atoms: C14_44  and  C15_45 
REMARK   10  A    between atoms: C15_45  and  N2_46 
ROOT
HETATM    1  C1    D T 203      -9.252  -2.961  -0.970  1.00 31.24     0.073 A 
HETATM    2  C2    D T 203      -8.690  -3.408   0.211  1.00 29.52     0.004 A 
HETATM    3  C3    D T 203      -8.485  -2.540   1.278  1.00 31.64     0.008 A 
HETATM    4  C4    D T 203      -8.851  -1.203   1.152  1.00 32.35     0.045 A 
HETATM    5  C5    D T 203      -9.407  -0.764  -0.034  1.00 27.55     0.066 A 
HETATM    6  C6    D T 203      -9.617  -1.630  -1.113  1.00 28.26     0.022 A 
HETATM    7  S     D T 203      -8.656  -0.093   2.407  1.00 46.57    -0.084 SA
HETATM    8  C7    D T 203      -9.873   1.046   2.478  1.00 54.54     0.045 A 
HETATM    9  C8    D T 203     -10.343   1.562   3.689  1.00 55.49     0.008 A 
HETATM   10  C9    D T 203     -11.376   2.491   3.666  1.00 51.42     0.001 A 
HETATM   11  C10   D T 203     -11.915   2.909   2.454  1.00 49.41     0.002 A 
HETATM   12  C11   D T 203     -11.449   2.405   1.248  1.00 52.67     0.018 A 
HETATM   13  C12   D T 203     -10.418   1.464   1.278  1.00 54.53     0.066 A 
HETATM   14  N1    D T 203      -9.801   0.808  -0.084  1.00 62.60    -0.327 N 
ENDROOT
BRANCH  14  15
HETATM   15  C13   D T 203     -10.359   1.266  -1.340  1.00 67.98     0.108 C 
BRANCH  15  16
HETATM   16  C14   D T 203      -9.242   1.770  -2.257  1.00 73.94     0.060 C 
BRANCH  16  17
HETATM   17  C15   D T 203      -9.456   3.215  -2.722  1.00 76.78     0.252 C 
BRANCH  17  18
HETATM   18  N2    D T 203      -8.175   3.786  -3.102  1.00 78.95     0.141 N 
HETATM   19  C16   D T 203      -7.881   5.013  -2.369  1.00 79.86     0.285 C 
HETATM   20  C17   D T 203      -6.427   5.508  -2.434  1.00 78.05     0.285 C 
HETATM   21  N3    D T 203      -5.445   4.505  -2.812  1.00 74.54     0.143 N 
HETATM   22  C18   D T 203      -5.859   3.185  -2.394  1.00 73.58     0.285 C 
HETATM   23  C20   D T 203      -5.209   4.520  -4.249  1.00 70.39     0.285 C 
HETATM   24  C19   D T 203      -7.131   2.772  -3.125  1.00 76.99     0.285 C 
ENDBRANCH  17  18
ENDBRANCH  16  17
ENDBRANCH  15  16
ENDBRANCH  14  15
BRANCH   1  25
HETATM   25  C21   D T 203      -9.428  -3.960  -2.115  1.00 34.94     0.419 C 
HETATM   26  F1    D T 203      -9.406  -3.305  -3.299  1.00 43.95    -0.166 F 
HETATM   27  F2    D T 203     -10.645  -4.554  -2.011  1.00 34.86    -0.166 F 
HETATM   28  F3    D T 203      -8.475  -4.933  -2.064  1.00 34.91    -0.166 F 
ENDBRANCH   1  25
TORSDOF 10
ENDMDL
MODEL 4
REMARK VINA RESULT:    -5.822      2.386      6.360
REMARK INTER + INTRA:          -8.346
REMARK INTER:                  -7.387
REMARK INTRA:                  -0.960
REMARK UNBOUND:                -0.822
REMARK  10 active torsions:
REMARK  status: ('A' for Active; 'I' for Inactive)
REMARK    1  A    between atoms: C1_1  and  C21_25 
REMARK    2  A    between atoms: N1_14  and  C13_15 
REMARK    3  A    between atoms: C13_15  and  C14_16 
REMARK    4  A    between atoms: C14_16  and  C15_17 
REMARK    5  A    between atoms: C15_17  and  N2_18 
REMARK    6  A    between atoms: C1_29  and  C21_53 
REMARK    7  A    between atoms: N1_42  and  C13_43 
REMARK    8  A    between atoms: C13_43  and  C14_44 
REMARK    9  A    between atoms: C14_44  and  C15_45 
REMARK   10  A    between atoms: C15_45  and  N2_46 
ROOT
HETATM    1  C1    D T 203     -14.455   0.914   6.404  1.00 31.24     0.073 A 
HETATM    2  C2    D T 203     -15.234   0.249   5.477  1.00 29.52     0.004 A 
HETATM    3  C3    D T 203     -14.784   0.053   4.175  1.00 31.64     0.008 A 
HETATM    4  C4    D T 203     -13.531   0.535   3.805  1.00 32.35     0.045 A 
HETATM    5  C5    D T 203     -12.763   1.203   4.738  1.00 27.55     0.066 A 
HETATM    6  C6    D T 203     -13.207   1.405   6.050  1.00 28.26     0.022 A 
HETATM    7  S     D T 203     -12.905   0.318   2.254  1.00 46.57    -0.084 SA
HETATM    8  C7    D T 203     -11.254   0.079   2.235  1.00 54.54     0.045 A 
HETATM    9  C8    D T 203     -10.632  -0.771   1.315  1.00 55.49     0.008 A 
HETATM   10  C9    D T 203      -9.254  -0.936   1.379  1.00 51.42     0.001 A 
HETATM   11  C10   D T 203      -8.511  -0.250   2.333  1.00 49.41     0.002 A 
HETATM   12  C11   D T 203      -9.120   0.599   3.246  1.00 52.67     0.018 A 
HETATM   13  C12   D T 203     -10.506   0.753   3.184  1.00 54.53     0.066 A 
HETATM   14  N1    D T 203     -11.320   1.725   4.213  1.00 62.60    -0.327 N 
ENDROOT
BRANCH  14  15
HETATM   15  C13   D T 203     -10.530   2.447   5.190  1.00 67.98     0.108 C 
BRANCH  15  16
HETATM   16  C14   D T 203     -10.780   3.951   5.057  1.00 73.94     0.060 C 
BRANCH  16  17
HETATM   17  C15   D T 203     -10.125   4.768   6.176  1.00 76.78     0.252 C 
BRANCH  17  18
HETATM   18  N2    D T 203     -10.876   4.576   7.405  1.00 78.95     0.141 N 
HETATM   19  C16   D T 203     -10.191   5.142   8.562  1.00 79.86     0.285 C 
HETATM   20  C17   D T 203     -11.036   5.302   9.837  1.00 78.05     0.285 C 
HETATM   21  N3    D T 203     -12.474   5.308   9.633  1.00 74.54     0.143 N 
HETATM   22  C18   D T 203     -12.816   5.842   8.334  1.00 73.58     0.285 C 
HETATM   23  C20   D T 203     -13.029   3.970   9.782  1.00 70.39     0.285 C 
HETATM   24  C19   D T 203     -12.275   4.939   7.231  1.00 76.99     0.285 C 
ENDBRANCH  17  18
ENDBRANCH  16  17
ENDBRANCH  15  16
ENDBRANCH  14  15
BRANCH   1  25
HETATM   25  C21   D T 203     -15.019   1.119   7.812  1.00 34.94     0.419 C 
HETATM   26  F1    D T 203     -14.026   0.991   8.723  1.00 43.95    -0.166 F 
HETATM   27  F2    D T 203     -15.931   0.148   8.078  1.00 34.86    -0.166 F 
HETATM   28  F3    D T 203     -15.641   2.327   7.917  1.00 34.91    -0.166 F 
ENDBRANCH   1  25
TORSDOF 10
ENDMDL
MODEL 5
REMARK VINA RESULT:    -5.775      5.236      7.778
REMARK INTER + INTRA:          -8.286
REMARK INTER:                  -7.046
REMARK INTRA:                  -1.240
REMARK UNBOUND:                -0.822
REMARK  10 active torsions:
REMARK  status: ('A' for Active; 'I' for Inactive)
REMARK    1  A    between atoms: C1_1  and  C21_25 
REMARK    2  A    between atoms: N1_14  and  C13_15 
REMARK    3  A    between atoms: C13_15  and  C14_16 
REMARK    4  A    between atoms: C14_16  and  C15_17 
REMARK    5  A    between atoms: C15_17  and  N2_18 
REMARK    6  A    between atoms: C1_29  and  C21_53 
REMARK    7  A    between atoms: N1_42  and  C13_43 
REMARK    8  A    between atoms: C13_43  and  C14_44 
REMARK    9  A    between atoms: C14_44  and  C15_45 
REMARK   10  A    between atoms: C15_45  and  N2_46 
ROOT
HETATM    1  C1    D T 203      -9.214  -1.652   1.700  1.00 31.24     0.073 A 
HETATM    2  C2    D T 203      -8.325  -0.702   2.166  1.00 29.52     0.004 A 
HETATM    3  C3    D T 203      -8.780   0.476   2.751  1.00 31.64     0.008 A 
HETATM    4  C4    D T 203     -10.150   0.697   2.867  1.00 32.35     0.045 A 
HETATM    5  C5    D T 203     -11.030  -0.257   2.393  1.00 27.55     0.066 A 
HETATM    6  C6    D T 203     -10.582  -1.444   1.803  1.00 28.26     0.022 A 
HETATM    7  S     D T 203     -10.780   2.087   3.584  1.00 46.57    -0.084 SA
HETATM    8  C7    D T 203     -12.183   1.810   4.443  1.00 54.54     0.045 A 
HETATM    9  C8    D T 203     -12.490   2.505   5.617  1.00 55.49     0.008 A 
HETATM   10  C9    D T 203     -13.668   2.200   6.288  1.00 51.42     0.001 A 
HETATM   11  C10   D T 203     -14.530   1.232   5.785  1.00 49.41     0.002 A 
HETATM   12  C11   D T 203     -14.235   0.543   4.618  1.00 52.67     0.018 A 
HETATM   13  C12   D T 203     -13.045   0.846   3.953  1.00 54.53     0.066 A 
HETATM   14  N1    D T 203     -12.603   0.091   2.574  1.00 62.60    -0.327 N 
ENDROOT
BRANCH  14  15
HETATM   15  C13   D T 203     -13.520  -0.902   2.051  1.00 67.98     0.108 C 
BRANCH  15  16
HETATM   16  C14   D T 203     -13.955  -0.519   0.635  1.00 73.94     0.060 C 
BRANCH  16  17
HETATM   17  C15   D T 203     -13.745  -1.647  -0.381  1.00 76.78     0.252 C 
BRANCH  17  18
HETATM   18  N2    D T 203     -12.416  -1.527  -0.956  1.00 78.95     0.141 N 
HETATM   19  C16   D T 203     -12.147  -2.568  -1.942  1.00 79.86     0.285 C 
HETATM   20  C17   D T 203     -10.927  -2.340  -2.851  1.00 78.05     0.285 C 
HETATM   21  N3    D T 203     -10.468  -0.965  -2.942  1.00 74.54     0.143 N 
HETATM   22  C18   D T 203     -11.561  -0.035  -2.765  1.00 73.58     0.285 C 
HETATM   23  C20   D T 203      -9.425  -0.696  -1.962  1.00 70.39     0.285 C 
HETATM   24  C19   D T 203     -12.138  -0.156  -1.359  1.00 76.99     0.285 C 
ENDBRANCH  17  18
ENDBRANCH  16  17
ENDBRANCH  15  16
ENDBRANCH  14  15
BRANCH   1  25
HETATM   25  C21   D T 203      -8.650  -2.914   1.044  1.00 34.94     0.419 C 
HETATM   26  F1    D T 203      -8.482  -3.877   1.979  1.00 43.95    -0.166 F 
HETATM   27  F2    D T 203      -7.424  -2.642   0.527  1.00 34.86    -0.166 F 
HETATM   28  F3    D T 203      -9.455  -3.336   0.029  1.00 34.91    -0.166 F 
ENDBRANCH   1  25
TORSDOF 10
ENDMDL
MODEL 6
REMARK VINA RESULT:    -5.524      4.503      7.662
REMARK INTER + INTRA:          -7.961
REMARK INTER:                  -6.827
REMARK INTRA:                  -1.135
REMARK UNBOUND:                -0.822
REMARK  10 active torsions:
REMARK  status: ('A' for Active; 'I' for Inactive)
REMARK    1  A    between atoms: C1_1  and  C21_25 
REMARK    2  A    between atoms: N1_14  and  C13_15 
REMARK    3  A    between atoms: C13_15  and  C14_16 
REMARK    4  A    between atoms: C14_16  and  C15_17 
REMARK    5  A    between atoms: C15_17  and  N2_18 
REMARK    6  A    between atoms: C1_29  and  C21_53 
REMARK    7  A    between atoms: N1_42  and  C13_43 
REMARK    8  A    between atoms: C13_43  and  C14_44 
REMARK    9  A    between atoms: C14_44  and  C15_45 
REMARK   10  A    between atoms: C15_45  and  N2_46 
ROOT
HETATM    1  C1    D T 203      -9.474  -0.659   1.218  1.00 31.24     0.073 A 
HETATM    2  C2    D T 203      -9.768   0.097   0.100  1.00 29.52     0.004 A 
HETATM    3  C3    D T 203     -10.446   1.307   0.214  1.00 31.64     0.008 A 
HETATM    4  C4    D T 203     -10.832   1.758   1.474  1.00 32.35     0.045 A 
HETATM    5  C5    D T 203     -10.538   0.992   2.584  1.00 27.55     0.066 A 
HETATM    6  C6    D T 203      -9.857  -0.226   2.479  1.00 28.26     0.022 A 
HETATM    7  S     D T 203     -11.636   3.224   1.698  1.00 46.57    -0.084 SA
HETATM    8  C7    D T 203     -11.204   4.006   3.107  1.00 54.54     0.045 A 
HETATM    9  C8    D T 203     -11.128   5.400   3.194  1.00 55.49     0.008 A 
HETATM   10  C9    D T 203     -10.737   5.976   4.397  1.00 51.42     0.001 A 
HETATM   11  C10   D T 203     -10.446   5.174   5.495  1.00 49.41     0.002 A 
HETATM   12  C11   D T 203     -10.524   3.791   5.417  1.00 52.67     0.018 A 
HETATM   13  C12   D T 203     -10.907   3.217   4.203  1.00 54.53     0.066 A 
HETATM   14  N1    D T 203     -11.027   1.601   4.005  1.00 62.60    -0.327 N 
ENDROOT
BRANCH  14  15
HETATM   15  C13   D T 203     -10.738   0.779   5.163  1.00 67.98     0.108 C 
BRANCH  15  16
HETATM   16  C14   D T 203     -12.038   0.220   5.746  1.00 73.94     0.060 C 
BRANCH  16  17
HETATM   17  C15   D T 203     -13.287   0.717   5.010  1.00 76.78     0.252 C 
BRANCH  17  18
HETATM   18  N2    D T 203     -14.168   1.375   5.960  1.00 78.95     0.141 N 
HETATM   19  C16   D T 203     -13.976   0.882   7.319  1.00 79.86     0.285 C 
HETATM   20  C17   D T 203     -14.596   1.732   8.441  1.00 78.05     0.285 C 
HETATM   21  N3    D T 203     -14.891   3.110   8.086  1.00 74.54     0.143 N 
HETATM   22  C18   D T 203     -13.976   3.598   7.078  1.00 73.58     0.285 C 
HETATM   23  C20   D T 203     -16.264   3.247   7.619  1.00 70.39     0.285 C 
HETATM   24  C19   D T 203     -14.154   2.819   5.780  1.00 76.99     0.285 C 
ENDBRANCH  17  18
ENDBRANCH  16  17
ENDBRANCH  15  16
ENDBRANCH  14  15
BRANCH   1  25
HETATM   25  C21   D T 203      -8.749  -1.993   1.022  1.00 34.94     0.419 C 
HETATM   26  F1    D T 203      -7.570  -1.971   1.685  1.00 43.95    -0.166 F 
HETATM   27  F2    D T 203      -8.464  -2.160  -0.295  1.00 34.86    -0.166 F 
HETATM   28  F3    D T 203      -9.529  -3.035   1.424  1.00 34.91    -0.166 F 
ENDBRANCH   1  25
TORSDOF 10
ENDMDL
MODEL 7
REMARK VINA RESULT:    -5.451      4.930      7.086
REMARK INTER + INTRA:          -7.866
REMARK INTER:                  -6.677
REMARK INTRA:                  -1.189
REMARK UNBOUND:                -0.822
REMARK  10 active torsions:
REMARK  status: ('A' for Active; 'I' for Inactive)
REMARK    1  A    between atoms: C1_1  and  C21_25 
REMARK    2  A    between atoms: N1_14  and  C13_15 
REMARK    3  A    between atoms: C13_15  and  C14_16 
REMARK    4  A    between atoms: C14_16  and  C15_17 
REMARK    5  A    between atoms: C15_17  and  N2_18 
REMARK    6  A    between atoms: C1_29  and  C21_53 
REMARK    7  A    between atoms: N1_42  and  C13_43 
REMARK    8  A    between atoms: C13_43  and  C14_44 
REMARK    9  A    between atoms: C14_44  and  C15_45 
REMARK   10  A    between atoms: C15_45  and  N2_46 
ROOT
HETATM    1  C1    D T 203     -10.059  -0.013   3.044  1.00 31.24     0.073 A 
HETATM    2  C2    D T 203      -9.498   0.789   4.020  1.00 29.52     0.004 A 
HETATM    3  C3    D T 203     -10.299   1.469   4.932  1.00 31.64     0.008 A 
HETATM    4  C4    D T 203     -11.683   1.338   4.857  1.00 32.35     0.045 A 
HETATM    5  C5    D T 203     -12.233   0.538   3.875  1.00 27.55     0.066 A 
HETATM    6  C6    D T 203     -11.436  -0.150   2.953  1.00 28.26     0.022 A 
HETATM    7  S     D T 203     -12.720   2.111   5.940  1.00 46.57    -0.084 SA
HETATM    8  C7    D T 203     -14.071   1.209   6.319  1.00 54.54     0.045 A 
HETATM    9  C8    D T 203     -14.655   1.237   7.589  1.00 55.49     0.008 A 
HETATM   10  C9    D T 203     -15.766   0.439   7.834  1.00 51.42     0.001 A 
HETATM   11  C10   D T 203     -16.293  -0.357   6.823  1.00 49.41     0.002 A 
HETATM   12  C11   D T 203     -15.722  -0.385   5.559  1.00 52.67     0.018 A 
HETATM   13  C12   D T 203     -14.600   0.412   5.321  1.00 54.53     0.066 A 
HETATM   14  N1    D T 203     -13.853   0.449   3.870  1.00 62.60    -0.327 N 
ENDROOT
BRANCH  14  15
HETATM   15  C13   D T 203     -14.423  -0.371   2.820  1.00 67.98     0.108 C 
BRANCH  15  16
HETATM   16  C14   D T 203     -14.784   0.499   1.614  1.00 73.94     0.060 C 
BRANCH  16  17
HETATM   17  C15   D T 203     -15.260  -0.319   0.408  1.00 76.78     0.252 C 
BRANCH  17  18
HETATM   18  N2    D T 203     -14.163  -0.458  -0.534  1.00 78.95     0.141 N 
HETATM   19  C16   D T 203     -13.250   0.679  -0.487  1.00 79.86     0.285 C 
HETATM   20  C17   D T 203     -11.890   0.485  -1.178  1.00 78.05     0.285 C 
HETATM   21  N3    D T 203     -11.493  -0.896  -1.391  1.00 74.54     0.143 N 
HETATM   22  C18   D T 203     -12.041  -1.761  -0.370  1.00 73.58     0.285 C 
HETATM   23  C20   D T 203     -11.903  -1.361  -2.708  1.00 70.39     0.285 C 
HETATM   24  C19   D T 203     -13.563  -1.781  -0.454  1.00 76.99     0.285 C 
ENDBRANCH  17  18
ENDBRANCH  16  17
ENDBRANCH  15  16
ENDBRANCH  14  15
BRANCH   1  25
HETATM   25  C21   D T 203      -9.125  -0.714   2.055  1.00 34.94     0.419 C 
HETATM   26  F1    D T 203      -9.352  -2.048   2.080  1.00 43.95    -0.166 F 
HETATM   27  F2    D T 203      -7.836  -0.522   2.440  1.00 34.86    -0.166 F 
HETATM   28  F3    D T 203      -9.273  -0.206   0.800  1.00 34.91    -0.166 F 
ENDBRANCH   1  25
TORSDOF 10
ENDMDL
MODEL 8
REMARK VINA RESULT:    -5.392      4.738      7.216
REMARK INTER + INTRA:          -7.790
REMARK INTER:                  -6.928
REMARK INTRA:                  -0.862
REMARK UNBOUND:                -0.822
REMARK  10 active torsions:
REMARK  status: ('A' for Active; 'I' for Inactive)
REMARK    1  A    between atoms: C1_1  and  C21_25 
REMARK    2  A    between atoms: N1_14  and  C13_15 
REMARK    3  A    between atoms: C13_15  and  C14_16 
REMARK    4  A    between atoms: C14_16  and  C15_17 
REMARK    5  A    between atoms: C15_17  and  N2_18 
REMARK    6  A    between atoms: C1_29  and  C21_53 
REMARK    7  A    between atoms: N1_42  and  C13_43 
REMARK    8  A    between atoms: C13_43  and  C14_44 
REMARK    9  A    between atoms: C14_44  and  C15_45 
REMARK   10  A    between atoms: C15_45  and  N2_46 
ROOT
HETATM    1  C1    D T 203     -11.324   1.771   5.265  1.00 31.24     0.073 A 
HETATM    2  C2    D T 203     -10.858   3.068   5.369  1.00 29.52     0.004 A 
HETATM    3  C3    D T 203     -11.607   4.047   6.014  1.00 31.64     0.008 A 
HETATM    4  C4    D T 203     -12.844   3.713   6.559  1.00 32.35     0.045 A 
HETATM    5  C5    D T 203     -13.304   2.415   6.445  1.00 27.55     0.066 A 
HETATM    6  C6    D T 203     -12.557   1.424   5.798  1.00 28.26     0.022 A 
HETATM    7  S     D T 203     -13.802   4.836   7.375  1.00 46.57    -0.084 SA
HETATM    8  C7    D T 203     -14.644   4.179   8.657  1.00 54.54     0.045 A 
HETATM    9  C8    D T 203     -14.893   4.895   9.833  1.00 55.49     0.008 A 
HETATM   10  C9    D T 203     -15.581   4.270  10.865  1.00 51.42     0.001 A 
HETATM   11  C10   D T 203     -16.027   2.962  10.718  1.00 49.41     0.002 A 
HETATM   12  C11   D T 203     -15.789   2.247   9.552  1.00 52.67     0.018 A 
HETATM   13  C12   D T 203     -15.088   2.877   8.522  1.00 54.53     0.066 A 
HETATM   14  N1    D T 203     -14.753   2.124   7.112  1.00 62.60    -0.327 N 
ENDROOT
BRANCH  14  15
HETATM   15  C13   D T 203     -15.240   0.767   6.965  1.00 67.98     0.108 C 
BRANCH  15  16
HETATM   16  C14   D T 203     -16.362   0.723   5.925  1.00 73.94     0.060 C 
BRANCH  16  17
HETATM   17  C15   D T 203     -17.757   0.629   6.553  1.00 76.78     0.252 C 
BRANCH  17  18
HETATM   18  N2    D T 203     -18.194  -0.756   6.534  1.00 78.95     0.141 N 
HETATM   19  C16   D T 203     -17.681  -1.478   5.375  1.00 79.86     0.285 C 
HETATM   20  C17   D T 203     -17.790  -3.011   5.429  1.00 78.05     0.285 C 
HETATM   21  N3    D T 203     -17.957  -3.575   6.758  1.00 74.54     0.143 N 
HETATM   22  C18   D T 203     -17.325  -2.748   7.761  1.00 73.58     0.285 C 
HETATM   23  C20   D T 203     -19.367  -3.753   7.077  1.00 70.39     0.285 C 
HETATM   24  C19   D T 203     -18.007  -1.387   7.832  1.00 76.99     0.285 C 
ENDBRANCH  17  18
ENDBRANCH  16  17
ENDBRANCH  15  16
ENDBRANCH  14  15
BRANCH   1  25
HETATM   25  C21   D T 203     -10.464   0.747   4.521  1.00 34.94     0.419 C 
HETATM   26  F1    D T 203     -11.202  -0.352   4.244  1.00 43.95    -0.166 F 
HETATM   27  F2    D T 203      -9.443   0.350   5.325  1.00 34.86    -0.166 F 
HETATM   28  F3    D T 203      -9.929   1.289   3.391  1.00 34.91    -0.166 F 
ENDBRANCH   1  25
TORSDOF 10
ENDMDL
MODEL 9
REMARK VINA RESULT:    -5.333      4.791      7.318
REMARK INTER + INTRA:          -7.714
REMARK INTER:                  -6.872
REMARK INTRA:                  -0.843
REMARK UNBOUND:                -0.822
REMARK  10 active torsions:
REMARK  status: ('A' for Active; 'I' for Inactive)
REMARK    1  A    between atoms: C1_1  and  C21_25 
REMARK    2  A    between atoms: N1_14  and  C13_15 
REMARK    3  A    between atoms: C13_15  and  C14_16 
REMARK    4  A    between atoms: C14_16  and  C15_17 
REMARK    5  A    between atoms: C15_17  and  N2_18 
REMARK    6  A    between atoms: C1_29  and  C21_53 
REMARK    7  A    between atoms: N1_42  and  C13_43 
REMARK    8  A    between atoms: C13_43  and  C14_44 
REMARK    9  A    between atoms: C14_44  and  C15_45 
REMARK   10  A    between atoms: C15_45  and  N2_46 
ROOT
HETATM    1  C1    D T 203     -10.867   1.508   4.105  1.00 31.24     0.073 A 
HETATM    2  C2    D T 203     -10.897   2.843   3.750  1.00 29.52     0.004 A 
HETATM    3  C3    D T 203     -11.768   3.730   4.375  1.00 31.64     0.008 A 
HETATM    4  C4    D T 203     -12.620   3.263   5.372  1.00 32.35     0.045 A 
HETATM    5  C5    D T 203     -12.586   1.925   5.717  1.00 27.55     0.066 A 
HETATM    6  C6    D T 203     -11.714   1.026   5.093  1.00 28.26     0.022 A 
HETATM    7  S     D T 203     -13.687   4.278   6.193  1.00 46.57    -0.084 SA
HETATM    8  C7    D T 203     -13.885   3.870   7.799  1.00 54.54     0.045 A 
HETATM    9  C8    D T 203     -14.079   4.831   8.796  1.00 55.49     0.008 A 
HETATM   10  C9    D T 203     -14.212   4.413  10.114  1.00 51.42     0.001 A 
HETATM   11  C10   D T 203     -14.170   3.059  10.426  1.00 49.41     0.002 A 
HETATM   12  C11   D T 203     -13.984   2.099   9.442  1.00 52.67     0.018 A 
HETATM   13  C12   D T 203     -13.841   2.526   8.120  1.00 54.53     0.066 A 
HETATM   14  N1    D T 203     -13.614   1.478   6.888  1.00 62.60    -0.327 N 
ENDROOT
BRANCH  14  15
HETATM   15  C13   D T 203     -13.592   0.069   7.226  1.00 67.98     0.108 C 
BRANCH  15  16
HETATM   16  C14   D T 203     -15.011  -0.502   7.187  1.00 73.94     0.060 C 
BRANCH  16  17
HETATM   17  C15   D T 203     -15.639  -0.452   5.790  1.00 76.78     0.252 C 
BRANCH  17  18
HETATM   18  N2    D T 203     -16.945  -1.085   5.833  1.00 78.95     0.141 N 
HETATM   19  C16   D T 203     -17.011  -2.141   6.837  1.00 79.86     0.285 C 
HETATM   20  C17   D T 203     -18.419  -2.638   7.205  1.00 78.05     0.285 C 
HETATM   21  N3    D T 203     -19.505  -1.730   6.876  1.00 74.54     0.143 N 
HETATM   22  C18   D T 203     -19.067  -0.353   6.924  1.00 73.58     0.285 C 
HETATM   23  C20   D T 203     -20.057  -2.030   5.563  1.00 70.39     0.285 C 
HETATM   24  C19   D T 203     -18.012  -0.095   5.855  1.00 76.99     0.285 C 
ENDBRANCH  17  18
ENDBRANCH  16  17
ENDBRANCH  15  16
ENDBRANCH  14  15
BRANCH   1  25
HETATM   25  C21   D T 203      -9.905   0.579   3.361  1.00 34.94     0.419 C 
HETATM   26  F1    D T 203     -10.342  -0.698   3.454  1.00 43.95    -0.166 F 
HETATM   27  F2    D T 203      -8.685   0.627   3.956  1.00 34.86    -0.166 F 
HETATM   28  F3    D T 203      -9.761   0.965   2.063  1.00 34.91    -0.166 F 
ENDBRANCH   1  25
TORSDOF 10
ENDMDL
