MODEL 1
REMARK VINA RESULT:    -7.062      0.000      0.000
REMARK INTER + INTRA:          -9.805
REMARK INTER:                  -9.126
REMARK INTRA:                  -0.679
REMARK UNBOUND:                -0.679
REMARK  10 active torsions:
REMARK  status: ('A' for Active; 'I' for Inactive)
REMARK    1  A    between atoms: C1_1  and  C21_25 
REMARK    2  A    between atoms: N1_14  and  C13_15 
REMARK    3  A    between atoms: C13_15  and  C14_16 
REMARK    4  A    between atoms: C14_16  and  C15_17 
REMARK    5  A    between atoms: C15_17  and  N2_18 
REMARK    6  A    between atoms: C1_29  and  C21_53 
REMARK    7  A    between atoms: N1_42  and  C13_43 
REMARK    8  A    between atoms: C13_43  and  C14_44 
REMARK    9  A    between atoms: C14_44  and  C15_45 
REMARK   10  A    between atoms: C15_45  and  N2_46 
ROOT
HETATM    1  C1    D T 203     -22.035 -17.379   6.963  1.00 31.24     0.073 A 
HETATM    2  C2    D T 203     -22.390 -16.744   8.137  1.00 29.52     0.004 A 
HETATM    3  C3    D T 203     -22.303 -17.403   9.359  1.00 31.64     0.008 A 
HETATM    4  C4    D T 203     -21.853 -18.720   9.396  1.00 32.35     0.045 A 
HETATM    5  C5    D T 203     -21.506 -19.347   8.216  1.00 27.55     0.066 A 
HETATM    6  C6    D T 203     -21.590 -18.693   6.981  1.00 28.26     0.022 A 
HETATM    7  S     D T 203     -21.698 -19.579  10.840  1.00 46.57    -0.084 SA
HETATM    8  C7    D T 203     -20.397 -20.621  10.852  1.00 54.54     0.045 A 
HETATM    9  C8    D T 203     -19.653 -20.874  12.009  1.00 55.49     0.008 A 
HETATM   10  C9    D T 203     -18.568 -21.737  11.933  1.00 51.42     0.001 A 
HETATM   11  C10   D T 203     -18.243 -22.351  10.727  1.00 49.41     0.002 A 
HETATM   12  C11   D T 203     -18.980 -22.109   9.577  1.00 52.67     0.018 A 
HETATM   13  C12   D T 203     -20.064 -21.233   9.657  1.00 54.53     0.066 A 
HETATM   14  N1    D T 203     -20.993 -20.879   8.362  1.00 62.60    -0.327 N 
ENDROOT
BRANCH  14  15
HETATM   15  C13   D T 203     -20.655 -21.539   7.116  1.00 67.98     0.108 C 
BRANCH  15  16
HETATM   16  C14   D T 203     -21.912 -22.144   6.487  1.00 73.94     0.060 C 
BRANCH  16  17
HETATM   17  C15   D T 203     -22.072 -21.785   5.005  1.00 76.78     0.252 C 
BRANCH  17  18
HETATM   18  N2    D T 203     -22.520 -22.960   4.278  1.00 78.95     0.141 N 
HETATM   19  C16   D T 203     -23.136 -22.615   3.001  1.00 79.86     0.285 C 
HETATM   20  C17   D T 203     -23.331 -23.773   2.008  1.00 78.05     0.285 C 
HETATM   21  N3    D T 203     -22.502 -24.943   2.248  1.00 74.54     0.143 N 
HETATM   22  C18   D T 203     -21.246 -24.577   2.867  1.00 73.58     0.285 C 
HETATM   23  C20   D T 203     -23.198 -25.917   3.075  1.00 70.39     0.285 C 
HETATM   24  C19   D T 203     -21.491 -23.989   4.251  1.00 76.99     0.285 C 
ENDBRANCH  17  18
ENDBRANCH  16  17
ENDBRANCH  15  16
ENDBRANCH  14  15
BRANCH   1  25
HETATM   25  C21   D T 203     -22.176 -16.608   5.648  1.00 34.94     0.419 C 
HETATM   26  F1    D T 203     -21.671 -17.346   4.632  1.00 43.95    -0.166 F 
HETATM   27  F2    D T 203     -21.443 -15.466   5.715  1.00 34.86    -0.166 F 
HETATM   28  F3    D T 203     -23.474 -16.266   5.420  1.00 34.91    -0.166 F 
ENDBRANCH   1  25
TORSDOF 10
ENDMDL
MODEL 2
REMARK VINA RESULT:    -6.704      3.306      6.793
REMARK INTER + INTRA:          -9.342
REMARK INTER:                  -8.637
REMARK INTRA:                  -0.705
REMARK UNBOUND:                -0.679
REMARK  10 active torsions:
REMARK  status: ('A' for Active; 'I' for Inactive)
REMARK    1  A    between atoms: C1_1  and  C21_25 
REMARK    2  A    between atoms: N1_14  and  C13_15 
REMARK    3  A    between atoms: C13_15  and  C14_16 
REMARK    4  A    between atoms: C14_16  and  C15_17 
REMARK    5  A    between atoms: C15_17  and  N2_18 
REMARK    6  A    between atoms: C1_29  and  C21_53 
REMARK    7  A    between atoms: N1_42  and  C13_43 
REMARK    8  A    between atoms: C13_43  and  C14_44 
REMARK    9  A    between atoms: C14_44  and  C15_45 
REMARK   10  A    between atoms: C15_45  and  N2_46 
ROOT
HETATM    1  C1    D T 203     -22.819 -23.705   3.432  1.00 31.24     0.073 A 
HETATM    2  C2    D T 203     -22.159 -24.837   3.868  1.00 29.52     0.004 A 
HETATM    3  C3    D T 203     -21.234 -24.770   4.904  1.00 31.64     0.008 A 
HETATM    4  C4    D T 203     -20.970 -23.543   5.508  1.00 32.35     0.045 A 
HETATM    5  C5    D T 203     -21.631 -22.416   5.061  1.00 27.55     0.066 A 
HETATM    6  C6    D T 203     -22.564 -22.473   4.019  1.00 28.26     0.022 A 
HETATM    7  S     D T 203     -19.880 -23.383   6.785  1.00 46.57    -0.084 SA
HETATM    8  C7    D T 203     -20.341 -22.240   7.908  1.00 54.54     0.045 A 
HETATM    9  C8    D T 203     -20.083 -22.389   9.275  1.00 55.49     0.008 A 
HETATM   10  C9    D T 203     -20.519 -21.404  10.151  1.00 51.42     0.001 A 
HETATM   11  C10   D T 203     -21.185 -20.281   9.668  1.00 49.41     0.002 A 
HETATM   12  C11   D T 203     -21.439 -20.125   8.313  1.00 52.67     0.018 A 
HETATM   13  C12   D T 203     -21.007 -21.123   7.438  1.00 54.53     0.066 A 
HETATM   14  N1    D T 203     -21.259 -21.036   5.827  1.00 62.60    -0.327 N 
ENDROOT
BRANCH  14  15
HETATM   15  C13   D T 203     -21.937 -19.853   5.335  1.00 67.98     0.108 C 
BRANCH  15  16
HETATM   16  C14   D T 203     -20.944 -18.697   5.202  1.00 73.94     0.060 C 
BRANCH  16  17
HETATM   17  C15   D T 203     -21.598 -17.322   5.375  1.00 76.78     0.252 C 
BRANCH  17  18
HETATM   18  N2    D T 203     -22.551 -17.384   6.470  1.00 78.95     0.141 N 
HETATM   19  C16   D T 203     -22.022 -16.794   7.694  1.00 79.86     0.285 C 
HETATM   20  C17   D T 203     -23.047 -16.496   8.801  1.00 78.05     0.285 C 
HETATM   21  N3    D T 203     -24.429 -16.407   8.360  1.00 74.54     0.143 N 
HETATM   22  C18   D T 203     -24.513 -15.933   6.996  1.00 73.58     0.285 C 
HETATM   23  C20   D T 203     -25.101 -17.691   8.483  1.00 70.39     0.285 C 
HETATM   24  C19   D T 203     -23.871 -16.939   6.047  1.00 76.99     0.285 C 
ENDBRANCH  17  18
ENDBRANCH  16  17
ENDBRANCH  15  16
ENDBRANCH  14  15
BRANCH   1  25
HETATM   25  C21   D T 203     -23.807 -23.840   2.271  1.00 34.94     0.419 C 
HETATM   26  F1    D T 203     -24.429 -25.040   2.340  1.00 43.95    -0.166 F 
HETATM   27  F2    D T 203     -23.126 -23.811   1.095  1.00 34.86    -0.166 F 
HETATM   28  F3    D T 203     -24.701 -22.813   2.269  1.00 34.91    -0.166 F 
ENDBRANCH   1  25
TORSDOF 10
ENDMDL
MODEL 3
REMARK VINA RESULT:    -6.654      3.015      6.032
REMARK INTER + INTRA:          -9.278
REMARK INTER:                  -8.135
REMARK INTRA:                  -1.143
REMARK UNBOUND:                -0.679
REMARK  10 active torsions:
REMARK  status: ('A' for Active; 'I' for Inactive)
REMARK    1  A    between atoms: C1_1  and  C21_25 
REMARK    2  A    between atoms: N1_14  and  C13_15 
REMARK    3  A    between atoms: C13_15  and  C14_16 
REMARK    4  A    between atoms: C14_16  and  C15_17 
REMARK    5  A    between atoms: C15_17  and  N2_18 
REMARK    6  A    between atoms: C1_29  and  C21_53 
REMARK    7  A    between atoms: N1_42  and  C13_43 
REMARK    8  A    between atoms: C13_43  and  C14_44 
REMARK    9  A    between atoms: C14_44  and  C15_45 
REMARK   10  A    between atoms: C15_45  and  N2_46 
ROOT
HETATM    1  C1    D T 203     -21.904 -17.689   6.244  1.00 31.24     0.073 A 
HETATM    2  C2    D T 203     -21.548 -18.327   5.071  1.00 29.52     0.004 A 
HETATM    3  C3    D T 203     -21.114 -19.649   5.082  1.00 31.64     0.008 A 
HETATM    4  C4    D T 203     -21.037 -20.335   6.291  1.00 32.35     0.045 A 
HETATM    5  C5    D T 203     -21.389 -19.685   7.458  1.00 27.55     0.066 A 
HETATM    6  C6    D T 203     -21.827 -18.356   7.458  1.00 28.26     0.022 A 
HETATM    7  S     D T 203     -20.542 -21.945   6.384  1.00 46.57    -0.084 SA
HETATM    8  C7    D T 203     -21.341 -22.814   7.562  1.00 54.54     0.045 A 
HETATM    9  C8    D T 203     -21.663 -24.166   7.404  1.00 55.49     0.008 A 
HETATM   10  C9    D T 203     -22.350 -24.815   8.421  1.00 51.42     0.001 A 
HETATM   11  C10   D T 203     -22.694 -24.131   9.583  1.00 49.41     0.002 A 
HETATM   12  C11   D T 203     -22.372 -22.792   9.749  1.00 52.67     0.018 A 
HETATM   13  C12   D T 203     -21.690 -22.141   8.719  1.00 54.53     0.066 A 
HETATM   14  N1    D T 203     -21.268 -20.567   8.814  1.00 62.60    -0.327 N 
ENDROOT
BRANCH  14  15
HETATM   15  C13   D T 203     -21.615 -19.870  10.037  1.00 67.98     0.108 C 
BRANCH  15  16
HETATM   16  C14   D T 203     -20.392 -19.778  10.952  1.00 73.94     0.060 C 
BRANCH  16  17
HETATM   17  C15   D T 203     -19.115 -20.323  10.301  1.00 76.78     0.252 C 
BRANCH  17  18
HETATM   18  N2    D T 203     -18.526 -21.322  11.176  1.00 78.95     0.141 N 
HETATM   19  C16   D T 203     -19.045 -21.237  12.536  1.00 79.86     0.285 C 
HETATM   20  C17   D T 203     -18.757 -22.442  13.448  1.00 78.05     0.285 C 
HETATM   21  N3    D T 203     -18.418 -23.676  12.758  1.00 74.54     0.143 N 
HETATM   22  C18   D T 203     -19.059 -23.743  11.462  1.00 73.58     0.285 C 
HETATM   23  C20   D T 203     -16.978 -23.812  12.608  1.00 70.39     0.285 C 
HETATM   24  C19   D T 203     -18.532 -22.638  10.554  1.00 76.99     0.285 C 
ENDBRANCH  17  18
ENDBRANCH  16  17
ENDBRANCH  15  16
ENDBRANCH  14  15
BRANCH   1  25
HETATM   25  C21   D T 203     -22.349 -16.227   6.169  1.00 34.94     0.419 C 
HETATM   26  F1    D T 203     -21.341 -15.468   5.680  1.00 43.95    -0.166 F 
HETATM   27  F2    D T 203     -22.617 -15.774   7.422  1.00 34.86    -0.166 F 
HETATM   28  F3    D T 203     -23.480 -16.099   5.421  1.00 34.91    -0.166 F 
ENDBRANCH   1  25
TORSDOF 10
ENDMDL
MODEL 4
REMARK VINA RESULT:    -6.624     18.681     21.390
REMARK INTER + INTRA:          -9.239
REMARK INTER:                  -8.006
REMARK INTRA:                  -1.233
REMARK UNBOUND:                -0.679
REMARK  10 active torsions:
REMARK  status: ('A' for Active; 'I' for Inactive)
REMARK    1  A    between atoms: C1_1  and  C21_25 
REMARK    2  A    between atoms: N1_14  and  C13_15 
REMARK    3  A    between atoms: C13_15  and  C14_16 
REMARK    4  A    between atoms: C14_16  and  C15_17 
REMARK    5  A    between atoms: C15_17  and  N2_18 
REMARK    6  A    between atoms: C1_29  and  C21_53 
REMARK    7  A    between atoms: N1_42  and  C13_43 
REMARK    8  A    between atoms: C13_43  and  C14_44 
REMARK    9  A    between atoms: C14_44  and  C15_45 
REMARK   10  A    between atoms: C15_45  and  N2_46 
ROOT
HETATM    1  C1    D T 203      -4.661 -12.884  11.270  1.00 31.24     0.073 A 
HETATM    2  C2    D T 203      -5.226 -11.623  11.265  1.00 29.52     0.004 A 
HETATM    3  C3    D T 203      -4.619 -10.566  11.936  1.00 31.64     0.008 A 
HETATM    4  C4    D T 203      -3.426 -10.784  12.620  1.00 32.35     0.045 A 
HETATM    5  C5    D T 203      -2.873 -12.050  12.624  1.00 27.55     0.066 A 
HETATM    6  C6    D T 203      -3.476 -13.119  11.952  1.00 28.26     0.022 A 
HETATM    7  S     D T 203      -2.618  -9.550  13.438  1.00 46.57    -0.084 SA
HETATM    8  C7    D T 203      -0.957  -9.686  13.363  1.00 54.54     0.045 A 
HETATM    9  C8    D T 203      -0.118  -8.569  13.296  1.00 55.49     0.008 A 
HETATM   10  C9    D T 203       1.254  -8.765  13.213  1.00 51.42     0.001 A 
HETATM   11  C10   D T 203       1.780 -10.053  13.215  1.00 49.41     0.002 A 
HETATM   12  C11   D T 203       0.954 -11.165  13.288  1.00 52.67     0.018 A 
HETATM   13  C12   D T 203      -0.426 -10.963  13.361  1.00 54.53     0.066 A 
HETATM   14  N1    D T 203      -1.484 -12.204  13.446  1.00 62.60    -0.327 N 
ENDROOT
BRANCH  14  15
HETATM   15  C13   D T 203      -0.922 -13.540  13.466  1.00 67.98     0.108 C 
BRANCH  15  16
HETATM   16  C14   D T 203      -1.345 -14.266  14.745  1.00 73.94     0.060 C 
BRANCH  16  17
HETATM   17  C15   D T 203      -1.843 -15.693  14.487  1.00 76.78     0.252 C 
BRANCH  17  18
HETATM   18  N2    D T 203      -3.273 -15.660  14.239  1.00 78.95     0.141 N 
HETATM   19  C16   D T 203      -3.778 -16.939  13.755  1.00 79.86     0.285 C 
HETATM   20  C17   D T 203      -5.305 -17.122  13.787  1.00 78.05     0.285 C 
HETATM   21  N3    D T 203      -6.019 -16.227  14.683  1.00 74.54     0.143 N 
HETATM   22  C18   D T 203      -5.198 -15.857  15.816  1.00 73.58     0.285 C 
HETATM   23  C20   D T 203      -6.466 -15.033  13.982  1.00 70.39     0.285 C 
HETATM   24  C19   D T 203      -3.989 -15.053  15.352  1.00 76.99     0.285 C 
ENDBRANCH  17  18
ENDBRANCH  16  17
ENDBRANCH  15  16
ENDBRANCH  14  15
BRANCH   1  25
HETATM   25  C21   D T 203      -5.390 -14.010  10.535  1.00 34.94     0.419 C 
HETATM   26  F1    D T 203      -6.712 -13.961  10.824  1.00 43.95    -0.166 F 
HETATM   27  F2    D T 203      -4.929 -15.209  10.980  1.00 34.86    -0.166 F 
HETATM   28  F3    D T 203      -5.168 -13.942   9.193  1.00 34.91    -0.166 F 
ENDBRANCH   1  25
TORSDOF 10
ENDMDL
MODEL 5
REMARK VINA RESULT:    -6.517      3.235      6.663
REMARK INTER + INTRA:          -9.101
REMARK INTER:                  -7.903
REMARK INTRA:                  -1.198
REMARK UNBOUND:                -0.679
REMARK  10 active torsions:
REMARK  status: ('A' for Active; 'I' for Inactive)
REMARK    1  A    between atoms: C1_1  and  C21_25 
REMARK    2  A    between atoms: N1_14  and  C13_15 
REMARK    3  A    between atoms: C13_15  and  C14_16 
REMARK    4  A    between atoms: C14_16  and  C15_17 
REMARK    5  A    between atoms: C15_17  and  N2_18 
REMARK    6  A    between atoms: C1_29  and  C21_53 
REMARK    7  A    between atoms: N1_42  and  C13_43 
REMARK    8  A    between atoms: C13_43  and  C14_44 
REMARK    9  A    between atoms: C14_44  and  C15_45 
REMARK   10  A    between atoms: C15_45  and  N2_46 
ROOT
HETATM    1  C1    D T 203     -20.411 -21.180   9.957  1.00 31.24     0.073 A 
HETATM    2  C2    D T 203     -21.140 -22.125  10.653  1.00 29.52     0.004 A 
HETATM    3  C3    D T 203     -22.029 -22.968   9.994  1.00 31.64     0.008 A 
HETATM    4  C4    D T 203     -22.186 -22.855   8.615  1.00 32.35     0.045 A 
HETATM    5  C5    D T 203     -21.457 -21.902   7.930  1.00 27.55     0.066 A 
HETATM    6  C6    D T 203     -20.560 -21.050   8.583  1.00 28.26     0.022 A 
HETATM    7  S     D T 203     -23.227 -23.855   7.742  1.00 46.57    -0.084 SA
HETATM    8  C7    D T 203     -22.653 -24.240   6.224  1.00 54.54     0.045 A 
HETATM    9  C8    D T 203     -22.884 -25.487   5.633  1.00 55.49     0.008 A 
HETATM   10  C9    D T 203     -22.353 -25.740   4.375  1.00 51.42     0.001 A 
HETATM   11  C10   D T 203     -21.620 -24.760   3.712  1.00 49.41     0.002 A 
HETATM   12  C11   D T 203     -21.393 -23.520   4.290  1.00 52.67     0.018 A 
HETATM   13  C12   D T 203     -21.920 -23.274   5.559  1.00 54.53     0.066 A 
HETATM   14  N1    D T 203     -21.707 -21.849   6.328  1.00 62.60    -0.327 N 
ENDROOT
BRANCH  14  15
HETATM   15  C13   D T 203     -20.958 -20.830   5.619  1.00 67.98     0.108 C 
BRANCH  15  16
HETATM   16  C14   D T 203     -21.914 -19.928   4.836  1.00 73.94     0.060 C 
BRANCH  16  17
HETATM   17  C15   D T 203     -23.168 -19.549   5.632  1.00 76.78     0.252 C 
BRANCH  17  18
HETATM   18  N2    D T 203     -22.807 -18.584   6.656  1.00 78.95     0.141 N 
HETATM   19  C16   D T 203     -22.753 -17.223   6.134  1.00 79.86     0.285 C 
HETATM   20  C17   D T 203     -22.720 -16.096   7.181  1.00 78.05     0.285 C 
HETATM   21  N3    D T 203     -23.191 -16.466   8.506  1.00 74.54     0.143 N 
HETATM   22  C18   D T 203     -24.191 -17.509   8.433  1.00 73.58     0.285 C 
HETATM   23  C20   D T 203     -22.088 -16.892   9.353  1.00 70.39     0.285 C 
HETATM   24  C19   D T 203     -23.580 -18.788   7.872  1.00 76.99     0.285 C 
ENDBRANCH  17  18
ENDBRANCH  16  17
ENDBRANCH  15  16
ENDBRANCH  14  15
BRANCH   1  25
HETATM   25  C21   D T 203     -19.468 -20.265  10.742  1.00 34.94     0.419 C 
HETATM   26  F1    D T 203     -18.277 -20.187  10.105  1.00 43.95    -0.166 F 
HETATM   27  F2    D T 203     -19.231 -20.808  11.965  1.00 34.86    -0.166 F 
HETATM   28  F3    D T 203     -20.021 -19.034  10.923  1.00 34.91    -0.166 F 
ENDBRANCH   1  25
TORSDOF 10
ENDMDL
MODEL 6
REMARK VINA RESULT:    -6.381      3.509      7.499
REMARK INTER + INTRA:          -8.925
REMARK INTER:                  -8.158
REMARK INTRA:                  -0.766
REMARK UNBOUND:                -0.679
REMARK  10 active torsions:
REMARK  status: ('A' for Active; 'I' for Inactive)
REMARK    1  A    between atoms: C1_1  and  C21_25 
REMARK    2  A    between atoms: N1_14  and  C13_15 
REMARK    3  A    between atoms: C13_15  and  C14_16 
REMARK    4  A    between atoms: C14_16  and  C15_17 
REMARK    5  A    between atoms: C15_17  and  N2_18 
REMARK    6  A    between atoms: C1_29  and  C21_53 
REMARK    7  A    between atoms: N1_42  and  C13_43 
REMARK    8  A    between atoms: C13_43  and  C14_44 
REMARK    9  A    between atoms: C14_44  and  C15_45 
REMARK   10  A    between atoms: C15_45  and  N2_46 
ROOT
HETATM    1  C1    D T 203     -23.011 -23.213   3.633  1.00 31.24     0.073 A 
HETATM    2  C2    D T 203     -24.392 -23.199   3.608  1.00 29.52     0.004 A 
HETATM    3  C3    D T 203     -25.109 -22.247   4.325  1.00 31.64     0.008 A 
HETATM    4  C4    D T 203     -24.424 -21.297   5.077  1.00 32.35     0.045 A 
HETATM    5  C5    D T 203     -23.043 -21.323   5.100  1.00 27.55     0.066 A 
HETATM    6  C6    D T 203     -22.312 -22.276   4.382  1.00 28.26     0.022 A 
HETATM    7  S     D T 203     -25.221 -20.097   5.955  1.00 46.57    -0.084 SA
HETATM    8  C7    D T 203     -24.403 -18.643   5.979  1.00 54.54     0.045 A 
HETATM    9  C8    D T 203     -25.068 -17.412   5.974  1.00 55.49     0.008 A 
HETATM   10  C9    D T 203     -24.316 -16.245   5.972  1.00 51.42     0.001 A 
HETATM   11  C10   D T 203     -22.926 -16.305   5.991  1.00 49.41     0.002 A 
HETATM   12  C11   D T 203     -22.261 -17.523   6.002  1.00 52.67     0.018 A 
HETATM   13  C12   D T 203     -23.021 -18.694   5.994  1.00 54.53     0.066 A 
HETATM   14  N1    D T 203     -22.336 -20.176   6.002  1.00 62.60    -0.327 N 
ENDROOT
BRANCH  14  15
HETATM   15  C13   D T 203     -20.888 -20.226   6.042  1.00 67.98     0.108 C 
BRANCH  15  16
HETATM   16  C14   D T 203     -20.424 -21.014   7.268  1.00 73.94     0.060 C 
BRANCH  16  17
HETATM   17  C15   D T 203     -20.776 -20.325   8.592  1.00 76.78     0.252 C 
BRANCH  17  18
HETATM   18  N2    D T 203     -19.811 -20.717   9.603  1.00 78.95     0.141 N 
HETATM   19  C16   D T 203     -20.086 -20.101  10.896  1.00 79.86     0.285 C 
HETATM   20  C17   D T 203     -19.349 -20.703  12.105  1.00 78.05     0.285 C 
HETATM   21  N3    D T 203     -18.838 -22.050  11.913  1.00 74.54     0.143 N 
HETATM   22  C18   D T 203     -19.658 -22.793  10.981  1.00 73.58     0.285 C 
HETATM   23  C20   D T 203     -17.459 -22.024  11.450  1.00 70.39     0.285 C 
HETATM   24  C19   D T 203     -19.594 -22.157   9.598  1.00 76.99     0.285 C 
ENDBRANCH  17  18
ENDBRANCH  16  17
ENDBRANCH  15  16
ENDBRANCH  14  15
BRANCH   1  25
HETATM   25  C21   D T 203     -22.280 -24.301   2.843  1.00 34.94     0.419 C 
HETATM   26  F1    D T 203     -22.564 -24.176   1.526  1.00 43.95    -0.166 F 
HETATM   27  F2    D T 203     -22.733 -25.521   3.234  1.00 34.86    -0.166 F 
HETATM   28  F3    D T 203     -20.938 -24.253   3.072  1.00 34.91    -0.166 F 
ENDBRANCH   1  25
TORSDOF 10
ENDMDL
MODEL 7
REMARK VINA RESULT:    -6.368      3.597      7.451
REMARK INTER + INTRA:          -8.908
REMARK INTER:                  -8.027
REMARK INTRA:                  -0.881
REMARK UNBOUND:                -0.679
REMARK  10 active torsions:
REMARK  status: ('A' for Active; 'I' for Inactive)
REMARK    1  A    between atoms: C1_1  and  C21_25 
REMARK    2  A    between atoms: N1_14  and  C13_15 
REMARK    3  A    between atoms: C13_15  and  C14_16 
REMARK    4  A    between atoms: C14_16  and  C15_17 
REMARK    5  A    between atoms: C15_17  and  N2_18 
REMARK    6  A    between atoms: C1_29  and  C21_53 
REMARK    7  A    between atoms: N1_42  and  C13_43 
REMARK    8  A    between atoms: C13_43  and  C14_44 
REMARK    9  A    between atoms: C14_44  and  C15_45 
REMARK   10  A    between atoms: C15_45  and  N2_46 
ROOT
HETATM    1  C1    D T 203     -22.846 -23.803   3.313  1.00 31.24     0.073 A 
HETATM    2  C2    D T 203     -24.220 -23.692   3.233  1.00 29.52     0.004 A 
HETATM    3  C3    D T 203     -24.903 -22.730   3.970  1.00 31.64     0.008 A 
HETATM    4  C4    D T 203     -24.189 -21.870   4.800  1.00 32.35     0.045 A 
HETATM    5  C5    D T 203     -22.815 -21.993   4.878  1.00 27.55     0.066 A 
HETATM    6  C6    D T 203     -22.119 -22.957   4.140  1.00 28.26     0.022 A 
HETATM    7  S     D T 203     -24.941 -20.663   5.708  1.00 46.57    -0.084 SA
HETATM    8  C7    D T 203     -24.029 -19.274   5.844  1.00 54.54     0.045 A 
HETATM    9  C8    D T 203     -24.607 -18.001   5.879  1.00 55.49     0.008 A 
HETATM   10  C9    D T 203     -23.779 -16.890   5.970  1.00 51.42     0.001 A 
HETATM   11  C10   D T 203     -22.398 -17.048   6.043  1.00 49.41     0.002 A 
HETATM   12  C11   D T 203     -21.818 -18.308   6.015  1.00 52.67     0.018 A 
HETATM   13  C12   D T 203     -22.655 -19.421   5.913  1.00 54.53     0.066 A 
HETATM   14  N1    D T 203     -22.073 -20.946   5.869  1.00 62.60    -0.327 N 
ENDROOT
BRANCH  14  15
HETATM   15  C13   D T 203     -20.635 -21.099   5.964  1.00 67.98     0.108 C 
BRANCH  15  16
HETATM   16  C14   D T 203     -20.286 -22.094   7.074  1.00 73.94     0.060 C 
BRANCH  16  17
HETATM   17  C15   D T 203     -21.295 -22.081   8.228  1.00 76.78     0.252 C 
BRANCH  17  18
HETATM   18  N2    D T 203     -20.575 -22.040   9.488  1.00 78.95     0.141 N 
HETATM   19  C16   D T 203     -19.361 -22.848   9.454  1.00 79.86     0.285 C 
HETATM   20  C17   D T 203     -18.355 -22.609  10.593  1.00 78.05     0.285 C 
HETATM   21  N3    D T 203     -18.497 -21.342  11.291  1.00 74.54     0.143 N 
HETATM   22  C18   D T 203     -19.023 -20.318  10.415  1.00 73.58     0.285 C 
HETATM   23  C20   D T 203     -19.350 -21.482  12.461  1.00 70.39     0.285 C 
HETATM   24  C19   D T 203     -20.439 -20.675   9.976  1.00 76.99     0.285 C 
ENDBRANCH  17  18
ENDBRANCH  16  17
ENDBRANCH  15  16
ENDBRANCH  14  15
BRANCH   1  25
HETATM   25  C21   D T 203     -22.156 -24.898   2.496  1.00 34.94     0.419 C 
HETATM   26  F1    D T 203     -22.195 -26.067   3.177  1.00 43.95    -0.166 F 
HETATM   27  F2    D T 203     -20.845 -24.577   2.330  1.00 34.86    -0.166 F 
HETATM   28  F3    D T 203     -22.722 -25.018   1.264  1.00 34.91    -0.166 F 
ENDBRANCH   1  25
TORSDOF 10
ENDMDL
MODEL 8
REMARK VINA RESULT:    -6.330      1.592      2.041
REMARK INTER + INTRA:          -8.859
REMARK INTER:                  -8.063
REMARK INTRA:                  -0.796
REMARK UNBOUND:                -0.679
REMARK  10 active torsions:
REMARK  status: ('A' for Active; 'I' for Inactive)
REMARK    1  A    between atoms: C1_1  and  C21_25 
REMARK    2  A    between atoms: N1_14  and  C13_15 
REMARK    3  A    between atoms: C13_15  and  C14_16 
REMARK    4  A    between atoms: C14_16  and  C15_17 
REMARK    5  A    between atoms: C15_17  and  N2_18 
REMARK    6  A    between atoms: C1_29  and  C21_53 
REMARK    7  A    between atoms: N1_42  and  C13_43 
REMARK    8  A    between atoms: C13_43  and  C14_44 
REMARK    9  A    between atoms: C14_44  and  C15_45 
REMARK   10  A    between atoms: C15_45  and  N2_46 
ROOT
HETATM    1  C1    D T 203     -22.305 -17.566   7.081  1.00 31.24     0.073 A 
HETATM    2  C2    D T 203     -22.427 -17.515   8.457  1.00 29.52     0.004 A 
HETATM    3  C3    D T 203     -22.330 -18.671   9.225  1.00 31.64     0.008 A 
HETATM    4  C4    D T 203     -22.109 -19.894   8.597  1.00 32.35     0.045 A 
HETATM    5  C5    D T 203     -21.995 -19.934   7.221  1.00 27.55     0.066 A 
HETATM    6  C6    D T 203     -22.090 -18.778   6.440  1.00 28.26     0.022 A 
HETATM    7  S     D T 203     -21.957 -21.335   9.460  1.00 46.57    -0.084 SA
HETATM    8  C7    D T 203     -20.857 -22.394   8.790  1.00 54.54     0.045 A 
HETATM    9  C8    D T 203     -20.054 -23.231   9.571  1.00 55.49     0.008 A 
HETATM   10  C9    D T 203     -19.144 -24.068   8.939  1.00 51.42     0.001 A 
HETATM   11  C10   D T 203     -19.052 -24.083   7.551  1.00 49.41     0.002 A 
HETATM   12  C11   D T 203     -19.850 -23.260   6.770  1.00 52.67     0.018 A 
HETATM   13  C12   D T 203     -20.755 -22.412   7.410  1.00 54.53     0.066 A 
HETATM   14  N1    D T 203     -21.737 -21.403   6.584  1.00 62.60    -0.327 N 
ENDROOT
BRANCH  14  15
HETATM   15  C13   D T 203     -21.644 -21.441   5.138  1.00 67.98     0.108 C 
BRANCH  15  16
HETATM   16  C14   D T 203     -22.898 -22.091   4.549  1.00 73.94     0.060 C 
BRANCH  16  17
HETATM   17  C15   D T 203     -23.123 -23.522   5.051  1.00 76.78     0.252 C 
BRANCH  17  18
HETATM   18  N2    D T 203     -23.225 -24.415   3.910  1.00 78.95     0.141 N 
HETATM   19  C16   D T 203     -23.400 -23.689   2.657  1.00 79.86     0.285 C 
HETATM   20  C17   D T 203     -23.176 -24.497   1.368  1.00 78.05     0.285 C 
HETATM   21  N3    D T 203     -22.400 -25.717   1.526  1.00 74.54     0.143 N 
HETATM   22  C18   D T 203     -21.450 -25.594   2.611  1.00 73.58     0.285 C 
HETATM   23  C20   D T 203     -23.267 -26.863   1.752  1.00 70.39     0.285 C 
HETATM   24  C19   D T 203     -22.181 -25.430   3.938  1.00 76.99     0.285 C 
ENDBRANCH  17  18
ENDBRANCH  16  17
ENDBRANCH  15  16
ENDBRANCH  14  15
BRANCH   1  25
HETATM   25  C21   D T 203     -22.446 -16.264   6.290  1.00 34.94     0.419 C 
HETATM   26  F1    D T 203     -23.405 -16.406   5.346  1.00 43.95    -0.166 F 
HETATM   27  F2    D T 203     -21.281 -16.005   5.639  1.00 34.86    -0.166 F 
HETATM   28  F3    D T 203     -22.711 -15.216   7.118  1.00 34.91    -0.166 F 
ENDBRANCH   1  25
TORSDOF 10
ENDMDL
MODEL 9
REMARK VINA RESULT:    -6.175     14.161     17.153
REMARK INTER + INTRA:          -8.659
REMARK INTER:                  -7.881
REMARK INTRA:                  -0.778
REMARK UNBOUND:                -0.679
REMARK  10 active torsions:
REMARK  status: ('A' for Active; 'I' for Inactive)
REMARK    1  A    between atoms: C1_1  and  C21_25 
REMARK    2  A    between atoms: N1_14  and  C13_15 
REMARK    3  A    between atoms: C13_15  and  C14_16 
REMARK    4  A    between atoms: C14_16  and  C15_17 
REMARK    5  A    between atoms: C15_17  and  N2_18 
REMARK    6  A    between atoms: C1_29  and  C21_53 
REMARK    7  A    between atoms: N1_42  and  C13_43 
REMARK    8  A    between atoms: C13_43  and  C14_44 
REMARK    9  A    between atoms: C14_44  and  C15_45 
REMARK   10  A    between atoms: C15_45  and  N2_46 
ROOT
HETATM    1  C1    D T 203      -5.223 -14.137  11.868  1.00 31.24     0.073 A 
HETATM    2  C2    D T 203      -3.878 -14.399  12.046  1.00 29.52     0.004 A 
HETATM    3  C3    D T 203      -3.456 -15.494  12.792  1.00 31.64     0.008 A 
HETATM    4  C4    D T 203      -4.404 -16.336  13.368  1.00 32.35     0.045 A 
HETATM    5  C5    D T 203      -5.746 -16.062  13.190  1.00 27.55     0.066 A 
HETATM    6  C6    D T 203      -6.181 -14.962  12.441  1.00 28.26     0.022 A 
HETATM    7  S     D T 203      -3.974 -17.696  14.267  1.00 46.57    -0.084 SA
HETATM    8  C7    D T 203      -5.023 -18.978  14.070  1.00 54.54     0.045 A 
HETATM    9  C8    D T 203      -4.588 -20.307  14.077  1.00 55.49     0.008 A 
HETATM   10  C9    D T 203      -5.519 -21.319  13.883  1.00 51.42     0.001 A 
HETATM   11  C10   D T 203      -6.864 -21.009  13.703  1.00 49.41     0.002 A 
HETATM   12  C11   D T 203      -7.303 -19.692  13.701  1.00 52.67     0.018 A 
HETATM   13  C12   D T 203      -6.360 -18.679  13.886  1.00 54.53     0.066 A 
HETATM   14  N1    D T 203      -6.773 -17.099  13.897  1.00 62.60    -0.327 N 
ENDROOT
BRANCH  14  15
HETATM   15  C13   D T 203      -8.179 -16.790  13.727  1.00 67.98     0.108 C 
BRANCH  15  16
HETATM   16  C14   D T 203      -8.749 -16.217  15.026  1.00 73.94     0.060 C 
BRANCH  16  17
HETATM   17  C15   D T 203      -9.659 -17.203  15.768  1.00 76.78     0.252 C 
BRANCH  17  18
HETATM   18  N2    D T 203     -10.801 -16.485  16.305  1.00 78.95     0.141 N 
HETATM   19  C16   D T 203     -10.778 -15.071  15.950  1.00 79.86     0.285 C 
HETATM   20  C17   D T 203     -12.089 -14.297  16.165  1.00 78.05     0.285 C 
HETATM   21  N3    D T 203     -13.287 -15.116  16.258  1.00 74.54     0.143 N 
HETATM   22  C18   D T 203     -13.151 -16.329  15.480  1.00 73.58     0.285 C 
HETATM   23  C20   D T 203     -13.590 -15.444  17.642  1.00 70.39     0.285 C 
HETATM   24  C19   D T 203     -12.043 -17.203  16.054  1.00 76.99     0.285 C 
ENDBRANCH  17  18
ENDBRANCH  16  17
ENDBRANCH  15  16
ENDBRANCH  14  15
BRANCH   1  25
HETATM   25  C21   D T 203      -5.622 -12.902  11.058  1.00 34.94     0.419 C 
HETATM   26  F1    D T 203      -6.316 -12.046  11.844  1.00 43.95    -0.166 F 
HETATM   27  F2    D T 203      -6.452 -13.276  10.048  1.00 34.86    -0.166 F 
HETATM   28  F3    D T 203      -4.529 -12.303  10.509  1.00 34.91    -0.166 F 
ENDBRANCH   1  25
TORSDOF 10
ENDMDL
