MODEL 1
REMARK VINA RESULT:    -6.556      0.000      0.000
REMARK INTER + INTRA:         -10.879
REMARK INTER:                 -10.005
REMARK INTRA:                  -0.874
REMARK UNBOUND:                -0.874
REMARK  9 active torsions:
REMARK  status: ('A' for Active; 'I' for Inactive)
REMARK    1  A    between atoms: C13_2  and  C14_3 
REMARK       I    between atoms: C13_2  and  N12_12 
REMARK    2  A    between atoms: C17_6  and  N20_7 
REMARK    3  A    between atoms: N12_12  and  C10_13 
REMARK    4  A    between atoms: C10_13  and  C9_14 
REMARK    5  A    between atoms: C9_14  and  C8_15 
REMARK    6  A    between atoms: C8_15  and  C7_16 
REMARK    7  A    between atoms: C7_16  and  C6_17 
REMARK    8  A    between atoms: C6_17  and  C5_18 
REMARK    9  A    between atoms: C5_18  and  C1_19 
REMARK       I    between atoms: C1_19  and  N3_21 
ROOT
HETATM    1  O23   D T 701       0.485   2.886  -3.664  1.00 19.82    -0.266 OA
HETATM    2  C13   D T 701      -0.218   2.121  -4.386  1.00 19.55     0.275 C 
HETATM    3  N12   D T 701      -0.962   1.115  -3.898  1.00 19.95    -0.234 NA
ENDROOT
BRANCH   2   4
HETATM    4  C14   D T 701      -0.099   2.211  -5.874  1.00 17.56     0.058 A 
HETATM    5  C15   D T 701      -0.842   3.078  -6.664  1.00 18.38     0.006 A 
HETATM    6  C16   D T 701      -0.723   3.017  -8.057  1.00 18.81     0.017 A 
HETATM    7  C17   D T 701       0.208   2.183  -8.671  1.00 20.59     0.056 A 
HETATM    8  C18   D T 701       0.967   1.354  -7.855  1.00 18.24     0.017 A 
HETATM    9  C19   D T 701       0.777   1.370  -6.487  1.00 17.45     0.006 A 
BRANCH   7  10
HETATM   10  N20   D T 701       0.257   2.082 -10.062  1.00 20.92    -0.344 N 
HETATM   11  C22   D T 701       0.923   0.948 -10.696  1.00 23.07     0.126 C 
HETATM   12  C21   D T 701      -0.096   3.206 -10.922  1.00 21.40     0.126 C 
ENDBRANCH   7  10
ENDBRANCH   2   4
BRANCH   3  13
HETATM   13  C10   D T 701      -1.007   0.822  -2.462  1.00 21.02     0.129 C 
BRANCH  13  14
HETATM   14  C9    D T 701      -2.452   0.469  -2.034  1.00 19.12     0.026 C 
BRANCH  14  15
HETATM   15  C8    D T 701      -3.169  -0.518  -2.999  1.00 19.24     0.002 C 
BRANCH  15  16
HETATM   16  C7    D T 701      -4.588  -0.112  -3.351  1.00 17.46     0.001 C 
BRANCH  16  17
HETATM   17  C6    D T 701      -4.809   1.350  -3.735  1.00 16.75     0.010 C 
BRANCH  17  18
HETATM   18  C5    D T 701      -4.121   1.630  -5.079  1.00 15.35     0.092 C 
BRANCH  18  19
HETATM   19  C1    D T 701      -5.165   1.835  -6.165  1.00 16.38     0.281 C 
HETATM   20  O2    D T 701      -4.965   2.323  -7.326  1.00 15.69    -0.268 OA
HETATM   21  N3    D T 701      -6.374   1.492  -5.794  1.00 16.86    -0.058 NA
HETATM   22  O4    D T 701      -7.409   1.635  -6.691  1.00 14.83    -0.058 OA
ENDBRANCH  18  19
ENDBRANCH  17  18
ENDBRANCH  16  17
ENDBRANCH  15  16
ENDBRANCH  14  15
ENDBRANCH  13  14
ENDBRANCH   3  13
TORSDOF 9
ENDMDL
MODEL 2
REMARK VINA RESULT:    -6.421      1.707      3.872
REMARK INTER + INTRA:         -10.674
REMARK INTER:                  -9.725
REMARK INTRA:                  -0.948
REMARK UNBOUND:                -0.874
REMARK  9 active torsions:
REMARK  status: ('A' for Active; 'I' for Inactive)
REMARK    1  A    between atoms: C13_2  and  C14_3 
REMARK       I    between atoms: C13_2  and  N12_12 
REMARK    2  A    between atoms: C17_6  and  N20_7 
REMARK    3  A    between atoms: N12_12  and  C10_13 
REMARK    4  A    between atoms: C10_13  and  C9_14 
REMARK    5  A    between atoms: C9_14  and  C8_15 
REMARK    6  A    between atoms: C8_15  and  C7_16 
REMARK    7  A    between atoms: C7_16  and  C6_17 
REMARK    8  A    between atoms: C6_17  and  C5_18 
REMARK    9  A    between atoms: C5_18  and  C1_19 
REMARK       I    between atoms: C1_19  and  N3_21 
ROOT
HETATM    1  O23   D T 701      -4.248   4.309  -6.245  1.00 19.82    -0.266 OA
HETATM    2  C13   D T 701      -3.738   3.171  -6.455  1.00 19.55     0.275 C 
HETATM    3  N12   D T 701      -4.027   2.081  -5.727  1.00 19.95    -0.234 NA
ENDROOT
BRANCH   2   4
HETATM    4  C14   D T 701      -2.628   3.043  -7.449  1.00 17.56     0.058 A 
HETATM    5  C15   D T 701      -2.764   3.295  -8.807  1.00 18.38     0.006 A 
HETATM    6  C16   D T 701      -1.686   3.054  -9.667  1.00 18.81     0.017 A 
HETATM    7  C17   D T 701      -0.439   2.672  -9.179  1.00 20.59     0.056 A 
HETATM    8  C18   D T 701      -0.318   2.465  -7.810  1.00 18.24     0.017 A 
HETATM    9  C19   D T 701      -1.416   2.629  -6.988  1.00 17.45     0.006 A 
BRANCH   7  10
HETATM   10  N20   D T 701       0.599   2.363 -10.058  1.00 20.92    -0.344 N 
HETATM   11  C22   D T 701       1.697   1.500  -9.630  1.00 23.07     0.126 C 
HETATM   12  C21   D T 701       0.779   3.087 -11.311  1.00 21.40     0.126 C 
ENDBRANCH   7  10
ENDBRANCH   2   4
BRANCH   3  13
HETATM   13  C10   D T 701      -4.970   2.137  -4.606  1.00 21.02     0.129 C 
BRANCH  13  14
HETATM   14  C9    D T 701      -6.096   1.091  -4.802  1.00 19.12     0.026 C 
BRANCH  14  15
HETATM   15  C8    D T 701      -6.209   0.067  -3.638  1.00 19.24     0.002 C 
BRANCH  15  16
HETATM   16  C7    D T 701      -5.314   0.381  -2.453  1.00 17.46     0.001 C 
BRANCH  16  17
HETATM   17  C6    D T 701      -4.336  -0.711  -2.023  1.00 16.75     0.010 C 
BRANCH  17  18
HETATM   18  C5    D T 701      -3.134  -0.719  -2.979  1.00 15.35     0.092 C 
BRANCH  18  19
HETATM   19  C1    D T 701      -2.130   0.343  -2.562  1.00 16.38     0.281 C 
HETATM   20  O2    D T 701      -1.901   0.745  -1.374  1.00 15.69    -0.268 OA
HETATM   21  N3    D T 701      -1.497   0.885  -3.575  1.00 16.86    -0.058 NA
HETATM   22  O4    D T 701      -0.562   1.864  -3.325  1.00 14.83    -0.058 OA
ENDBRANCH  18  19
ENDBRANCH  17  18
ENDBRANCH  16  17
ENDBRANCH  15  16
ENDBRANCH  14  15
ENDBRANCH  13  14
ENDBRANCH   3  13
TORSDOF 9
ENDMDL
MODEL 3
REMARK VINA RESULT:    -6.254      5.757      8.034
REMARK INTER + INTRA:         -10.418
REMARK INTER:                  -9.728
REMARK INTRA:                  -0.690
REMARK UNBOUND:                -0.874
REMARK  9 active torsions:
REMARK  status: ('A' for Active; 'I' for Inactive)
REMARK    1  A    between atoms: C13_2  and  C14_3 
REMARK       I    between atoms: C13_2  and  N12_12 
REMARK    2  A    between atoms: C17_6  and  N20_7 
REMARK    3  A    between atoms: N12_12  and  C10_13 
REMARK    4  A    between atoms: C10_13  and  C9_14 
REMARK    5  A    between atoms: C9_14  and  C8_15 
REMARK    6  A    between atoms: C8_15  and  C7_16 
REMARK    7  A    between atoms: C7_16  and  C6_17 
REMARK    8  A    between atoms: C6_17  and  C5_18 
REMARK    9  A    between atoms: C5_18  and  C1_19 
REMARK       I    between atoms: C1_19  and  N3_21 
ROOT
HETATM    1  O23   D T 701      -6.461   4.613  -7.700  1.00 19.82    -0.266 OA
HETATM    2  C13   D T 701      -5.428   4.923  -8.361  1.00 19.55     0.275 C 
HETATM    3  N12   D T 701      -5.457   5.661  -9.482  1.00 19.95    -0.234 NA
ENDROOT
BRANCH   2   4
HETATM    4  C14   D T 701      -4.116   4.307  -7.993  1.00 17.56     0.058 A 
HETATM    5  C15   D T 701      -3.319   3.588  -8.873  1.00 18.38     0.006 A 
HETATM    6  C16   D T 701      -2.154   2.970  -8.405  1.00 18.81     0.017 A 
HETATM    7  C17   D T 701      -1.711   3.152  -7.097  1.00 20.59     0.056 A 
HETATM    8  C18   D T 701      -2.507   3.910  -6.247  1.00 18.24     0.017 A 
HETATM    9  C19   D T 701      -3.695   4.443  -6.706  1.00 17.45     0.006 A 
BRANCH   7  10
HETATM   10  N20   D T 701      -0.589   2.468  -6.629  1.00 20.92    -0.344 N 
HETATM   11  C22   D T 701       0.001   2.813  -5.339  1.00 23.07     0.126 C 
HETATM   12  C21   D T 701       0.191   1.594  -7.499  1.00 21.40     0.126 C 
ENDBRANCH   7  10
ENDBRANCH   2   4
BRANCH   3  13
HETATM   13  C10   D T 701      -6.718   6.166 -10.034  1.00 21.02     0.129 C 
BRANCH  13  14
HETATM   14  C9    D T 701      -6.668   6.150 -11.582  1.00 19.12     0.026 C 
BRANCH  14  15
HETATM   15  C8    D T 701      -6.682   7.565 -12.224  1.00 19.24     0.002 C 
BRANCH  15  16
HETATM   16  C7    D T 701      -7.945   7.873 -13.007  1.00 17.46     0.001 C 
BRANCH  16  17
HETATM   17  C6    D T 701      -9.106   6.892 -12.850  1.00 16.75     0.010 C 
BRANCH  17  18
HETATM   18  C5    D T 701     -10.149   7.488 -11.894  1.00 15.35     0.092 C 
BRANCH  18  19
HETATM   19  C1    D T 701     -10.745   6.393 -11.025  1.00 16.38     0.281 C 
HETATM   20  O2    D T 701     -11.758   6.501 -10.258  1.00 15.69    -0.268 OA
HETATM   21  N3    D T 701     -10.084   5.263 -11.088  1.00 16.86    -0.058 NA
HETATM   22  O4    D T 701     -10.526   4.194 -10.340  1.00 14.83    -0.058 OA
ENDBRANCH  18  19
ENDBRANCH  17  18
ENDBRANCH  16  17
ENDBRANCH  15  16
ENDBRANCH  14  15
ENDBRANCH  13  14
ENDBRANCH   3  13
TORSDOF 9
ENDMDL
MODEL 4
REMARK VINA RESULT:    -6.223      4.281      5.795
REMARK INTER + INTRA:         -10.371
REMARK INTER:                  -9.365
REMARK INTRA:                  -1.006
REMARK UNBOUND:                -0.874
REMARK  9 active torsions:
REMARK  status: ('A' for Active; 'I' for Inactive)
REMARK    1  A    between atoms: C13_2  and  C14_3 
REMARK       I    between atoms: C13_2  and  N12_12 
REMARK    2  A    between atoms: C17_6  and  N20_7 
REMARK    3  A    between atoms: N12_12  and  C10_13 
REMARK    4  A    between atoms: C10_13  and  C9_14 
REMARK    5  A    between atoms: C9_14  and  C8_15 
REMARK    6  A    between atoms: C8_15  and  C7_16 
REMARK    7  A    between atoms: C7_16  and  C6_17 
REMARK    8  A    between atoms: C6_17  and  C5_18 
REMARK    9  A    between atoms: C5_18  and  C1_19 
REMARK       I    between atoms: C1_19  and  N3_21 
ROOT
HETATM    1  O23   D T 701      -5.165   2.478  -7.387  1.00 19.82    -0.266 OA
HETATM    2  C13   D T 701      -4.176   3.194  -7.057  1.00 19.55     0.275 C 
HETATM    3  N12   D T 701      -4.246   4.187  -6.157  1.00 19.95    -0.234 NA
ENDROOT
BRANCH   2   4
HETATM    4  C14   D T 701      -2.895   3.062  -7.816  1.00 17.56     0.058 A 
HETATM    5  C15   D T 701      -2.767   3.307  -9.177  1.00 18.38     0.006 A 
HETATM    6  C16   D T 701      -1.544   3.062  -9.812  1.00 18.81     0.017 A 
HETATM    7  C17   D T 701      -0.414   2.684  -9.090  1.00 20.59     0.056 A 
HETATM    8  C18   D T 701      -0.559   2.485  -7.723  1.00 18.24     0.017 A 
HETATM    9  C19   D T 701      -1.794   2.653  -7.129  1.00 17.45     0.006 A 
BRANCH   7  10
HETATM   10  N20   D T 701       0.774   2.372  -9.751  1.00 20.92    -0.344 N 
HETATM   11  C22   D T 701       1.062   2.947 -11.062  1.00 23.07     0.126 C 
HETATM   12  C21   D T 701       1.629   1.276  -9.309  1.00 21.40     0.126 C 
ENDBRANCH   7  10
ENDBRANCH   2   4
BRANCH   3  13
HETATM   13  C10   D T 701      -5.504   4.523  -5.483  1.00 21.02     0.129 C 
BRANCH  13  14
HETATM   14  C9    D T 701      -6.063   5.860  -6.028  1.00 19.12     0.026 C 
BRANCH  14  15
HETATM   15  C8    D T 701      -7.024   5.691  -7.238  1.00 19.24     0.002 C 
BRANCH  15  16
HETATM   16  C7    D T 701      -6.501   6.297  -8.528  1.00 17.46     0.001 C 
BRANCH  16  17
HETATM   17  C6    D T 701      -5.725   5.365  -9.458  1.00 16.75     0.010 C 
BRANCH  17  18
HETATM   18  C5    D T 701      -5.428   6.096 -10.776  1.00 15.35     0.092 C 
BRANCH  18  19
HETATM   19  C1    D T 701      -6.723   6.365 -11.525  1.00 16.38     0.281 C 
HETATM   20  O2    D T 701      -7.731   5.587 -11.601  1.00 15.69    -0.268 OA
HETATM   21  N3    D T 701      -6.725   7.509 -12.165  1.00 16.86    -0.058 NA
HETATM   22  O4    D T 701      -7.843   7.864 -12.885  1.00 14.83    -0.058 OA
ENDBRANCH  18  19
ENDBRANCH  17  18
ENDBRANCH  16  17
ENDBRANCH  15  16
ENDBRANCH  14  15
ENDBRANCH  13  14
ENDBRANCH   3  13
TORSDOF 9
ENDMDL
MODEL 5
REMARK VINA RESULT:    -6.203      5.228      7.801
REMARK INTER + INTRA:         -10.341
REMARK INTER:                  -9.701
REMARK INTRA:                  -0.640
REMARK UNBOUND:                -0.874
REMARK  9 active torsions:
REMARK  status: ('A' for Active; 'I' for Inactive)
REMARK    1  A    between atoms: C13_2  and  C14_3 
REMARK       I    between atoms: C13_2  and  N12_12 
REMARK    2  A    between atoms: C17_6  and  N20_7 
REMARK    3  A    between atoms: N12_12  and  C10_13 
REMARK    4  A    between atoms: C10_13  and  C9_14 
REMARK    5  A    between atoms: C9_14  and  C8_15 
REMARK    6  A    between atoms: C8_15  and  C7_16 
REMARK    7  A    between atoms: C7_16  and  C6_17 
REMARK    8  A    between atoms: C6_17  and  C5_18 
REMARK    9  A    between atoms: C5_18  and  C1_19 
REMARK       I    between atoms: C1_19  and  N3_21 
ROOT
HETATM    1  O23   D T 701      -5.337   6.479  -7.260  1.00 19.82    -0.266 OA
HETATM    2  C13   D T 701      -5.762   5.534  -7.986  1.00 19.55     0.275 C 
HETATM    3  N12   D T 701      -5.489   4.240  -7.757  1.00 19.95    -0.234 NA
ENDROOT
BRANCH   2   4
HETATM    4  C14   D T 701      -6.463   5.859  -9.266  1.00 17.56     0.058 A 
HETATM    5  C15   D T 701      -5.823   6.006 -10.489  1.00 18.38     0.006 A 
HETATM    6  C16   D T 701      -6.559   6.404 -11.612  1.00 18.81     0.017 A 
HETATM    7  C17   D T 701      -7.944   6.550 -11.559  1.00 20.59     0.056 A 
HETATM    8  C18   D T 701      -8.565   6.358 -10.331  1.00 18.24     0.017 A 
HETATM    9  C19   D T 701      -7.810   6.045  -9.217  1.00 17.45     0.006 A 
BRANCH   7  10
HETATM   10  N20   D T 701      -8.647   7.021 -12.667  1.00 20.92    -0.344 N 
HETATM   11  C22   D T 701      -9.942   6.444 -13.018  1.00 23.07     0.126 C 
HETATM   12  C21   D T 701      -8.020   7.888 -13.658  1.00 21.40     0.126 C 
ENDBRANCH   7  10
ENDBRANCH   2   4
BRANCH   3  13
HETATM   13  C10   D T 701      -4.654   3.822  -6.628  1.00 21.02     0.129 C 
BRANCH  13  14
HETATM   14  C9    D T 701      -3.685   2.695  -7.066  1.00 19.12     0.026 C 
BRANCH  14  15
HETATM   15  C8    D T 701      -2.792   3.074  -8.280  1.00 19.24     0.002 C 
BRANCH  15  16
HETATM   16  C7    D T 701      -1.303   3.003  -7.994  1.00 17.46     0.001 C 
BRANCH  16  17
HETATM   17  C6    D T 701      -0.880   3.103  -6.530  1.00 16.75     0.010 C 
BRANCH  17  18
HETATM   18  C5    D T 701      -0.025   1.881  -6.164  1.00 15.35     0.092 C 
BRANCH  18  19
HETATM   19  C1    D T 701      -0.370   1.406  -4.762  1.00 16.38     0.281 C 
HETATM   20  O2    D T 701       0.417   1.370  -3.759  1.00 15.69    -0.268 OA
HETATM   21  N3    D T 701      -1.600   0.968  -4.650  1.00 16.86    -0.058 NA
HETATM   22  O4    D T 701      -2.030   0.506  -3.426  1.00 14.83    -0.058 OA
ENDBRANCH  18  19
ENDBRANCH  17  18
ENDBRANCH  16  17
ENDBRANCH  15  16
ENDBRANCH  14  15
ENDBRANCH  13  14
ENDBRANCH   3  13
TORSDOF 9
ENDMDL
MODEL 6
REMARK VINA RESULT:    -6.137      2.470      3.849
REMARK INTER + INTRA:         -10.240
REMARK INTER:                  -8.807
REMARK INTRA:                  -1.432
REMARK UNBOUND:                -0.874
REMARK  9 active torsions:
REMARK  status: ('A' for Active; 'I' for Inactive)
REMARK    1  A    between atoms: C13_2  and  C14_3 
REMARK       I    between atoms: C13_2  and  N12_12 
REMARK    2  A    between atoms: C17_6  and  N20_7 
REMARK    3  A    between atoms: N12_12  and  C10_13 
REMARK    4  A    between atoms: C10_13  and  C9_14 
REMARK    5  A    between atoms: C9_14  and  C8_15 
REMARK    6  A    between atoms: C8_15  and  C7_16 
REMARK    7  A    between atoms: C7_16  and  C6_17 
REMARK    8  A    between atoms: C6_17  and  C5_18 
REMARK    9  A    between atoms: C5_18  and  C1_19 
REMARK       I    between atoms: C1_19  and  N3_21 
ROOT
HETATM    1  O23   D T 701      -0.314   1.759  -6.897  1.00 19.82    -0.266 OA
HETATM    2  C13   D T 701      -0.908   2.584  -6.144  1.00 19.55     0.275 C 
HETATM    3  N12   D T 701      -0.653   2.711  -4.833  1.00 19.95    -0.234 NA
ENDROOT
BRANCH   2   4
HETATM    4  C14   D T 701      -2.077   3.348  -6.681  1.00 17.56     0.058 A 
HETATM    5  C15   D T 701      -2.728   4.362  -5.992  1.00 18.38     0.006 A 
HETATM    6  C16   D T 701      -3.872   4.950  -6.544  1.00 18.81     0.017 A 
HETATM    7  C17   D T 701      -4.312   4.621  -7.824  1.00 20.59     0.056 A 
HETATM    8  C18   D T 701      -3.618   3.631  -8.509  1.00 18.24     0.017 A 
HETATM    9  C19   D T 701      -2.541   3.005  -7.913  1.00 17.45     0.006 A 
BRANCH   7  10
HETATM   10  N20   D T 701      -5.496   5.162  -8.325  1.00 20.92    -0.344 N 
HETATM   11  C22   D T 701      -6.709   5.163  -7.511  1.00 23.07     0.126 C 
HETATM   12  C21   D T 701      -5.649   5.489  -9.738  1.00 21.40     0.126 C 
ENDBRANCH   7  10
ENDBRANCH   2   4
BRANCH   3  13
HETATM   13  C10   D T 701       0.351   1.879  -4.163  1.00 21.02     0.129 C 
BRANCH  13  14
HETATM   14  C9    D T 701      -0.288   1.125  -2.971  1.00 19.12     0.026 C 
BRANCH  14  15
HETATM   15  C8    D T 701      -1.795   1.443  -2.763  1.00 19.24     0.002 C 
BRANCH  15  16
HETATM   16  C7    D T 701      -2.685   0.213  -2.740  1.00 17.46     0.001 C 
BRANCH  16  17
HETATM   17  C6    D T 701      -4.141   0.412  -3.160  1.00 16.75     0.010 C 
BRANCH  17  18
HETATM   18  C5    D T 701      -4.190   1.286  -4.421  1.00 15.35     0.092 C 
BRANCH  18  19
HETATM   19  C1    D T 701      -5.581   1.242  -5.032  1.00 16.38     0.281 C 
HETATM   20  O2    D T 701      -6.635   0.779  -4.483  1.00 15.69    -0.268 OA
HETATM   21  N3    D T 701      -5.626   1.705  -6.257  1.00 16.86    -0.058 NA
HETATM   22  O4    D T 701      -6.833   1.714  -6.919  1.00 14.83    -0.058 OA
ENDBRANCH  18  19
ENDBRANCH  17  18
ENDBRANCH  16  17
ENDBRANCH  15  16
ENDBRANCH  14  15
ENDBRANCH  13  14
ENDBRANCH   3  13
TORSDOF 9
ENDMDL
MODEL 7
REMARK VINA RESULT:    -6.133      5.174      7.273
REMARK INTER + INTRA:         -10.233
REMARK INTER:                  -9.582
REMARK INTRA:                  -0.651
REMARK UNBOUND:                -0.874
REMARK  9 active torsions:
REMARK  status: ('A' for Active; 'I' for Inactive)
REMARK    1  A    between atoms: C13_2  and  C14_3 
REMARK       I    between atoms: C13_2  and  N12_12 
REMARK    2  A    between atoms: C17_6  and  N20_7 
REMARK    3  A    between atoms: N12_12  and  C10_13 
REMARK    4  A    between atoms: C10_13  and  C9_14 
REMARK    5  A    between atoms: C9_14  and  C8_15 
REMARK    6  A    between atoms: C8_15  and  C7_16 
REMARK    7  A    between atoms: C7_16  and  C6_17 
REMARK    8  A    between atoms: C6_17  and  C5_18 
REMARK    9  A    between atoms: C5_18  and  C1_19 
REMARK       I    between atoms: C1_19  and  N3_21 
ROOT
HETATM    1  O23   D T 701      -7.321   1.052  -6.253  1.00 19.82    -0.266 OA
HETATM    2  C13   D T 701      -6.881   2.236  -6.315  1.00 19.55     0.275 C 
HETATM    3  N12   D T 701      -7.665   3.324  -6.263  1.00 19.95    -0.234 NA
ENDROOT
BRANCH   2   4
HETATM    4  C14   D T 701      -5.437   2.460  -6.634  1.00 17.56     0.058 A 
HETATM    5  C15   D T 701      -4.973   2.928  -7.856  1.00 18.38     0.006 A 
HETATM    6  C16   D T 701      -3.595   3.013  -8.086  1.00 18.81     0.017 A 
HETATM    7  C17   D T 701      -2.672   2.745  -7.078  1.00 20.59     0.056 A 
HETATM    8  C18   D T 701      -3.164   2.317  -5.851  1.00 18.24     0.017 A 
HETATM    9  C19   D T 701      -4.524   2.161  -5.670  1.00 17.45     0.006 A 
BRANCH   7  10
HETATM   10  N20   D T 701      -1.304   2.762  -7.349  1.00 20.92    -0.344 N 
HETATM   11  C22   D T 701      -0.342   3.015  -6.280  1.00 23.07     0.126 C 
HETATM   12  C21   D T 701      -0.797   2.805  -8.716  1.00 21.40     0.126 C 
ENDBRANCH   7  10
ENDBRANCH   2   4
BRANCH   3  13
HETATM   13  C10   D T 701      -9.121   3.214  -6.134  1.00 21.02     0.129 C 
BRANCH  13  14
HETATM   14  C9    D T 701      -9.816   3.834  -7.371  1.00 19.12     0.026 C 
BRANCH  14  15
HETATM   15  C8    D T 701     -11.368   3.820  -7.290  1.00 19.24     0.002 C 
BRANCH  15  16
HETATM   16  C7    D T 701     -11.954   4.983  -6.510  1.00 17.46     0.001 C 
BRANCH  16  17
HETATM   17  C6    D T 701     -11.441   6.377  -6.869  1.00 16.75     0.010 C 
BRANCH  17  18
HETATM   18  C5    D T 701     -12.145   6.865  -8.143  1.00 15.35     0.092 C 
BRANCH  18  19
HETATM   19  C1    D T 701     -11.129   7.058  -9.257  1.00 16.38     0.281 C 
HETATM   20  O2    D T 701      -9.861   6.982  -9.149  1.00 15.69    -0.268 OA
HETATM   21  N3    D T 701     -11.674   7.368 -10.409  1.00 16.86    -0.058 NA
HETATM   22  O4    D T 701     -10.855   7.572 -11.497  1.00 14.83    -0.058 OA
ENDBRANCH  18  19
ENDBRANCH  17  18
ENDBRANCH  16  17
ENDBRANCH  15  16
ENDBRANCH  14  15
ENDBRANCH  13  14
ENDBRANCH   3  13
TORSDOF 9
ENDMDL
MODEL 8
REMARK VINA RESULT:    -6.077      3.683      4.930
REMARK INTER + INTRA:         -10.149
REMARK INTER:                  -9.662
REMARK INTRA:                  -0.486
REMARK UNBOUND:                -0.874
REMARK  9 active torsions:
REMARK  status: ('A' for Active; 'I' for Inactive)
REMARK    1  A    between atoms: C13_2  and  C14_3 
REMARK       I    between atoms: C13_2  and  N12_12 
REMARK    2  A    between atoms: C17_6  and  N20_7 
REMARK    3  A    between atoms: N12_12  and  C10_13 
REMARK    4  A    between atoms: C10_13  and  C9_14 
REMARK    5  A    between atoms: C9_14  and  C8_15 
REMARK    6  A    between atoms: C8_15  and  C7_16 
REMARK    7  A    between atoms: C7_16  and  C6_17 
REMARK    8  A    between atoms: C6_17  and  C5_18 
REMARK    9  A    between atoms: C5_18  and  C1_19 
REMARK       I    between atoms: C1_19  and  N3_21 
ROOT
HETATM    1  O23   D T 701      -3.257   3.264  -5.292  1.00 19.82    -0.266 OA
HETATM    2  C13   D T 701      -3.600   2.793  -6.414  1.00 19.55     0.275 C 
HETATM    3  N12   D T 701      -4.708   2.062  -6.606  1.00 19.95    -0.234 NA
ENDROOT
BRANCH   2   4
HETATM    4  C14   D T 701      -2.652   2.896  -7.567  1.00 17.56     0.058 A 
HETATM    5  C15   D T 701      -3.022   3.278  -8.848  1.00 18.38     0.006 A 
HETATM    6  C16   D T 701      -2.076   3.252  -9.879  1.00 18.81     0.017 A 
HETATM    7  C17   D T 701      -0.737   2.957  -9.629  1.00 20.59     0.056 A 
HETATM    8  C18   D T 701      -0.385   2.617  -8.329  1.00 18.24     0.017 A 
HETATM    9  C19   D T 701      -1.350   2.570  -7.342  1.00 17.45     0.006 A 
BRANCH   7  10
HETATM   10  N20   D T 701       0.173   2.862 -10.681  1.00 20.92    -0.344 N 
HETATM   11  C22   D T 701      -0.010   3.659 -11.891  1.00 23.07     0.126 C 
HETATM   12  C21   D T 701       1.164   1.792 -10.740  1.00 21.40     0.126 C 
ENDBRANCH   7  10
ENDBRANCH   2   4
BRANCH   3  13
HETATM   13  C10   D T 701      -5.618   1.745  -5.502  1.00 21.02     0.129 C 
BRANCH  13  14
HETATM   14  C9    D T 701      -7.044   1.477  -6.043  1.00 19.12     0.026 C 
BRANCH  14  15
HETATM   15  C8    D T 701      -7.737   2.737  -6.634  1.00 19.24     0.002 C 
BRANCH  15  16
HETATM   16  C7    D T 701      -9.079   3.056  -6.001  1.00 17.46     0.001 C 
BRANCH  16  17
HETATM   17  C6    D T 701     -10.121   3.721  -6.899  1.00 16.75     0.010 C 
BRANCH  17  18
HETATM   18  C5    D T 701      -9.427   4.288  -8.146  1.00 15.35     0.092 C 
BRANCH  18  19
HETATM   19  C1    D T 701     -10.445   4.979  -9.039  1.00 16.38     0.281 C 
HETATM   20  O2    D T 701     -10.375   6.171  -9.489  1.00 15.69    -0.268 OA
HETATM   21  N3    D T 701     -11.493   4.236  -9.304  1.00 16.86    -0.058 NA
HETATM   22  O4    D T 701     -12.488   4.754 -10.101  1.00 14.83    -0.058 OA
ENDBRANCH  18  19
ENDBRANCH  17  18
ENDBRANCH  16  17
ENDBRANCH  15  16
ENDBRANCH  14  15
ENDBRANCH  13  14
ENDBRANCH   3  13
TORSDOF 9
ENDMDL
MODEL 9
REMARK VINA RESULT:    -6.036      1.487      2.129
REMARK INTER + INTRA:         -10.086
REMARK INTER:                  -9.055
REMARK INTRA:                  -1.031
REMARK UNBOUND:                -0.874
REMARK  9 active torsions:
REMARK  status: ('A' for Active; 'I' for Inactive)
REMARK    1  A    between atoms: C13_2  and  C14_3 
REMARK       I    between atoms: C13_2  and  N12_12 
REMARK    2  A    between atoms: C17_6  and  N20_7 
REMARK    3  A    between atoms: N12_12  and  C10_13 
REMARK    4  A    between atoms: C10_13  and  C9_14 
REMARK    5  A    between atoms: C9_14  and  C8_15 
REMARK    6  A    between atoms: C8_15  and  C7_16 
REMARK    7  A    between atoms: C7_16  and  C6_17 
REMARK    8  A    between atoms: C6_17  and  C5_18 
REMARK    9  A    between atoms: C5_18  and  C1_19 
REMARK       I    between atoms: C1_19  and  N3_21 
ROOT
HETATM    1  O23   D T 701      -2.281   3.905  -4.807  1.00 19.82    -0.266 OA
HETATM    2  C13   D T 701      -2.013   2.745  -5.234  1.00 19.55     0.275 C 
HETATM    3  N12   D T 701      -2.094   1.638  -4.480  1.00 19.95    -0.234 NA
ENDROOT
BRANCH   2   4
HETATM    4  C14   D T 701      -1.407   2.593  -6.594  1.00 17.56     0.058 A 
HETATM    5  C15   D T 701      -0.207   1.943  -6.843  1.00 18.38     0.006 A 
HETATM    6  C16   D T 701       0.320   1.938  -8.140  1.00 18.81     0.017 A 
HETATM    7  C17   D T 701      -0.386   2.474  -9.214  1.00 20.59     0.056 A 
HETATM    8  C18   D T 701      -1.605   3.084  -8.942  1.00 18.24     0.017 A 
HETATM    9  C19   D T 701      -2.069   3.151  -7.644  1.00 17.45     0.006 A 
BRANCH   7  10
HETATM   10  N20   D T 701       0.189   2.527 -10.483  1.00 20.92    -0.344 N 
HETATM   11  C22   D T 701      -0.201   3.570 -11.428  1.00 23.07     0.126 C 
HETATM   12  C21   D T 701       0.975   1.418 -11.012  1.00 21.40     0.126 C 
ENDBRANCH   7  10
ENDBRANCH   2   4
BRANCH   3  13
HETATM   13  C10   D T 701      -2.503   1.697  -3.074  1.00 21.02     0.129 C 
BRANCH  13  14
HETATM   14  C9    D T 701      -2.164   0.364  -2.362  1.00 19.12     0.026 C 
BRANCH  14  15
HETATM   15  C8    D T 701      -3.143  -0.795  -2.703  1.00 19.24     0.002 C 
BRANCH  15  16
HETATM   16  C7    D T 701      -4.587  -0.511  -2.329  1.00 17.46     0.001 C 
BRANCH  16  17
HETATM   17  C6    D T 701      -5.579  -0.369  -3.482  1.00 16.75     0.010 C 
BRANCH  17  18
HETATM   18  C5    D T 701      -6.263   1.003  -3.396  1.00 15.35     0.092 C 
BRANCH  18  19
HETATM   19  C1    D T 701      -5.826   1.876  -4.562  1.00 16.38     0.281 C 
HETATM   20  O2    D T 701      -5.395   1.472  -5.692  1.00 15.69    -0.268 OA
HETATM   21  N3    D T 701      -5.887   3.160  -4.301  1.00 16.86    -0.058 NA
HETATM   22  O4    D T 701      -5.512   4.053  -5.279  1.00 14.83    -0.058 OA
ENDBRANCH  18  19
ENDBRANCH  17  18
ENDBRANCH  16  17
ENDBRANCH  15  16
ENDBRANCH  14  15
ENDBRANCH  13  14
ENDBRANCH   3  13
TORSDOF 9
ENDMDL
