MODEL 1
REMARK VINA RESULT:    -7.197      0.000      0.000
REMARK INTER + INTRA:          -8.899
REMARK INTER:                  -8.460
REMARK INTRA:                  -0.439
REMARK UNBOUND:                -0.439
REMARK  7 active torsions:
REMARK  status: ('A' for Active; 'I' for Inactive)
REMARK    1  A    between atoms: S1@A_2  and  C5@A_7 
REMARK    2  A    between atoms: C2@A_17  and  N1@A_19 
REMARK    3  A    between atoms: C2@B_18  and  N1@B_20 
REMARK    4  A    between atoms: N1@A_19  and  C7@A_21 
REMARK    5  A    between atoms: N1@B_20  and  C7@B_22 
REMARK    6  A    between atoms: C12@A_37  and  C13@A_41 
REMARK    7  A    between atoms: C12@B_38  and  C13@B_42 
ROOT
HETATM    1  C7 B  D T1001      -7.402  -1.184 -10.850  0.30 60.59     0.150 A 
HETATM    2  C8 B  D T1001      -6.760  -1.137 -12.109  0.30 64.17     0.078 A 
HETATM    3  C9 B  D T1001      -6.133  -2.332 -12.567  0.30 52.45     0.053 A 
HETATM    4  C10B  D T1001      -5.433  -2.364 -13.912  0.30 62.21     0.071 C 
HETATM    5  N2 B  D T1001      -7.374  -2.358 -10.136  0.30 46.48    -0.041 N 
HETATM    6  C11B  D T1001      -6.788  -3.427 -10.591  0.30 46.47     0.753 A 
HETATM    7  N5 B  D T1001      -6.162  -3.442 -11.799  0.30 46.47    -0.066 NA
HETATM    8  N3 B  D T1001      -7.910  -2.653  -8.904  0.30 46.47    -0.134 NA
HETATM    9  C12B  D T1001      -7.641  -3.920  -8.596  0.30 46.47     0.177 A 
HETATM   10  N4 B  D T1001      -6.946  -4.433  -9.628  0.30 46.47    -0.043 NA
ENDROOT
BRANCH   1  11
HETATM   11  N1 B  D T1001      -8.066  -0.104 -10.222  0.30 52.78    -0.340 N 
HETATM   12  H5 B  D T1001      -8.829  -0.297  -9.760  0.30 63.34     0.167 HD
BRANCH  11  13
HETATM   13  C2 B  D T1001      -7.645   1.270 -10.245  0.30 46.96     0.033 A 
HETATM   14  C3 B  D T1001      -6.807   1.693  -9.198  0.30 46.47     0.030 A 
HETATM   15  C4 B  D T1001      -6.364   3.009  -9.166  0.30 46.47     0.014 A 
HETATM   16  C5 B  D T1001      -6.775   3.855 -10.185  0.30 51.11    -0.026 A 
HETATM   17  C6 B  D T1001      -7.606   3.455 -11.228  0.30 46.47     0.014 A 
HETATM   18  C1 B  D T1001      -8.049   2.140 -11.264  0.30 46.47     0.030 A 
ENDBRANCH  11  13
ENDBRANCH   1  11
BRANCH   9  19
HETATM   19  C13B  D T1001      -8.066  -4.647  -7.344  0.30 46.48     0.052 C 
HETATM   20  C14B  D T1001      -7.352  -5.976  -7.399  0.30 46.47     0.026 C 
ENDBRANCH   9  19
TORSDOF 7
ENDMDL
MODEL 2
REMARK VINA RESULT:    -7.159     12.031     14.611
REMARK INTER + INTRA:          -8.854
REMARK INTER:                  -8.534
REMARK INTRA:                  -0.320
REMARK UNBOUND:                -0.439
REMARK  7 active torsions:
REMARK  status: ('A' for Active; 'I' for Inactive)
REMARK    1  A    between atoms: S1@A_2  and  C5@A_7 
REMARK    2  A    between atoms: C2@A_17  and  N1@A_19 
REMARK    3  A    between atoms: C2@B_18  and  N1@B_20 
REMARK    4  A    between atoms: N1@A_19  and  C7@A_21 
REMARK    5  A    between atoms: N1@B_20  and  C7@B_22 
REMARK    6  A    between atoms: C12@A_37  and  C13@A_41 
REMARK    7  A    between atoms: C12@B_38  and  C13@B_42 
ROOT
HETATM    1  C7 B  D T1001       5.824  -0.035 -14.922  0.30 60.59     0.150 A 
HETATM    2  C8 B  D T1001       6.002   0.711 -13.733  0.30 64.17     0.078 A 
HETATM    3  C9 B  D T1001       4.885   0.817 -12.856  0.30 52.45     0.053 A 
HETATM    4  C10B  D T1001       5.001   1.591 -11.557  0.30 62.21     0.071 C 
HETATM    5  N2 B  D T1001       4.595  -0.596 -15.173  0.30 46.48    -0.041 N 
HETATM    6  C11B  D T1001       3.600  -0.473 -14.344  0.30 46.47     0.753 A 
HETATM    7  N5 B  D T1001       3.716   0.225 -13.182  0.30 46.47    -0.066 NA
HETATM    8  N3 B  D T1001       4.173  -1.350 -16.243  0.30 46.47    -0.134 NA
HETATM    9  C12B  D T1001       2.895  -1.686 -16.072  0.30 46.47     0.177 A 
HETATM   10  N4 B  D T1001       2.509  -1.159 -14.895  0.30 46.47    -0.043 NA
ENDROOT
BRANCH   1  11
HETATM   11  N1 B  D T1001       6.805  -0.244 -15.919  0.30 52.78    -0.340 N 
HETATM   12  H5 B  D T1001       6.694   0.196 -16.711  0.30 63.34     0.167 HD
BRANCH  11  13
HETATM   13  C2 B  D T1001       7.963  -1.087 -15.796  0.30 46.96     0.033 A 
HETATM   14  C3 B  D T1001       8.861  -0.781 -14.759  0.30 46.47     0.030 A 
HETATM   15  C4 B  D T1001       9.998  -1.560 -14.585  0.30 46.47     0.014 A 
HETATM   16  C5 B  D T1001      10.194  -2.619 -15.459  0.30 51.11    -0.026 A 
HETATM   17  C6 B  D T1001       9.318  -2.936 -16.493  0.30 46.47     0.014 A 
HETATM   18  C1 B  D T1001       8.180  -2.160 -16.666  0.30 46.47     0.030 A 
ENDBRANCH  11  13
ENDBRANCH   1  11
BRANCH   9  19
HETATM   19  C13B  D T1001       2.058  -2.527 -17.003  0.30 46.48     0.052 C 
HETATM   20  C14B  D T1001       0.656  -2.452 -16.447  0.30 46.47     0.026 C 
ENDBRANCH   9  19
TORSDOF 7
ENDMDL
MODEL 3
REMARK VINA RESULT:    -7.143     12.507     14.919
REMARK INTER + INTRA:          -8.835
REMARK INTER:                  -8.444
REMARK INTRA:                  -0.391
REMARK UNBOUND:                -0.439
REMARK  7 active torsions:
REMARK  status: ('A' for Active; 'I' for Inactive)
REMARK    1  A    between atoms: S1@A_2  and  C5@A_7 
REMARK    2  A    between atoms: C2@A_17  and  N1@A_19 
REMARK    3  A    between atoms: C2@B_18  and  N1@B_20 
REMARK    4  A    between atoms: N1@A_19  and  C7@A_21 
REMARK    5  A    between atoms: N1@B_20  and  C7@B_22 
REMARK    6  A    between atoms: C12@A_37  and  C13@A_41 
REMARK    7  A    between atoms: C12@B_38  and  C13@B_42 
ROOT
HETATM    1  C7 B  D T1001       5.669  -0.466 -16.111  0.30 60.59     0.150 A 
HETATM    2  C8 B  D T1001       4.820  -1.172 -16.995  0.30 64.17     0.078 A 
HETATM    3  C9 B  D T1001       3.480  -1.403 -16.569  0.30 52.45     0.053 A 
HETATM    4  C10B  D T1001       2.507  -2.144 -17.465  0.30 62.21     0.071 C 
HETATM    5  N2 B  D T1001       5.169  -0.059 -14.898  0.30 46.48    -0.041 N 
HETATM    6  C11B  D T1001       3.938  -0.292 -14.547  0.30 46.47     0.753 A 
HETATM    7  N5 B  D T1001       3.075  -0.960 -15.360  0.30 46.47    -0.066 NA
HETATM    8  N3 B  D T1001       5.784   0.627 -13.877  0.30 46.47    -0.134 NA
HETATM    9  C12B  D T1001       4.919   0.809 -12.881  0.30 46.47     0.177 A 
HETATM   10  N4 B  D T1001       3.757   0.252 -13.268  0.30 46.47    -0.043 NA
ENDROOT
BRANCH   1  11
HETATM   11  N1 B  D T1001       7.027  -0.151 -16.348  0.30 52.78    -0.340 N 
HETATM   12  H5 B  D T1001       7.200   0.559 -16.896  0.30 63.34     0.167 HD
BRANCH  11  13
HETATM   13  C2 B  D T1001       8.160  -0.847 -15.803  0.30 46.96     0.033 A 
HETATM   14  C3 B  D T1001       8.371  -2.162 -16.253  0.30 46.47     0.030 A 
HETATM   15  C4 B  D T1001       9.451  -2.887 -15.766  0.30 46.47     0.014 A 
HETATM   16  C5 B  D T1001      10.283  -2.268 -14.845  0.30 51.11    -0.026 A 
HETATM   17  C6 B  D T1001      10.088  -0.968 -14.386  0.30 46.47     0.014 A 
HETATM   18  C1 B  D T1001       9.011  -0.240 -14.874  0.30 46.47     0.030 A 
ENDBRANCH  11  13
ENDBRANCH   1  11
BRANCH   9  19
HETATM   19  C13B  D T1001       5.186   1.533 -11.584  0.30 46.48     0.052 C 
HETATM   20  C14B  D T1001       6.153   2.636 -11.941  0.30 46.47     0.026 C 
ENDBRANCH   9  19
TORSDOF 7
ENDMDL
MODEL 4
REMARK VINA RESULT:    -6.963     13.811     15.968
REMARK INTER + INTRA:          -8.624
REMARK INTER:                  -8.624
REMARK INTRA:                  -0.000
REMARK UNBOUND:                -0.439
REMARK  7 active torsions:
REMARK  status: ('A' for Active; 'I' for Inactive)
REMARK    1  A    between atoms: S1@A_2  and  C5@A_7 
REMARK    2  A    between atoms: C2@A_17  and  N1@A_19 
REMARK    3  A    between atoms: C2@B_18  and  N1@B_20 
REMARK    4  A    between atoms: N1@A_19  and  C7@A_21 
REMARK    5  A    between atoms: N1@B_20  and  C7@B_22 
REMARK    6  A    between atoms: C12@A_37  and  C13@A_41 
REMARK    7  A    between atoms: C12@B_38  and  C13@B_42 
ROOT
HETATM    1  C7 B  D T1001       7.462   1.590 -14.315  0.30 60.59     0.150 A 
HETATM    2  C8 B  D T1001       7.949   2.917 -14.372  0.30 64.17     0.078 A 
HETATM    3  C9 B  D T1001       9.245   3.113 -14.932  0.30 52.45     0.053 A 
HETATM    4  C10B  D T1001       9.831   4.507 -15.038  0.30 62.21     0.071 C 
HETATM    5  N2 B  D T1001       8.260   0.572 -14.779  0.30 46.48    -0.041 N 
HETATM    6  C11B  D T1001       9.439   0.795 -15.282  0.30 46.47     0.753 A 
HETATM    7  N5 B  D T1001       9.954   2.051 -15.370  0.30 46.47    -0.066 NA
HETATM    8  N3 B  D T1001       8.021  -0.782 -14.827  0.30 46.47    -0.134 NA
HETATM    9  C12B  D T1001       9.075  -1.399 -15.359  0.30 46.47     0.177 A 
HETATM   10  N4 B  D T1001       9.975  -0.444 -15.658  0.30 46.47    -0.043 NA
ENDROOT
BRANCH   1  11
HETATM   11  N1 B  D T1001       6.211   1.193 -13.787  0.30 52.78    -0.340 N 
HETATM   12  H5 B  D T1001       5.991   1.506 -12.959  0.30 63.34     0.167 HD
BRANCH  11  13
HETATM   13  C2 B  D T1001       5.255   0.341 -14.439  0.30 46.96     0.033 A 
HETATM   14  C3 B  D T1001       4.635  -0.638 -13.644  0.30 46.47     0.030 A 
HETATM   15  C4 B  D T1001       3.698  -1.491 -14.214  0.30 46.47     0.014 A 
HETATM   16  C5 B  D T1001       3.416  -1.331 -15.563  0.30 51.11    -0.026 A 
HETATM   17  C6 B  D T1001       4.022  -0.369 -16.367  0.30 46.47     0.014 A 
HETATM   18  C1 B  D T1001       4.956   0.486 -15.798  0.30 46.47     0.030 A 
ENDBRANCH  11  13
ENDBRANCH   1  11
BRANCH   9  19
HETATM   19  C13B  D T1001       9.214  -2.880 -15.609  0.30 46.48     0.052 C 
HETATM   20  C14B  D T1001       8.873  -3.067 -17.068  0.30 46.47     0.026 C 
ENDBRANCH   9  19
TORSDOF 7
ENDMDL
MODEL 5
REMARK VINA RESULT:    -6.394      2.088      4.707
REMARK INTER + INTRA:          -7.955
REMARK INTER:                  -7.991
REMARK INTRA:                   0.037
REMARK UNBOUND:                -0.439
REMARK  7 active torsions:
REMARK  status: ('A' for Active; 'I' for Inactive)
REMARK    1  A    between atoms: S1@A_2  and  C5@A_7 
REMARK    2  A    between atoms: C2@A_17  and  N1@A_19 
REMARK    3  A    between atoms: C2@B_18  and  N1@B_20 
REMARK    4  A    between atoms: N1@A_19  and  C7@A_21 
REMARK    5  A    between atoms: N1@B_20  and  C7@B_22 
REMARK    6  A    between atoms: C12@A_37  and  C13@A_41 
REMARK    7  A    between atoms: C12@B_38  and  C13@B_42 
ROOT
HETATM    1  C7 B  D T1001      -7.241  -3.092 -10.310  0.30 60.59     0.150 A 
HETATM    2  C8 B  D T1001      -7.431  -1.696 -10.186  0.30 64.17     0.078 A 
HETATM    3  C9 B  D T1001      -7.849  -1.204  -8.916  0.30 52.45     0.053 A 
HETATM    4  C10B  D T1001      -8.063   0.281  -8.702  0.30 62.21     0.071 C 
HETATM    5  N2 B  D T1001      -7.482  -3.892  -9.219  0.30 46.48    -0.041 N 
HETATM    6  C11B  D T1001      -7.864  -3.401  -8.076  0.30 46.47     0.753 A 
HETATM    7  N5 B  D T1001      -8.054  -2.066  -7.897  0.30 46.47    -0.066 NA
HETATM    8  N3 B  D T1001      -7.377  -5.257  -9.087  0.30 46.47    -0.134 NA
HETATM    9  C12B  D T1001      -7.710  -5.609  -7.846  0.30 46.47     0.177 A 
HETATM   10  N4 B  D T1001      -8.014  -4.476  -7.188  0.30 46.47    -0.043 NA
ENDROOT
BRANCH   1  11
HETATM   11  N1 B  D T1001      -6.843  -3.769 -11.486  0.30 52.78    -0.340 N 
HETATM   12  H5 B  D T1001      -7.162  -4.615 -11.608  0.30 63.34     0.167 HD
BRANCH  11  13
HETATM   13  C2 B  D T1001      -5.981  -3.242 -12.509  0.30 46.96     0.033 A 
HETATM   14  C3 B  D T1001      -5.075  -4.142 -13.098  0.30 46.47     0.030 A 
HETATM   15  C4 B  D T1001      -4.218  -3.694 -14.095  0.30 46.47     0.014 A 
HETATM   16  C5 B  D T1001      -4.299  -2.361 -14.467  0.30 51.11    -0.026 A 
HETATM   17  C6 B  D T1001      -5.187  -1.455 -13.894  0.30 46.47     0.014 A 
HETATM   18  C1 B  D T1001      -6.047  -1.900 -12.899  0.30 46.47     0.030 A 
ENDBRANCH  11  13
ENDBRANCH   1  11
BRANCH   9  19
HETATM   19  C13B  D T1001      -7.709  -7.008  -7.282  0.30 46.48     0.052 C 
HETATM   20  C14B  D T1001      -7.846  -7.916  -8.480  0.30 46.47     0.026 C 
ENDBRANCH   9  19
TORSDOF 7
ENDMDL
MODEL 6
REMARK VINA RESULT:    -6.337     14.209     16.476
REMARK INTER + INTRA:          -7.888
REMARK INTER:                  -7.479
REMARK INTRA:                  -0.409
REMARK UNBOUND:                -0.439
REMARK  7 active torsions:
REMARK  status: ('A' for Active; 'I' for Inactive)
REMARK    1  A    between atoms: S1@A_2  and  C5@A_7 
REMARK    2  A    between atoms: C2@A_17  and  N1@A_19 
REMARK    3  A    between atoms: C2@B_18  and  N1@B_20 
REMARK    4  A    between atoms: N1@A_19  and  C7@A_21 
REMARK    5  A    between atoms: N1@B_20  and  C7@B_22 
REMARK    6  A    between atoms: C12@A_37  and  C13@A_41 
REMARK    7  A    between atoms: C12@B_38  and  C13@B_42 
ROOT
HETATM    1  C7 B  D T1001       7.711   0.563 -14.791  0.30 60.59     0.150 A 
HETATM    2  C8 B  D T1001       8.052  -0.799 -14.958  0.30 64.17     0.078 A 
HETATM    3  C9 B  D T1001       9.428  -1.107 -15.165  0.30 52.45     0.053 A 
HETATM    4  C10B  D T1001       9.874  -2.545 -15.342  0.30 62.21     0.071 C 
HETATM    5  N2 B  D T1001       8.707   1.507 -14.853  0.30 46.48    -0.041 N 
HETATM    6  C11B  D T1001       9.952   1.183 -15.045  0.30 46.47     0.753 A 
HETATM    7  N5 B  D T1001      10.340  -0.112 -15.204  0.30 46.47    -0.066 NA
HETATM    8  N3 B  D T1001       8.633   2.875 -14.729  0.30 46.47    -0.134 NA
HETATM    9  C12B  D T1001       9.852   3.398 -14.857  0.30 46.47     0.177 A 
HETATM   10  N4 B  D T1001      10.698   2.370 -15.051  0.30 46.47    -0.043 NA
ENDROOT
BRANCH   1  11
HETATM   11  N1 B  D T1001       6.404   1.066 -14.587  0.30 52.78    -0.340 N 
HETATM   12  H5 B  D T1001       6.315   1.971 -14.506  0.30 63.34     0.167 HD
BRANCH  11  13
HETATM   13  C2 B  D T1001       5.204   0.281 -14.499  0.30 46.96     0.033 A 
HETATM   14  C3 B  D T1001       4.642  -0.154 -15.712  0.30 46.47     0.030 A 
HETATM   15  C4 B  D T1001       3.483  -0.920 -15.693  0.30 46.47     0.014 A 
HETATM   16  C5 B  D T1001       2.929  -1.224 -14.458  0.30 51.11    -0.026 A 
HETATM   17  C6 B  D T1001       3.470  -0.800 -13.247  0.30 46.47     0.014 A 
HETATM   18  C1 B  D T1001       4.630  -0.037 -13.264  0.30 46.47     0.030 A 
ENDBRANCH  11  13
ENDBRANCH   1  11
BRANCH   9  19
HETATM   19  C13B  D T1001      10.213   4.860 -14.766  0.30 46.48     0.052 C 
HETATM   20  C14B  D T1001       9.350   5.544 -15.799  0.30 46.47     0.026 C 
ENDBRANCH   9  19
TORSDOF 7
ENDMDL
MODEL 7
REMARK VINA RESULT:    -6.256      1.416      4.703
REMARK INTER + INTRA:          -7.792
REMARK INTER:                  -7.418
REMARK INTRA:                  -0.374
REMARK UNBOUND:                -0.439
REMARK  7 active torsions:
REMARK  status: ('A' for Active; 'I' for Inactive)
REMARK    1  A    between atoms: S1@A_2  and  C5@A_7 
REMARK    2  A    between atoms: C2@A_17  and  N1@A_19 
REMARK    3  A    between atoms: C2@B_18  and  N1@B_20 
REMARK    4  A    between atoms: N1@A_19  and  C7@A_21 
REMARK    5  A    between atoms: N1@B_20  and  C7@B_22 
REMARK    6  A    between atoms: C12@A_37  and  C13@A_41 
REMARK    7  A    between atoms: C12@B_38  and  C13@B_42 
ROOT
HETATM    1  C7 B  D T1001      -7.189  -1.361 -11.413  0.30 60.59     0.150 A 
HETATM    2  C8 B  D T1001      -7.100   0.002 -11.047  0.30 64.17     0.078 A 
HETATM    3  C9 B  D T1001      -7.283   0.322  -9.671  0.30 52.45     0.053 A 
HETATM    4  C10B  D T1001      -7.191   1.760  -9.199  0.30 62.21     0.071 C 
HETATM    5  N2 B  D T1001      -7.460  -2.292 -10.439  0.30 46.48    -0.041 N 
HETATM    6  C11B  D T1001      -7.622  -1.956  -9.192  0.30 46.47     0.753 A 
HETATM    7  N5 B  D T1001      -7.539  -0.662  -8.781  0.30 46.47    -0.066 NA
HETATM    8  N3 B  D T1001      -7.601  -3.656 -10.538  0.30 46.47    -0.134 NA
HETATM    9  C12B  D T1001      -7.862  -4.164  -9.335  0.30 46.47     0.177 A 
HETATM   10  N4 B  D T1001      -7.879  -3.131  -8.472  0.30 46.47    -0.043 NA
ENDROOT
BRANCH   1  11
HETATM   11  N1 B  D T1001      -7.049  -1.874 -12.724  0.30 52.78    -0.340 N 
HETATM   12  H5 B  D T1001      -7.805  -1.928 -13.232  0.30 63.34     0.167 HD
BRANCH  11  13
HETATM   13  C2 B  D T1001      -5.822  -2.316 -13.328  0.30 46.96     0.033 A 
HETATM   14  C3 B  D T1001      -5.472  -3.664 -13.136  0.30 46.47     0.030 A 
HETATM   15  C4 B  D T1001      -4.300  -4.153 -13.698  0.30 46.47     0.014 A 
HETATM   16  C5 B  D T1001      -3.519  -3.273 -14.433  0.30 51.11    -0.026 A 
HETATM   17  C6 B  D T1001      -3.848  -1.935 -14.631  0.30 46.47     0.014 A 
HETATM   18  C1 B  D T1001      -5.020  -1.444 -14.073  0.30 46.47     0.030 A 
ENDBRANCH  11  13
ENDBRANCH   1  11
BRANCH   9  19
HETATM   19  C13B  D T1001      -8.066  -5.621  -9.003  0.30 46.48     0.052 C 
HETATM   20  C14B  D T1001      -7.808  -5.726  -7.519  0.30 46.47     0.026 C 
ENDBRANCH   9  19
TORSDOF 7
ENDMDL
MODEL 8
REMARK VINA RESULT:    -5.796     13.358     15.861
REMARK INTER + INTRA:          -7.252
REMARK INTER:                  -6.836
REMARK INTRA:                  -0.416
REMARK UNBOUND:                -0.439
REMARK  7 active torsions:
REMARK  status: ('A' for Active; 'I' for Inactive)
REMARK    1  A    between atoms: S1@A_2  and  C5@A_7 
REMARK    2  A    between atoms: C2@A_17  and  N1@A_19 
REMARK    3  A    between atoms: C2@B_18  and  N1@B_20 
REMARK    4  A    between atoms: N1@A_19  and  C7@A_21 
REMARK    5  A    between atoms: N1@B_20  and  C7@B_22 
REMARK    6  A    between atoms: C12@A_37  and  C13@A_41 
REMARK    7  A    between atoms: C12@B_38  and  C13@B_42 
ROOT
HETATM    1  C7 B  D T1001       6.864  -0.617 -15.651  0.30 60.59     0.150 A 
HETATM    2  C8 B  D T1001       7.242  -1.842 -16.248  0.30 64.17     0.078 A 
HETATM    3  C9 B  D T1001       8.632  -2.059 -16.472  0.30 52.45     0.053 A 
HETATM    4  C10B  D T1001       9.116  -3.352 -17.098  0.30 62.21     0.071 C 
HETATM    5  N2 B  D T1001       7.843   0.295 -15.337  0.30 46.48    -0.041 N 
HETATM    6  C11B  D T1001       9.102   0.058 -15.560  0.30 46.47     0.753 A 
HETATM    7  N5 B  D T1001       9.524  -1.106 -16.124  0.30 46.47    -0.066 NA
HETATM    8  N3 B  D T1001       7.735   1.541 -14.764  0.30 46.47    -0.134 NA
HETATM    9  C12B  D T1001       8.947   2.080 -14.643  0.30 46.47     0.177 A 
HETATM   10  N4 B  D T1001       9.823   1.179 -15.126  0.30 46.47    -0.043 NA
ENDROOT
BRANCH   1  11
HETATM   11  N1 B  D T1001       5.539  -0.215 -15.360  0.30 52.78    -0.340 N 
HETATM   12  H5 B  D T1001       5.434   0.505 -14.809  0.30 63.34     0.167 HD
BRANCH  11  13
HETATM   13  C2 B  D T1001       4.343  -0.838 -15.857  0.30 46.96     0.033 A 
HETATM   14  C3 B  D T1001       3.564  -1.545 -14.924  0.30 46.47     0.030 A 
HETATM   15  C4 B  D T1001       2.394  -2.167 -15.341  0.30 46.47     0.014 A 
HETATM   16  C5 B  D T1001       2.045  -2.057 -16.679  0.30 51.11    -0.026 A 
HETATM   17  C6 B  D T1001       2.805  -1.364 -17.617  0.30 46.47     0.014 A 
HETATM   18  C1 B  D T1001       3.973  -0.739 -17.202  0.30 46.47     0.030 A 
ENDBRANCH  11  13
ENDBRANCH   1  11
BRANCH   9  19
HETATM   19  C13B  D T1001       9.273   3.426 -14.046  0.30 46.48     0.052 C 
HETATM   20  C14B  D T1001       9.859   4.229 -15.182  0.30 46.47     0.026 C 
ENDBRANCH   9  19
TORSDOF 7
ENDMDL
MODEL 9
REMARK VINA RESULT:    -5.200     18.739     20.406
REMARK INTER + INTRA:          -6.551
REMARK INTER:                  -6.046
REMARK INTRA:                  -0.505
REMARK UNBOUND:                -0.439
REMARK  7 active torsions:
REMARK  status: ('A' for Active; 'I' for Inactive)
REMARK    1  A    between atoms: S1@A_2  and  C5@A_7 
REMARK    2  A    between atoms: C2@A_17  and  N1@A_19 
REMARK    3  A    between atoms: C2@B_18  and  N1@B_20 
REMARK    4  A    between atoms: N1@A_19  and  C7@A_21 
REMARK    5  A    between atoms: N1@B_20  and  C7@B_22 
REMARK    6  A    between atoms: C12@A_37  and  C13@A_41 
REMARK    7  A    between atoms: C12@B_38  and  C13@B_42 
ROOT
HETATM    1  C7 B  D T1001       4.131   8.918 -23.492  0.30 60.59     0.150 A 
HETATM    2  C8 B  D T1001       2.769   9.127 -23.810  0.30 64.17     0.078 A 
HETATM    3  C9 B  D T1001       1.912   9.559 -22.758  0.30 52.45     0.053 A 
HETATM    4  C10B  D T1001       0.441   9.814 -23.023  0.30 62.21     0.071 C 
HETATM    5  N2 B  D T1001       4.548   9.124 -22.199  0.30 46.48    -0.041 N 
HETATM    6  C11B  D T1001       3.731   9.518 -21.267  0.30 46.47     0.753 A 
HETATM    7  N5 B  D T1001       2.412   9.742 -21.517  0.30 46.47    -0.066 NA
HETATM    8  N3 B  D T1001       5.799   8.987 -21.644  0.30 46.47    -0.134 NA
HETATM    9  C12B  D T1001       5.745   9.292 -20.349  0.30 46.47     0.177 A 
HETATM   10  N4 B  D T1001       4.471   9.632 -20.082  0.30 46.47    -0.043 NA
ENDROOT
BRANCH   1  11
HETATM   11  N1 B  D T1001       5.131   8.480 -24.393  0.30 52.78    -0.340 N 
HETATM   12  H5 B  D T1001       5.707   9.111 -24.714  0.30 63.34     0.167 HD
BRANCH  11  13
HETATM   13  C2 B  D T1001       5.321   7.130 -24.847  0.30 46.96     0.033 A 
HETATM   14  C3 B  D T1001       5.983   6.963 -26.076  0.30 46.47     0.030 A 
HETATM   15  C4 B  D T1001       6.201   5.683 -26.568  0.30 46.47     0.014 A 
HETATM   16  C5 B  D T1001       5.748   4.613 -25.809  0.30 51.11    -0.026 A 
HETATM   17  C6 B  D T1001       5.088   4.759 -24.592  0.30 46.47     0.014 A 
HETATM   18  C1 B  D T1001       4.872   6.038 -24.097  0.30 46.47     0.030 A 
ENDBRANCH  11  13
ENDBRANCH   1  11
BRANCH   9  19
HETATM   19  C13B  D T1001       6.901   9.290 -19.380  0.30 46.48     0.052 C 
HETATM   20  C14B  D T1001       7.733   8.089 -19.761  0.30 46.47     0.026 C 
ENDBRANCH   9  19
TORSDOF 7
ENDMDL
