MODEL 1
REMARK VINA RESULT:    -7.056      0.000      0.000
REMARK INTER + INTRA:          -8.642
REMARK INTER:                  -8.293
REMARK INTRA:                  -0.348
REMARK UNBOUND:                -0.348
REMARK  3 active torsions:
REMARK  status: ('A' for Active; 'I' for Inactive)
REMARK    1  A    between atoms: C7_8  and  C10_12 
REMARK    2  A    between atoms: N9_10  and  C1'_11 
REMARK    3  A    between atoms: C4'_19  and  C5'_21 
ROOT
HETATM    1  N1    D T 601       4.662   5.335  -8.676  1.00 22.46    -0.210 NA
HETATM    2  C2    D T 601       5.262   6.018  -7.645  1.00 17.33     0.201 A 
HETATM    3  N3    D T 601       6.159   5.365  -6.834  1.00 21.38    -0.207 NA
HETATM    4  C4    D T 601       6.438   4.043  -7.064  1.00 21.15     0.150 A 
HETATM    5  C5    D T 601       5.848   3.372  -8.091  1.00 22.48     0.071 A 
HETATM    6  C6    D T 601       4.941   4.033  -8.902  1.00 22.92     0.156 A 
HETATM    7  N6    D T 601       4.083   3.830 -10.047  1.00 23.12    -0.080 NA
HETATM    8  C7    D T 601       6.317   2.072  -8.080  1.00 19.57     0.076 A 
HETATM    9  C8    D T 601       7.207   1.945  -7.038  1.00 12.70     0.084 A 
HETATM   10  N9    D T 601       7.302   3.156  -6.434  1.00 22.69    -0.287 N 
ENDROOT
BRANCH  10  11
HETATM   11  C1'   D T 601       8.076   3.515  -5.232  1.00 23.36     0.240 C 
HETATM   12  C2'   D T 601       7.275   3.145  -3.987  1.00 24.93     0.234 C 
HETATM   13  O2'   D T 601       7.721   3.949  -2.908  1.00 35.12    -0.216 OA
HETATM   14  C3'   D T 601       7.709   1.707  -3.798  1.00 25.54     0.216 C 
HETATM   15  O3'   D T 601       7.423   1.194  -2.513  1.00 30.30    -0.218 OA
HETATM   16  C4'   D T 601       9.196   1.789  -4.107  1.00 31.54     0.183 C 
HETATM   17  O4'   D T 601       9.264   2.747  -5.200  1.00 29.87    -0.331 OA
BRANCH  16  18
HETATM   18  C5'   D T 601       9.874   0.502  -4.504  1.00 31.76     0.214 C 
HETATM   19  O5'   D T 601      11.080   0.757  -5.205  1.00 34.06    -0.218 OA
ENDBRANCH  16  18
ENDBRANCH  10  11
BRANCH   8  20
HETATM   20  C10   D T 601       6.042   0.819  -8.957  1.00 29.97     0.268 C 
HETATM   21  N11   D T 601       4.645   0.438  -9.257  1.00 35.69    -0.057 NA
HETATM   22  O12   D T 601       6.978   0.158  -9.401  1.00 30.21    -0.271 OA
ENDBRANCH   8  20
TORSDOF 3
ENDMDL
MODEL 2
REMARK VINA RESULT:    -7.023      1.707      3.622
REMARK INTER + INTRA:          -8.603
REMARK INTER:                  -8.061
REMARK INTRA:                  -0.542
REMARK UNBOUND:                -0.348
REMARK  3 active torsions:
REMARK  status: ('A' for Active; 'I' for Inactive)
REMARK    1  A    between atoms: C7_8  and  C10_12 
REMARK    2  A    between atoms: N9_10  and  C1'_11 
REMARK    3  A    between atoms: C4'_19  and  C5'_21 
ROOT
HETATM    1  N1    D T 601       5.226   2.025  -9.572  1.00 22.46    -0.210 NA
HETATM    2  C2    D T 601       5.496   0.851  -8.910  1.00 17.33     0.201 A 
HETATM    3  N3    D T 601       6.023   0.897  -7.641  1.00 21.38    -0.207 NA
HETATM    4  C4    D T 601       6.272   2.112  -7.058  1.00 21.15     0.150 A 
HETATM    5  C5    D T 601       5.995   3.272  -7.713  1.00 22.48     0.071 A 
HETATM    6  C6    D T 601       5.469   3.221  -8.993  1.00 22.92     0.156 A 
HETATM    7  N6    D T 601       5.020   4.071 -10.072  1.00 23.12    -0.080 NA
HETATM    8  C7    D T 601       6.343   4.326  -6.889  1.00 19.57     0.076 A 
HETATM    9  C8    D T 601       6.836   3.805  -5.713  1.00 12.70     0.084 A 
HETATM   10  N9    D T 601       6.767   2.454  -5.806  1.00 22.69    -0.287 N 
ENDROOT
BRANCH  10  11
HETATM   11  C1'   D T 601       7.233   1.451  -4.831  1.00 23.36     0.240 C 
HETATM   12  C2'   D T 601       8.394   0.664  -5.434  1.00 24.93     0.234 C 
HETATM   13  O2'   D T 601       8.471  -0.594  -4.785  1.00 35.12    -0.216 OA
HETATM   14  C3'   D T 601       9.559   1.544  -5.035  1.00 25.54     0.216 C 
HETATM   15  O3'   D T 601      10.812   0.901  -5.130  1.00 30.30    -0.218 OA
HETATM   16  C4'   D T 601       9.178   1.939  -3.617  1.00 31.54     0.183 C 
HETATM   17  O4'   D T 601       7.735   2.114  -3.687  1.00 29.87    -0.331 OA
BRANCH  16  18
HETATM   18  C5'   D T 601       9.825   3.185  -3.067  1.00 31.76     0.214 C 
HETATM   19  O5'   D T 601       9.991   4.162  -4.081  1.00 34.06    -0.218 OA
ENDBRANCH  16  18
ENDBRANCH  10  11
BRANCH   8  20
HETATM   20  C10   D T 601       6.292   5.872  -7.033  1.00 29.97     0.268 C 
HETATM   21  N11   D T 601       4.979   6.548  -7.105  1.00 35.69    -0.057 NA
HETATM   22  O12   D T 601       7.333   6.523  -7.080  1.00 30.21    -0.271 OA
ENDBRANCH   8  20
TORSDOF 3
ENDMDL
MODEL 3
REMARK VINA RESULT:    -6.699      2.474      4.316
REMARK INTER + INTRA:          -8.222
REMARK INTER:                  -7.792
REMARK INTRA:                  -0.430
REMARK UNBOUND:                -0.348
REMARK  3 active torsions:
REMARK  status: ('A' for Active; 'I' for Inactive)
REMARK    1  A    between atoms: C7_8  and  C10_12 
REMARK    2  A    between atoms: N9_10  and  C1'_11 
REMARK    3  A    between atoms: C4'_19  and  C5'_21 
ROOT
HETATM    1  N1    D T 601       7.424  -0.562  -6.705  1.00 22.46    -0.210 NA
HETATM    2  C2    D T 601       7.659  -0.819  -5.375  1.00 17.33     0.201 A 
HETATM    3  N3    D T 601       7.662   0.221  -4.477  1.00 21.38    -0.207 NA
HETATM    4  C4    D T 601       7.433   1.497  -4.922  1.00 21.15     0.150 A 
HETATM    5  C5    D T 601       7.193   1.747  -6.238  1.00 22.48     0.071 A 
HETATM    6  C6    D T 601       7.196   0.696  -7.140  1.00 22.92     0.156 A 
HETATM    7  N6    D T 601       7.016   0.404  -8.544  1.00 23.12    -0.080 NA
HETATM    8  C7    D T 601       6.997   3.107  -6.389  1.00 19.57     0.076 A 
HETATM    9  C8    D T 601       7.115   3.697  -5.150  1.00 12.70     0.084 A 
HETATM   10  N9    D T 601       7.354   2.711  -4.251  1.00 22.69    -0.287 N 
ENDROOT
BRANCH  10  11
HETATM   11  C1'   D T 601       7.618   2.843  -2.806  1.00 23.36     0.240 C 
HETATM   12  C2'   D T 601       8.941   2.159  -2.471  1.00 24.93     0.234 C 
HETATM   13  O2'   D T 601       8.928   1.801  -1.099  1.00 35.12    -0.216 OA
HETATM   14  C3'   D T 601       9.908   3.297  -2.718  1.00 25.54     0.216 C 
HETATM   15  O3'   D T 601      11.182   3.091  -2.144  1.00 30.30    -0.218 OA
HETATM   16  C4'   D T 601       9.154   4.478  -2.128  1.00 31.54     0.183 C 
HETATM   17  O4'   D T 601       7.769   4.212  -2.486  1.00 29.87    -0.331 OA
BRANCH  16  18
HETATM   18  C5'   D T 601       9.560   5.847  -2.612  1.00 31.76     0.214 C 
HETATM   19  O5'   D T 601       9.933   5.813  -3.981  1.00 34.06    -0.218 OA
ENDBRANCH  16  18
ENDBRANCH  10  11
BRANCH   8  20
HETATM   20  C10   D T 601       6.697   4.025  -7.606  1.00 29.97     0.268 C 
HETATM   21  N11   D T 601       7.771   4.886  -8.144  1.00 35.69    -0.057 NA
HETATM   22  O12   D T 601       5.580   4.027  -8.117  1.00 30.21    -0.271 OA
ENDBRANCH   8  20
TORSDOF 3
ENDMDL
MODEL 4
REMARK VINA RESULT:    -6.534      2.055      2.475
REMARK INTER + INTRA:          -8.029
REMARK INTER:                  -7.556
REMARK INTRA:                  -0.472
REMARK UNBOUND:                -0.348
REMARK  3 active torsions:
REMARK  status: ('A' for Active; 'I' for Inactive)
REMARK    1  A    between atoms: C7_8  and  C10_12 
REMARK    2  A    between atoms: N9_10  and  C1'_11 
REMARK    3  A    between atoms: C4'_19  and  C5'_21 
ROOT
HETATM    1  N1    D T 601       5.922   3.853  -7.955  1.00 22.46    -0.210 NA
HETATM    2  C2    D T 601       6.418   4.932  -7.263  1.00 17.33     0.201 A 
HETATM    3  N3    D T 601       7.346   4.728  -6.270  1.00 21.38    -0.207 NA
HETATM    4  C4    D T 601       7.760   3.452  -5.986  1.00 21.15     0.150 A 
HETATM    5  C5    D T 601       7.272   2.387  -6.679  1.00 22.48     0.071 A 
HETATM    6  C6    D T 601       6.333   2.598  -7.675  1.00 22.92     0.156 A 
HETATM    7  N6    D T 601       5.537   1.892  -8.653  1.00 23.12    -0.080 NA
HETATM    8  C7    D T 601       7.864   1.242  -6.181  1.00 19.57     0.076 A 
HETATM    9  C8    D T 601       8.728   1.609  -5.173  1.00 12.70     0.084 A 
HETATM   10  N9    D T 601       8.684   2.961  -5.072  1.00 22.69    -0.287 N 
ENDROOT
BRANCH  10  11
HETATM   11  C1'   D T 601       9.380   3.823  -4.100  1.00 23.36     0.240 C 
HETATM   12  C2'   D T 601       8.443   4.125  -2.933  1.00 24.93     0.234 C 
HETATM   13  O2'   D T 601       8.864   5.331  -2.318  1.00 35.12    -0.216 OA
HETATM   14  C3'   D T 601       8.729   2.939  -2.037  1.00 25.54     0.216 C 
HETATM   15  O3'   D T 601       8.288   3.116  -0.707  1.00 30.30    -0.218 OA
HETATM   16  C4'   D T 601      10.239   2.808  -2.169  1.00 31.54     0.183 C 
HETATM   17  O4'   D T 601      10.487   3.121  -3.568  1.00 29.87    -0.331 OA
BRANCH  16  18
HETATM   18  C5'   D T 601      10.831   1.464  -1.826  1.00 31.76     0.214 C 
HETATM   19  O5'   D T 601      11.131   0.726  -2.999  1.00 34.06    -0.218 OA
ENDBRANCH  16  18
ENDBRANCH  10  11
BRANCH   8  20
HETATM   20  C10   D T 601       7.742  -0.269  -6.518  1.00 29.97     0.268 C 
HETATM   21  N11   D T 601       7.539  -1.241  -5.421  1.00 35.69    -0.057 NA
HETATM   22  O12   D T 601       7.806  -0.649  -7.685  1.00 30.21    -0.271 OA
ENDBRANCH   8  20
TORSDOF 3
ENDMDL
MODEL 5
REMARK VINA RESULT:    -6.426      2.157      2.929
REMARK INTER + INTRA:          -7.902
REMARK INTER:                  -7.523
REMARK INTRA:                  -0.379
REMARK UNBOUND:                -0.348
REMARK  3 active torsions:
REMARK  status: ('A' for Active; 'I' for Inactive)
REMARK    1  A    between atoms: C7_8  and  C10_12 
REMARK    2  A    between atoms: N9_10  and  C1'_11 
REMARK    3  A    between atoms: C4'_19  and  C5'_21 
ROOT
HETATM    1  N1    D T 601       5.807   3.797  -7.863  1.00 22.46    -0.210 NA
HETATM    2  C2    D T 601       5.859   4.648  -6.785  1.00 17.33     0.201 A 
HETATM    3  N3    D T 601       6.399   4.206  -5.601  1.00 21.38    -0.207 NA
HETATM    4  C4    D T 601       6.876   2.924  -5.514  1.00 21.15     0.150 A 
HETATM    5  C5    D T 601       6.831   2.087  -6.586  1.00 22.48     0.071 A 
HETATM    6  C6    D T 601       6.280   2.535  -7.775  1.00 22.92     0.156 A 
HETATM    7  N6    D T 601       5.996   2.110  -9.127  1.00 23.12    -0.080 NA
HETATM    8  C7    D T 601       7.377   0.875  -6.209  1.00 19.57     0.076 A 
HETATM    9  C8    D T 601       7.766   0.971  -4.891  1.00 12.70     0.084 A 
HETATM   10  N9    D T 601       7.484   2.231  -4.475  1.00 22.69    -0.287 N 
ENDROOT
BRANCH  10  11
HETATM   11  C1'   D T 601       7.655   2.802  -3.127  1.00 23.36     0.240 C 
HETATM   12  C2'   D T 601       8.841   2.129  -2.441  1.00 24.93     0.234 C 
HETATM   13  O2'   D T 601       8.676   2.246  -1.038  1.00 35.12    -0.216 OA
HETATM   14  C3'   D T 601       9.973   3.011  -2.922  1.00 25.54     0.216 C 
HETATM   15  O3'   D T 601      11.159   2.871  -2.169  1.00 30.30    -0.218 OA
HETATM   16  C4'   D T 601       9.349   4.395  -2.829  1.00 31.54     0.183 C 
HETATM   17  O4'   D T 601       7.971   4.176  -3.242  1.00 29.87    -0.331 OA
BRANCH  16  18
HETATM   18  C5'   D T 601       9.977   5.476  -3.673  1.00 31.76     0.214 C 
HETATM   19  O5'   D T 601       9.566   5.369  -5.026  1.00 34.06    -0.218 OA
ENDBRANCH  16  18
ENDBRANCH  10  11
BRANCH   8  20
HETATM   20  C10   D T 601       7.612  -0.476  -6.939  1.00 29.97     0.268 C 
HETATM   21  N11   D T 601       7.321  -1.741  -6.231  1.00 35.69    -0.057 NA
HETATM   22  O12   D T 601       8.030  -0.489  -8.094  1.00 30.21    -0.271 OA
ENDBRANCH   8  20
TORSDOF 3
ENDMDL
MODEL 6
REMARK VINA RESULT:    -6.424      1.825      3.567
REMARK INTER + INTRA:          -7.899
REMARK INTER:                  -7.556
REMARK INTRA:                  -0.342
REMARK UNBOUND:                -0.348
REMARK  3 active torsions:
REMARK  status: ('A' for Active; 'I' for Inactive)
REMARK    1  A    between atoms: C7_8  and  C10_12 
REMARK    2  A    between atoms: N9_10  and  C1'_11 
REMARK    3  A    between atoms: C4'_19  and  C5'_21 
ROOT
HETATM    1  N1    D T 601       6.555   0.120  -7.804  1.00 22.46    -0.210 NA
HETATM    2  C2    D T 601       7.566  -0.149  -6.912  1.00 17.33     0.201 A 
HETATM    3  N3    D T 601       8.166   0.887  -6.237  1.00 21.38    -0.207 NA
HETATM    4  C4    D T 601       7.748   2.172  -6.466  1.00 21.15     0.150 A 
HETATM    5  C5    D T 601       6.741   2.435  -7.343  1.00 22.48     0.071 A 
HETATM    6  C6    D T 601       6.144   1.388  -8.025  1.00 22.92     0.156 A 
HETATM    7  N6    D T 601       5.112   1.106  -8.997  1.00 23.12    -0.080 NA
HETATM    8  C7    D T 601       6.536   3.801  -7.367  1.00 19.57     0.076 A 
HETATM    9  C8    D T 601       7.425   4.383  -6.490  1.00 12.70     0.084 A 
HETATM   10  N9    D T 601       8.146   3.386  -5.920  1.00 22.69    -0.287 N 
ENDROOT
BRANCH  10  11
HETATM   11  C1'   D T 601       9.263   3.503  -4.966  1.00 23.36     0.240 C 
HETATM   12  C2'   D T 601       9.019   4.700  -4.049  1.00 24.93     0.234 C 
HETATM   13  O2'   D T 601      10.268   5.141  -3.542  1.00 35.12    -0.216 OA
HETATM   14  C3'   D T 601       8.199   4.047  -2.958  1.00 25.54     0.216 C 
HETATM   15  O3'   D T 601       8.124   4.811  -1.772  1.00 30.30    -0.218 OA
HETATM   16  C4'   D T 601       8.915   2.717  -2.785  1.00 31.54     0.183 C 
HETATM   17  O4'   D T 601       9.292   2.354  -4.142  1.00 29.87    -0.331 OA
BRANCH  16  18
HETATM   18  C5'   D T 601       8.123   1.601  -2.152  1.00 31.76     0.214 C 
HETATM   19  O5'   D T 601       7.020   1.235  -2.965  1.00 34.06    -0.218 OA
ENDBRANCH  16  18
ENDBRANCH  10  11
BRANCH   8  20
HETATM   20  C10   D T 601       5.567   4.734  -8.144  1.00 29.97     0.268 C 
HETATM   21  N11   D T 601       5.017   5.930  -7.469  1.00 35.69    -0.057 NA
HETATM   22  O12   D T 601       5.267   4.481  -9.308  1.00 30.21    -0.271 OA
ENDBRANCH   8  20
TORSDOF 3
ENDMDL
MODEL 7
REMARK VINA RESULT:    -6.170      3.116      5.993
REMARK INTER + INTRA:          -7.601
REMARK INTER:                  -7.197
REMARK INTRA:                  -0.404
REMARK UNBOUND:                -0.348
REMARK  3 active torsions:
REMARK  status: ('A' for Active; 'I' for Inactive)
REMARK    1  A    between atoms: C7_8  and  C10_12 
REMARK    2  A    between atoms: N9_10  and  C1'_11 
REMARK    3  A    between atoms: C4'_19  and  C5'_21 
ROOT
HETATM    1  N1    D T 601       9.773   3.878  -1.171  1.00 22.46    -0.210 NA
HETATM    2  C2    D T 601       8.593   4.534  -1.429  1.00 17.33     0.201 A 
HETATM    3  N3    D T 601       7.881   4.222  -2.562  1.00 21.38    -0.207 NA
HETATM    4  C4    D T 601       8.361   3.264  -3.417  1.00 21.15     0.150 A 
HETATM    5  C5    D T 601       9.526   2.611  -3.155  1.00 22.48     0.071 A 
HETATM    6  C6    D T 601      10.242   2.933  -2.014  1.00 22.92     0.156 A 
HETATM    7  N6    D T 601      11.447   2.588  -1.294  1.00 23.12    -0.080 NA
HETATM    8  C7    D T 601       9.755   1.711  -4.178  1.00 19.57     0.076 A 
HETATM    9  C8    D T 601       8.716   1.809  -5.076  1.00 12.70     0.084 A 
HETATM   10  N9    D T 601       7.851   2.739  -4.598  1.00 22.69    -0.287 N 
ENDROOT
BRANCH  10  11
HETATM   11  C1'   D T 601       6.620   3.245  -5.231  1.00 23.36     0.240 C 
HETATM   12  C2'   D T 601       6.965   4.436  -6.123  1.00 24.93     0.234 C 
HETATM   13  O2'   D T 601       5.804   5.235  -6.275  1.00 35.12    -0.216 OA
HETATM   14  C3'   D T 601       7.297   3.723  -7.416  1.00 25.54     0.216 C 
HETATM   15  O3'   D T 601       7.302   4.572  -8.545  1.00 30.30    -0.218 OA
HETATM   16  C4'   D T 601       6.222   2.648  -7.463  1.00 31.54     0.183 C 
HETATM   17  O4'   D T 601       6.085   2.242  -6.073  1.00 29.87    -0.331 OA
BRANCH  16  18
HETATM   18  C5'   D T 601       6.507   1.447  -8.328  1.00 31.76     0.214 C 
HETATM   19  O5'   D T 601       6.991   0.363  -7.551  1.00 34.06    -0.218 OA
ENDBRANCH  16  18
ENDBRANCH  10  11
BRANCH   8  20
HETATM   20  C10   D T 601      10.884   0.688  -4.482  1.00 29.97     0.268 C 
HETATM   21  N11   D T 601      11.367  -0.200  -3.403  1.00 35.69    -0.057 NA
HETATM   22  O12   D T 601      11.364   0.616  -5.611  1.00 30.21    -0.271 OA
ENDBRANCH   8  20
TORSDOF 3
ENDMDL
MODEL 8
REMARK VINA RESULT:    -5.942      4.175      7.477
REMARK INTER + INTRA:          -7.332
REMARK INTER:                  -6.867
REMARK INTRA:                  -0.465
REMARK UNBOUND:                -0.348
REMARK  3 active torsions:
REMARK  status: ('A' for Active; 'I' for Inactive)
REMARK    1  A    between atoms: C7_8  and  C10_12 
REMARK    2  A    between atoms: N9_10  and  C1'_11 
REMARK    3  A    between atoms: C4'_19  and  C5'_21 
ROOT
HETATM    1  N1    D T 601       9.265   2.612   0.621  1.00 22.46    -0.210 NA
HETATM    2  C2    D T 601       9.323   1.603  -0.311  1.00 17.33     0.201 A 
HETATM    3  N3    D T 601       9.395   1.921  -1.647  1.00 21.38    -0.207 NA
HETATM    4  C4    D T 601       9.406   3.237  -2.027  1.00 21.15     0.150 A 
HETATM    5  C5    D T 601       9.356   4.234  -1.101  1.00 22.48     0.071 A 
HETATM    6  C6    D T 601       9.279   3.908   0.243  1.00 22.92     0.156 A 
HETATM    7  N6    D T 601       9.207   4.510   1.556  1.00 23.12    -0.080 NA
HETATM    8  C7    D T 601       9.384   5.443  -1.768  1.00 19.57     0.076 A 
HETATM    9  C8    D T 601       9.454   5.186  -3.119  1.00 12.70     0.084 A 
HETATM   10  N9    D T 601       9.495   3.840  -3.275  1.00 22.69    -0.287 N 
ENDROOT
BRANCH  10  11
HETATM   11  C1'   D T 601       9.509   3.071  -4.533  1.00 23.36     0.240 C 
HETATM   12  C2'   D T 601       8.210   2.278  -4.653  1.00 24.93     0.234 C 
HETATM   13  O2'   D T 601       8.436   1.169  -5.508  1.00 35.12    -0.216 OA
HETATM   14  C3'   D T 601       7.325   3.303  -5.329  1.00 25.54     0.216 C 
HETATM   15  O3'   D T 601       6.161   2.751  -5.909  1.00 30.30    -0.218 OA
HETATM   16  C4'   D T 601       8.279   3.920  -6.339  1.00 31.54     0.183 C 
HETATM   17  O4'   D T 601       9.546   3.969  -5.625  1.00 29.87    -0.331 OA
BRANCH  16  18
HETATM   18  C5'   D T 601       7.922   5.291  -6.854  1.00 31.76     0.214 C 
HETATM   19  O5'   D T 601       7.553   5.242  -8.222  1.00 34.06    -0.218 OA
ENDBRANCH  16  18
ENDBRANCH  10  11
BRANCH   8  20
HETATM   20  C10   D T 601       9.347   6.928  -1.312  1.00 29.97     0.268 C 
HETATM   21  N11   D T 601      10.381   7.863  -1.805  1.00 35.69    -0.057 NA
HETATM   22  O12   D T 601       8.461   7.320  -0.555  1.00 30.21    -0.271 OA
ENDBRANCH   8  20
TORSDOF 3
ENDMDL
MODEL 9
REMARK VINA RESULT:    -5.886      4.809      7.547
REMARK INTER + INTRA:          -7.266
REMARK INTER:                  -6.754
REMARK INTRA:                  -0.512
REMARK UNBOUND:                -0.348
REMARK  3 active torsions:
REMARK  status: ('A' for Active; 'I' for Inactive)
REMARK    1  A    between atoms: C7_8  and  C10_12 
REMARK    2  A    between atoms: N9_10  and  C1'_11 
REMARK    3  A    between atoms: C4'_19  and  C5'_21 
ROOT
HETATM    1  N1    D T 601       9.660   5.983   0.885  1.00 22.46    -0.210 NA
HETATM    2  C2    D T 601       9.161   6.462  -0.303  1.00 17.33     0.201 A 
HETATM    3  N3    D T 601       8.786   5.576  -1.285  1.00 21.38    -0.207 NA
HETATM    4  C4    D T 601       8.918   4.230  -1.064  1.00 21.15     0.150 A 
HETATM    5  C5    D T 601       9.405   3.759   0.116  1.00 22.48     0.071 A 
HETATM    6  C6    D T 601       9.786   4.656   1.100  1.00 22.92     0.156 A 
HETATM    7  N6    D T 601      10.327   4.711   2.440  1.00 23.12    -0.080 NA
HETATM    8  C7    D T 601       9.422   2.378   0.055  1.00 19.57     0.076 A 
HETATM    9  C8    D T 601       8.936   1.998  -1.177  1.00 12.70     0.084 A 
HETATM   10  N9    D T 601       8.603   3.128  -1.849  1.00 22.69    -0.287 N 
ENDROOT
BRANCH  10  11
HETATM   11  C1'   D T 601       8.101   3.249  -3.230  1.00 23.36     0.240 C 
HETATM   12  C2'   D T 601       9.080   4.085  -4.051  1.00 24.93     0.234 C 
HETATM   13  O2'   D T 601       8.380   4.654  -5.144  1.00 35.12    -0.216 OA
HETATM   14  C3'   D T 601      10.030   3.007  -4.526  1.00 25.54     0.216 C 
HETATM   15  O3'   D T 601      10.842   3.406  -5.611  1.00 30.30    -0.218 OA
HETATM   16  C4'   D T 601       9.071   1.875  -4.863  1.00 31.54     0.183 C 
HETATM   17  O4'   D T 601       8.058   1.966  -3.822  1.00 29.87    -0.331 OA
BRANCH  16  18
HETATM   18  C5'   D T 601       9.654   0.485  -4.898  1.00 31.76     0.214 C 
HETATM   19  O5'   D T 601      10.730   0.361  -3.982  1.00 34.06    -0.218 OA
ENDBRANCH  16  18
ENDBRANCH  10  11
BRANCH   8  20
HETATM   20  C10   D T 601       9.860   1.260   1.040  1.00 29.97     0.268 C 
HETATM   21  N11   D T 601      11.224   1.290   1.609  1.00 35.69    -0.057 NA
HETATM   22  O12   D T 601       9.075   0.365   1.346  1.00 30.21    -0.271 OA
ENDBRANCH   8  20
TORSDOF 3
ENDMDL
