MODEL 1
REMARK VINA RESULT:    -6.032      0.000      0.000
REMARK INTER + INTRA:          -7.594
REMARK INTER:                  -7.090
REMARK INTRA:                  -0.503
REMARK UNBOUND:                -0.503
REMARK  3 active torsions:
REMARK  status: ('A' for Active; 'I' for Inactive)
REMARK    1  A    between atoms: C7_8  and  C10_12 
REMARK    2  A    between atoms: N9_10  and  C1'_11 
REMARK    3  A    between atoms: C4'_19  and  C5'_21 
ROOT
HETATM    1  N1    D T 601      -3.053  -5.828  -5.595  1.00 22.46    -0.210 NA
HETATM    2  C2    D T 601      -2.968  -4.522  -5.175  1.00 17.33     0.201 A 
HETATM    3  N3    D T 601      -4.068  -3.706  -5.279  1.00 21.38    -0.207 NA
HETATM    4  C4    D T 601      -5.232  -4.207  -5.803  1.00 21.15     0.150 A 
HETATM    5  C5    D T 601      -5.315  -5.503  -6.212  1.00 22.48     0.071 A 
HETATM    6  C6    D T 601      -4.202  -6.320  -6.109  1.00 22.92     0.156 A 
HETATM    7  N6    D T 601      -3.754  -7.670  -6.368  1.00 23.12    -0.080 NA
HETATM    8  C7    D T 601      -6.594  -5.722  -6.689  1.00 19.57     0.076 A 
HETATM    9  C8    D T 601      -7.304  -4.548  -6.568  1.00 12.70     0.084 A 
HETATM   10  N9    D T 601      -6.480  -3.631  -6.004  1.00 22.69    -0.287 N 
ENDROOT
BRANCH  10  11
HETATM   11  C1'   D T 601      -6.756  -2.209  -5.727  1.00 23.36     0.240 C 
HETATM   12  C2'   D T 601      -5.826  -1.344  -6.575  1.00 24.93     0.234 C 
HETATM   13  O2'   D T 601      -5.689  -0.080  -5.945  1.00 35.12    -0.216 OA
HETATM   14  C3'   D T 601      -6.643  -1.223  -7.844  1.00 25.54     0.216 C 
HETATM   15  O3'   D T 601      -6.219  -0.176  -8.692  1.00 30.30    -0.218 OA
HETATM   16  C4'   D T 601      -8.046  -1.032  -7.292  1.00 31.54     0.183 C 
HETATM   17  O4'   D T 601      -8.078  -1.908  -6.130  1.00 29.87    -0.331 OA
BRANCH  16  18
HETATM   18  C5'   D T 601      -9.187  -1.364  -8.220  1.00 31.76     0.214 C 
HETATM   19  O5'   D T 601      -8.841  -2.425  -9.094  1.00 34.06    -0.218 OA
ENDBRANCH  16  18
ENDBRANCH  10  11
BRANCH   8  20
HETATM   20  C10   D T 601      -7.321  -6.953  -7.295  1.00 29.97     0.268 C 
HETATM   21  N11   D T 601      -7.150  -8.278  -6.662  1.00 35.69    -0.057 NA
HETATM   22  O12   D T 601      -8.035  -6.822  -8.287  1.00 30.21    -0.271 OA
ENDBRANCH   8  20
TORSDOF 3
ENDMDL
MODEL 2
REMARK VINA RESULT:    -5.870      1.914      3.895
REMARK INTER + INTRA:          -7.403
REMARK INTER:                  -6.991
REMARK INTRA:                  -0.412
REMARK UNBOUND:                -0.503
REMARK  3 active torsions:
REMARK  status: ('A' for Active; 'I' for Inactive)
REMARK    1  A    between atoms: C7_8  and  C10_12 
REMARK    2  A    between atoms: N9_10  and  C1'_11 
REMARK    3  A    between atoms: C4'_19  and  C5'_21 
ROOT
HETATM    1  N1    D T 601      -4.274  -6.435  -5.679  1.00 22.46    -0.210 NA
HETATM    2  C2    D T 601      -5.524  -6.937  -5.957  1.00 17.33     0.201 A 
HETATM    3  N3    D T 601      -6.471  -6.119  -6.523  1.00 21.38    -0.207 NA
HETATM    4  C4    D T 601      -6.155  -4.814  -6.800  1.00 21.15     0.150 A 
HETATM    5  C5    D T 601      -4.915  -4.321  -6.530  1.00 22.48     0.071 A 
HETATM    6  C6    D T 601      -3.966  -5.148  -5.955  1.00 22.92     0.156 A 
HETATM    7  N6    D T 601      -2.597  -5.157  -5.490  1.00 23.12    -0.080 NA
HETATM    8  C7    D T 601      -4.889  -2.992  -6.912  1.00 19.57     0.076 A 
HETATM    9  C8    D T 601      -6.126  -2.668  -7.424  1.00 12.70     0.084 A 
HETATM   10  N9    D T 601      -6.890  -3.787  -7.379  1.00 22.69    -0.287 N 
ENDROOT
BRANCH  10  11
HETATM   11  C1'   D T 601      -8.308  -3.935  -7.756  1.00 23.36     0.240 C 
HETATM   12  C2'   D T 601      -9.185  -3.574  -6.559  1.00 24.93     0.234 C 
HETATM   13  O2'   D T 601     -10.441  -4.215  -6.711  1.00 35.12    -0.216 OA
HETATM   14  C3'   D T 601      -9.321  -2.079  -6.759  1.00 25.54     0.216 C 
HETATM   15  O3'   D T 601     -10.379  -1.503  -6.020  1.00 30.30    -0.218 OA
HETATM   16  C4'   D T 601      -9.503  -1.983  -8.264  1.00 31.54     0.183 C 
HETATM   17  O4'   D T 601      -8.613  -3.011  -8.782  1.00 29.87    -0.331 OA
BRANCH  16  18
HETATM   18  C5'   D T 601      -9.182  -0.653  -8.899  1.00 31.76     0.214 C 
HETATM   19  O5'   D T 601      -8.292  -0.812  -9.991  1.00 34.06    -0.218 OA
ENDBRANCH  16  18
ENDBRANCH  10  11
BRANCH   8  20
HETATM   20  C10   D T 601      -3.806  -1.880  -6.868  1.00 29.97     0.268 C 
HETATM   21  N11   D T 601      -3.754  -0.968  -5.705  1.00 35.69    -0.057 NA
HETATM   22  O12   D T 601      -2.999  -1.766  -7.788  1.00 30.21    -0.271 OA
ENDBRANCH   8  20
TORSDOF 3
ENDMDL
MODEL 3
REMARK VINA RESULT:    -5.852      1.857      2.935
REMARK INTER + INTRA:          -7.381
REMARK INTER:                  -6.992
REMARK INTRA:                  -0.389
REMARK UNBOUND:                -0.503
REMARK  3 active torsions:
REMARK  status: ('A' for Active; 'I' for Inactive)
REMARK    1  A    between atoms: C7_8  and  C10_12 
REMARK    2  A    between atoms: N9_10  and  C1'_11 
REMARK    3  A    between atoms: C4'_19  and  C5'_21 
ROOT
HETATM    1  N1    D T 601      -2.750  -4.086  -5.205  1.00 22.46    -0.210 NA
HETATM    2  C2    D T 601      -3.286  -2.859  -5.516  1.00 17.33     0.201 A 
HETATM    3  N3    D T 601      -4.529  -2.790  -6.097  1.00 21.38    -0.207 NA
HETATM    4  C4    D T 601      -5.214  -3.949  -6.360  1.00 21.15     0.150 A 
HETATM    5  C5    D T 601      -4.684  -5.163  -6.046  1.00 22.48     0.071 A 
HETATM    6  C6    D T 601      -3.429  -5.225  -5.465  1.00 22.92     0.156 A 
HETATM    7  N6    D T 601      -2.456  -6.168  -4.960  1.00 23.12    -0.080 NA
HETATM    8  C7    D T 601      -5.590  -6.137  -6.422  1.00 19.57     0.076 A 
HETATM    9  C8    D T 601      -6.688  -5.514  -6.970  1.00 12.70     0.084 A 
HETATM   10  N9    D T 601      -6.470  -4.177  -6.908  1.00 22.69    -0.287 N 
ENDROOT
BRANCH  10  11
HETATM   11  C1'   D T 601      -7.324  -3.091  -7.424  1.00 23.36     0.240 C 
HETATM   12  C2'   D T 601      -8.745  -3.619  -7.616  1.00 24.93     0.234 C 
HETATM   13  O2'   D T 601      -9.398  -2.811  -8.581  1.00 35.12    -0.216 OA
HETATM   14  C3'   D T 601      -9.318  -3.371  -6.236  1.00 25.54     0.216 C 
HETATM   15  O3'   D T 601     -10.729  -3.415  -6.194  1.00 30.30    -0.218 OA
HETATM   16  C4'   D T 601      -8.738  -2.008  -5.900  1.00 31.54     0.183 C 
HETATM   17  O4'   D T 601      -7.395  -2.061  -6.459  1.00 29.87    -0.331 OA
BRANCH  16  18
HETATM   18  C5'   D T 601      -8.674  -1.644  -4.437  1.00 31.76     0.214 C 
HETATM   19  O5'   D T 601      -8.192  -2.729  -3.663  1.00 34.06    -0.218 OA
ENDBRANCH  16  18
ENDBRANCH  10  11
BRANCH   8  20
HETATM   20  C10   D T 601      -5.594  -7.688  -6.351  1.00 29.97     0.268 C 
HETATM   21  N11   D T 601      -6.799  -8.386  -5.855  1.00 35.69    -0.057 NA
HETATM   22  O12   D T 601      -4.606  -8.326  -6.709  1.00 30.21    -0.271 OA
ENDBRANCH   8  20
TORSDOF 3
ENDMDL
MODEL 4
REMARK VINA RESULT:    -5.726      2.084      4.044
REMARK INTER + INTRA:          -7.233
REMARK INTER:                  -6.707
REMARK INTRA:                  -0.526
REMARK UNBOUND:                -0.503
REMARK  3 active torsions:
REMARK  status: ('A' for Active; 'I' for Inactive)
REMARK    1  A    between atoms: C7_8  and  C10_12 
REMARK    2  A    between atoms: N9_10  and  C1'_11 
REMARK    3  A    between atoms: C4'_19  and  C5'_21 
ROOT
HETATM    1  N1    D T 601      -5.283  -6.011  -5.573  1.00 22.46    -0.210 NA
HETATM    2  C2    D T 601      -6.639  -6.173  -5.734  1.00 17.33     0.201 A 
HETATM    3  N3    D T 601      -7.387  -5.144  -6.251  1.00 21.38    -0.207 NA
HETATM    4  C4    D T 601      -6.769  -3.969  -6.596  1.00 21.15     0.150 A 
HETATM    5  C5    D T 601      -5.426  -3.813  -6.442  1.00 22.48     0.071 A 
HETATM    6  C6    D T 601      -4.677  -4.852  -5.916  1.00 22.92     0.156 A 
HETATM    7  N6    D T 601      -3.323  -5.212  -5.561  1.00 23.12    -0.080 NA
HETATM    8  C7    D T 601      -5.089  -2.542  -6.869  1.00 19.57     0.076 A 
HETATM    9  C8    D T 601      -6.239  -1.913  -7.292  1.00 12.70     0.084 A 
HETATM   10  N9    D T 601      -7.260  -2.793  -7.150  1.00 22.69    -0.287 N 
ENDROOT
BRANCH  10  11
HETATM   11  C1'   D T 601      -8.695  -2.571  -7.408  1.00 23.36     0.240 C 
HETATM   12  C2'   D T 601      -9.405  -2.291  -6.085  1.00 24.93     0.234 C 
HETATM   13  O2'   D T 601     -10.776  -2.620  -6.232  1.00 35.12    -0.216 OA
HETATM   14  C3'   D T 601      -9.222  -0.791  -5.988  1.00 25.54     0.216 C 
HETATM   15  O3'   D T 601     -10.087  -0.176  -5.055  1.00 30.30    -0.218 OA
HETATM   16  C4'   D T 601      -9.462  -0.356  -7.424  1.00 31.54     0.183 C 
HETATM   17  O4'   D T 601      -8.847  -1.416  -8.209  1.00 29.87    -0.331 OA
BRANCH  16  18
HETATM   18  C5'   D T 601      -8.894   0.982  -7.827  1.00 31.76     0.214 C 
HETATM   19  O5'   D T 601      -7.858   1.382  -6.947  1.00 34.06    -0.218 OA
ENDBRANCH  16  18
ENDBRANCH  10  11
BRANCH   8  20
HETATM   20  C10   D T 601      -3.756  -1.750  -6.948  1.00 29.97     0.268 C 
HETATM   21  N11   D T 601      -3.436  -0.765  -5.893  1.00 35.69    -0.057 NA
HETATM   22  O12   D T 601      -2.974  -1.947  -7.876  1.00 30.21    -0.271 OA
ENDBRANCH   8  20
TORSDOF 3
ENDMDL
MODEL 5
REMARK VINA RESULT:    -5.673      2.757      4.940
REMARK INTER + INTRA:          -7.171
REMARK INTER:                  -6.706
REMARK INTRA:                  -0.465
REMARK UNBOUND:                -0.503
REMARK  3 active torsions:
REMARK  status: ('A' for Active; 'I' for Inactive)
REMARK    1  A    between atoms: C7_8  and  C10_12 
REMARK    2  A    between atoms: N9_10  and  C1'_11 
REMARK    3  A    between atoms: C4'_19  and  C5'_21 
ROOT
HETATM    1  N1    D T 601      -6.682  -5.014  -7.509  1.00 22.46    -0.210 NA
HETATM    2  C2    D T 601      -7.917  -4.783  -8.067  1.00 17.33     0.201 A 
HETATM    3  N3    D T 601      -8.343  -3.490  -8.254  1.00 21.38    -0.207 NA
HETATM    4  C4    D T 601      -7.529  -2.452  -7.880  1.00 21.15     0.150 A 
HETATM    5  C5    D T 601      -6.304  -2.684  -7.334  1.00 22.48     0.071 A 
HETATM    6  C6    D T 601      -5.882  -3.989  -7.143  1.00 22.92     0.156 A 
HETATM    7  N6    D T 601      -4.765  -4.761  -6.647  1.00 23.12    -0.080 NA
HETATM    8  C7    D T 601      -5.716  -1.463  -7.061  1.00 19.57     0.076 A 
HETATM    9  C8    D T 601      -6.591  -0.470  -7.446  1.00 12.70     0.084 A 
HETATM   10  N9    D T 601      -7.686  -1.075  -7.969  1.00 22.69    -0.287 N 
ENDROOT
BRANCH  10  11
HETATM   11  C1'   D T 601      -8.924  -0.443  -8.462  1.00 23.36     0.240 C 
HETATM   12  C2'   D T 601     -10.106  -0.941  -7.633  1.00 24.93     0.234 C 
HETATM   13  O2'   D T 601     -11.288  -0.799  -8.403  1.00 35.12    -0.216 OA
HETATM   14  C3'   D T 601     -10.085   0.061  -6.497  1.00 25.54     0.216 C 
HETATM   15  O3'   D T 601     -11.284   0.094  -5.750  1.00 30.30    -0.218 OA
HETATM   16  C4'   D T 601      -9.786   1.357  -7.232  1.00 31.54     0.183 C 
HETATM   17  O4'   D T 601      -8.841   0.954  -8.263  1.00 29.87    -0.331 OA
BRANCH  16  18
HETATM   18  C5'   D T 601      -9.207   2.481  -6.410  1.00 31.76     0.214 C 
HETATM   19  O5'   D T 601      -7.870   2.755  -6.793  1.00 34.06    -0.218 OA
ENDBRANCH  16  18
ENDBRANCH  10  11
BRANCH   8  20
HETATM   20  C10   D T 601      -4.358  -1.035  -6.442  1.00 29.97     0.268 C 
HETATM   21  N11   D T 601      -4.351  -0.245  -5.191  1.00 35.69    -0.057 NA
HETATM   22  O12   D T 601      -3.303  -1.356  -6.984  1.00 30.21    -0.271 OA
ENDBRANCH   8  20
TORSDOF 3
ENDMDL
MODEL 6
REMARK VINA RESULT:    -5.454      2.030      3.967
REMARK INTER + INTRA:          -6.914
REMARK INTER:                  -6.476
REMARK INTRA:                  -0.438
REMARK UNBOUND:                -0.503
REMARK  3 active torsions:
REMARK  status: ('A' for Active; 'I' for Inactive)
REMARK    1  A    between atoms: C7_8  and  C10_12 
REMARK    2  A    between atoms: N9_10  and  C1'_11 
REMARK    3  A    between atoms: C4'_19  and  C5'_21 
ROOT
HETATM    1  N1    D T 601      -7.431  -7.504  -7.299  1.00 22.46    -0.210 NA
HETATM    2  C2    D T 601      -8.488  -6.929  -7.965  1.00 17.33     0.201 A 
HETATM    3  N3    D T 601      -8.523  -5.565  -8.127  1.00 21.38    -0.207 NA
HETATM    4  C4    D T 601      -7.504  -4.800  -7.621  1.00 21.15     0.150 A 
HETATM    5  C5    D T 601      -6.455  -5.373  -6.968  1.00 22.48     0.071 A 
HETATM    6  C6    D T 601      -6.428  -6.747  -6.803  1.00 22.92     0.156 A 
HETATM    7  N6    D T 601      -5.625  -7.808  -6.238  1.00 23.12    -0.080 NA
HETATM    8  C7    D T 601      -5.592  -4.367  -6.576  1.00 19.57     0.076 A 
HETATM    9  C8    D T 601      -6.116  -3.164  -6.994  1.00 12.70     0.084 A 
HETATM   10  N9    D T 601      -7.270  -3.431  -7.655  1.00 22.69    -0.287 N 
ENDROOT
BRANCH  10  11
HETATM   11  C1'   D T 601      -8.228  -2.472  -8.236  1.00 23.36     0.240 C 
HETATM   12  C2'   D T 601      -9.462  -2.391  -7.341  1.00 24.93     0.234 C 
HETATM   13  O2'   D T 601     -10.557  -1.943  -8.123  1.00 35.12    -0.216 OA
HETATM   14  C3'   D T 601      -9.025  -1.316  -6.368  1.00 25.54     0.216 C 
HETATM   15  O3'   D T 601     -10.092  -0.751  -5.634  1.00 30.30    -0.218 OA
HETATM   16  C4'   D T 601      -8.326  -0.330  -7.289  1.00 31.54     0.183 C 
HETATM   17  O4'   D T 601      -7.643  -1.184  -8.248  1.00 29.87    -0.331 OA
BRANCH  16  18
HETATM   18  C5'   D T 601      -7.342   0.613  -6.644  1.00 31.76     0.214 C 
HETATM   19  O5'   D T 601      -7.854   1.935  -6.603  1.00 34.06    -0.218 OA
ENDBRANCH  16  18
ENDBRANCH  10  11
BRANCH   8  20
HETATM   20  C10   D T 601      -4.246  -4.343  -5.802  1.00 29.97     0.268 C 
HETATM   21  N11   D T 601      -3.938  -3.197  -4.921  1.00 35.69    -0.057 NA
HETATM   22  O12   D T 601      -3.450  -5.272  -5.919  1.00 30.21    -0.271 OA
ENDBRANCH   8  20
TORSDOF 3
ENDMDL
MODEL 7
REMARK VINA RESULT:    -5.289      2.590      4.410
REMARK INTER + INTRA:          -6.720
REMARK INTER:                  -6.606
REMARK INTRA:                  -0.114
REMARK UNBOUND:                -0.503
REMARK  3 active torsions:
REMARK  status: ('A' for Active; 'I' for Inactive)
REMARK    1  A    between atoms: C7_8  and  C10_12 
REMARK    2  A    between atoms: N9_10  and  C1'_11 
REMARK    3  A    between atoms: C4'_19  and  C5'_21 
ROOT
HETATM    1  N1    D T 601      -4.981  -0.948  -8.035  1.00 22.46    -0.210 NA
HETATM    2  C2    D T 601      -6.297  -0.567  -8.151  1.00 17.33     0.201 A 
HETATM    3  N3    D T 601      -7.285  -1.396  -7.679  1.00 21.38    -0.207 NA
HETATM    4  C4    D T 601      -6.943  -2.592  -7.102  1.00 21.15     0.150 A 
HETATM    5  C5    D T 601      -5.639  -2.964  -6.982  1.00 22.48     0.071 A 
HETATM    6  C6    D T 601      -4.647  -2.126  -7.464  1.00 22.92     0.156 A 
HETATM    7  N6    D T 601      -3.211  -2.021  -7.593  1.00 23.12    -0.080 NA
HETATM    8  C7    D T 601      -5.599  -4.201  -6.366  1.00 19.57     0.076 A 
HETATM    9  C8    D T 601      -6.894  -4.591  -6.104  1.00 12.70     0.084 A 
HETATM   10  N9    D T 601      -7.712  -3.597  -6.529  1.00 22.69    -0.287 N 
ENDROOT
BRANCH  10  11
HETATM   11  C1'   D T 601      -9.186  -3.569  -6.524  1.00 23.36     0.240 C 
HETATM   12  C2'   D T 601      -9.691  -3.906  -5.123  1.00 24.93     0.234 C 
HETATM   13  O2'   D T 601     -11.011  -4.411  -5.229  1.00 35.12    -0.216 OA
HETATM   14  C3'   D T 601      -9.694  -2.529  -4.493  1.00 25.54     0.216 C 
HETATM   15  O3'   D T 601     -10.460  -2.451  -3.309  1.00 30.30    -0.218 OA
HETATM   16  C4'   D T 601     -10.231  -1.671  -5.627  1.00 31.54     0.183 C 
HETATM   17  O4'   D T 601      -9.624  -2.256  -6.814  1.00 29.87    -0.331 OA
BRANCH  16  18
HETATM   18  C5'   D T 601      -9.922  -0.196  -5.562  1.00 31.76     0.214 C 
HETATM   19  O5'   D T 601     -11.024   0.533  -5.049  1.00 34.06    -0.218 OA
ENDBRANCH  16  18
ENDBRANCH  10  11
BRANCH   8  20
HETATM   20  C10   D T 601      -4.452  -5.163  -5.954  1.00 29.97     0.268 C 
HETATM   21  N11   D T 601      -3.310  -4.634  -5.177  1.00 35.69    -0.057 NA
HETATM   22  O12   D T 601      -4.498  -6.350  -6.267  1.00 30.21    -0.271 OA
ENDBRANCH   8  20
TORSDOF 3
ENDMDL
MODEL 8
REMARK VINA RESULT:    -5.264      2.128      3.565
REMARK INTER + INTRA:          -6.691
REMARK INTER:                  -6.167
REMARK INTRA:                  -0.524
REMARK UNBOUND:                -0.503
REMARK  3 active torsions:
REMARK  status: ('A' for Active; 'I' for Inactive)
REMARK    1  A    between atoms: C7_8  and  C10_12 
REMARK    2  A    between atoms: N9_10  and  C1'_11 
REMARK    3  A    between atoms: C4'_19  and  C5'_21 
ROOT
HETATM    1  N1    D T 601      -6.813  -8.475  -7.314  1.00 22.46    -0.210 NA
HETATM    2  C2    D T 601      -5.607  -8.228  -6.701  1.00 17.33     0.201 A 
HETATM    3  N3    D T 601      -5.327  -6.963  -6.247  1.00 21.38    -0.207 NA
HETATM    4  C4    D T 601      -6.253  -5.966  -6.414  1.00 21.15     0.150 A 
HETATM    5  C5    D T 601      -7.449  -6.215  -7.015  1.00 22.48     0.071 A 
HETATM    6  C6    D T 601      -7.725  -7.491  -7.475  1.00 22.92     0.156 A 
HETATM    7  N6    D T 601      -8.752  -8.263  -8.137  1.00 23.12    -0.080 NA
HETATM    8  C7    D T 601      -8.170  -5.035  -7.042  1.00 19.57     0.076 A 
HETATM    9  C8    D T 601      -7.409  -4.053  -6.448  1.00 12.70     0.084 A 
HETATM   10  N9    D T 601      -6.250  -4.627  -6.042  1.00 22.69    -0.287 N 
ENDROOT
BRANCH  10  11
HETATM   11  C1'   D T 601      -5.086  -3.978  -5.410  1.00 23.36     0.240 C 
HETATM   12  C2'   D T 601      -3.960  -3.860  -6.435  1.00 24.93     0.234 C 
HETATM   13  O2'   D T 601      -2.727  -3.769  -5.741  1.00 35.12    -0.216 OA
HETATM   14  C3'   D T 601      -4.310  -2.534  -7.078  1.00 25.54     0.216 C 
HETATM   15  O3'   D T 601      -3.250  -1.966  -7.817  1.00 30.30    -0.218 OA
HETATM   16  C4'   D T 601      -4.728  -1.708  -5.873  1.00 31.54     0.183 C 
HETATM   17  O4'   D T 601      -5.438  -2.661  -5.034  1.00 29.87    -0.331 OA
BRANCH  16  18
HETATM   18  C5'   D T 601      -5.603  -0.510  -6.148  1.00 31.76     0.214 C 
HETATM   19  O5'   D T 601      -6.331  -0.676  -7.353  1.00 34.06    -0.218 OA
ENDBRANCH  16  18
ENDBRANCH  10  11
BRANCH   8  20
HETATM   20  C10   D T 601      -9.571  -4.642  -7.582  1.00 29.97     0.268 C 
HETATM   21  N11   D T 601     -10.347  -3.594  -6.885  1.00 35.69    -0.057 NA
HETATM   22  O12   D T 601     -10.025  -5.194  -8.583  1.00 30.21    -0.271 OA
ENDBRANCH   8  20
TORSDOF 3
ENDMDL
MODEL 9
REMARK VINA RESULT:    -5.064      2.907      5.594
REMARK INTER + INTRA:          -6.455
REMARK INTER:                  -6.077
REMARK INTRA:                  -0.378
REMARK UNBOUND:                -0.503
REMARK  3 active torsions:
REMARK  status: ('A' for Active; 'I' for Inactive)
REMARK    1  A    between atoms: C7_8  and  C10_12 
REMARK    2  A    between atoms: N9_10  and  C1'_11 
REMARK    3  A    between atoms: C4'_19  and  C5'_21 
ROOT
HETATM    1  N1    D T 601     -10.184  -4.998  -7.623  1.00 22.46    -0.210 NA
HETATM    2  C2    D T 601      -9.057  -5.556  -8.179  1.00 17.33     0.201 A 
HETATM    3  N3    D T 601      -7.841  -4.942  -8.005  1.00 21.38    -0.207 NA
HETATM    4  C4    D T 601      -7.772  -3.779  -7.281  1.00 21.15     0.150 A 
HETATM    5  C5    D T 601      -8.887  -3.232  -6.725  1.00 22.48     0.071 A 
HETATM    6  C6    D T 601     -10.111  -3.853  -6.908  1.00 22.92     0.156 A 
HETATM    7  N6    D T 601     -11.511  -3.727  -6.572  1.00 23.12    -0.080 NA
HETATM    8  C7    D T 601      -8.515  -2.078  -6.060  1.00 19.57     0.076 A 
HETATM    9  C8    D T 601      -7.155  -1.918  -6.208  1.00 12.70     0.084 A 
HETATM   10  N9    D T 601      -6.698  -2.970  -6.931  1.00 22.69    -0.287 N 
ENDROOT
BRANCH  10  11
HETATM   11  C1'   D T 601      -5.324  -3.219  -7.404  1.00 23.36     0.240 C 
HETATM   12  C2'   D T 601      -4.338  -2.501  -6.485  1.00 24.93     0.234 C 
HETATM   13  O2'   D T 601      -3.138  -2.270  -7.204  1.00 35.12    -0.216 OA
HETATM   14  C3'   D T 601      -4.130  -3.561  -5.424  1.00 25.54     0.216 C 
HETATM   15  O3'   D T 601      -2.987  -3.343  -4.623  1.00 30.30    -0.218 OA
HETATM   16  C4'   D T 601      -4.058  -4.827  -6.261  1.00 31.54     0.183 C 
HETATM   17  O4'   D T 601      -5.044  -4.601  -7.307  1.00 29.87    -0.331 OA
BRANCH  16  18
HETATM   18  C5'   D T 601      -4.348  -6.124  -5.548  1.00 31.76     0.214 C 
HETATM   19  O5'   D T 601      -5.738  -6.402  -5.541  1.00 34.06    -0.218 OA
ENDBRANCH  16  18
ENDBRANCH  10  11
BRANCH   8  20
HETATM   20  C10   D T 601      -9.290  -1.007  -5.245  1.00 29.97     0.268 C 
HETATM   21  N11   D T 601      -9.912   0.131  -5.955  1.00 35.69    -0.057 NA
HETATM   22  O12   D T 601      -9.387  -1.110  -4.024  1.00 30.21    -0.271 OA
ENDBRANCH   8  20
TORSDOF 3
ENDMDL
