MODEL 1
REMARK VINA RESULT:    -7.364      0.000      0.000
REMARK INTER + INTRA:          -9.190
REMARK INTER:                  -8.656
REMARK INTRA:                  -0.534
REMARK UNBOUND:                -0.534
REMARK  3 active torsions:
REMARK  status: ('A' for Active; 'I' for Inactive)
REMARK    1  A    between atoms: C7_8  and  C10_12 
REMARK    2  A    between atoms: N9_10  and  C1'_11 
REMARK    3  A    between atoms: C4'_19  and  C5'_21 
ROOT
HETATM    1  N1    D T 601      -1.369  -4.357  11.869  1.00 22.46    -0.210 NA
HETATM    2  C2    D T 601      -0.862  -3.135  12.242  1.00 17.33     0.201 A 
HETATM    3  N3    D T 601      -1.596  -1.997  12.004  1.00 21.38    -0.207 NA
HETATM    4  C4    D T 601      -2.821  -2.101  11.398  1.00 21.15     0.150 A 
HETATM    5  C5    D T 601      -3.324  -3.313  11.037  1.00 22.48     0.071 A 
HETATM    6  C6    D T 601      -2.578  -4.455  11.274  1.00 22.92     0.156 A 
HETATM    7  N6    D T 601      -2.615  -5.891  11.111  1.00 23.12    -0.080 NA
HETATM    8  C7    D T 601      -4.562  -3.110  10.456  1.00 19.57     0.076 A 
HETATM    9  C8    D T 601      -4.822  -1.758  10.463  1.00 12.70     0.084 A 
HETATM   10  N9    D T 601      -3.772  -1.145  11.063  1.00 22.69    -0.287 N 
ENDROOT
BRANCH  10  11
HETATM   11  C1'   D T 601      -3.550   0.301  11.253  1.00 23.36     0.240 C 
HETATM   12  C2'   D T 601      -2.316   0.729  10.463  1.00 24.93     0.234 C 
HETATM   13  O2'   D T 601      -1.792   1.908  11.052  1.00 35.12    -0.216 OA
HETATM   14  C3'   D T 601      -2.944   1.035   9.120  1.00 25.54     0.216 C 
HETATM   15  O3'   D T 601      -2.118   1.808   8.273  1.00 30.30    -0.218 OA
HETATM   16  C4'   D T 601      -4.228   1.738   9.529  1.00 31.54     0.183 C 
HETATM   17  O4'   D T 601      -4.650   1.012  10.718  1.00 29.87    -0.331 OA
BRANCH  16  18
HETATM   18  C5'   D T 601      -5.341   1.757   8.512  1.00 31.76     0.214 C 
HETATM   19  O5'   D T 601      -5.387   0.539   7.786  1.00 34.06    -0.218 OA
ENDBRANCH  16  18
ENDBRANCH  10  11
BRANCH   8  20
HETATM   20  C10   D T 601      -5.630  -4.052   9.837  1.00 29.97     0.268 C 
HETATM   21  N11   D T 601      -6.206  -3.724   8.515  1.00 35.69    -0.057 NA
HETATM   22  O12   D T 601      -5.985  -5.063  10.440  1.00 30.21    -0.271 OA
ENDBRANCH   8  20
TORSDOF 3
ENDMDL
MODEL 2
REMARK VINA RESULT:    -7.260      2.045      2.988
REMARK INTER + INTRA:          -9.068
REMARK INTER:                  -8.658
REMARK INTRA:                  -0.410
REMARK UNBOUND:                -0.534
REMARK  3 active torsions:
REMARK  status: ('A' for Active; 'I' for Inactive)
REMARK    1  A    between atoms: C7_8  and  C10_12 
REMARK    2  A    between atoms: N9_10  and  C1'_11 
REMARK    3  A    between atoms: C4'_19  and  C5'_21 
ROOT
HETATM    1  N1    D T 601      -4.068  -5.046  10.843  1.00 22.46    -0.210 NA
HETATM    2  C2    D T 601      -2.788  -4.914  11.327  1.00 17.33     0.201 A 
HETATM    3  N3    D T 601      -2.204  -3.671  11.364  1.00 21.38    -0.207 NA
HETATM    4  C4    D T 601      -2.906  -2.583  10.916  1.00 21.15     0.150 A 
HETATM    5  C5    D T 601      -4.177  -2.715  10.444  1.00 22.48     0.071 A 
HETATM    6  C6    D T 601      -4.759  -3.971  10.404  1.00 22.92     0.156 A 
HETATM    7  N6    D T 601      -5.982  -4.645  10.032  1.00 23.12    -0.080 NA
HETATM    8  C7    D T 601      -4.629  -1.463  10.070  1.00 19.57     0.076 A 
HETATM    9  C8    D T 601      -3.626  -0.553  10.317  1.00 12.70     0.084 A 
HETATM   10  N9    D T 601      -2.585  -1.232  10.859  1.00 22.69    -0.287 N 
ENDROOT
BRANCH  10  11
HETATM   11  C1'   D T 601      -1.257  -0.713  11.236  1.00 23.36     0.240 C 
HETATM   12  C2'   D T 601      -0.254  -1.047  10.134  1.00 24.93     0.234 C 
HETATM   13  O2'   D T 601       1.046  -1.061  10.699  1.00 35.12    -0.216 OA
HETATM   14  C3'   D T 601      -0.431   0.153   9.229  1.00 25.54     0.216 C 
HETATM   15  O3'   D T 601       0.622   0.323   8.303  1.00 30.30    -0.218 OA
HETATM   16  C4'   D T 601      -0.551   1.287  10.235  1.00 31.54     0.183 C 
HETATM   17  O4'   D T 601      -1.320   0.698  11.321  1.00 29.87    -0.331 OA
BRANCH  16  18
HETATM   18  C5'   D T 601      -1.219   2.549   9.753  1.00 31.76     0.214 C 
HETATM   19  O5'   D T 601      -2.248   2.256   8.820  1.00 34.06    -0.218 OA
ENDBRANCH  16  18
ENDBRANCH  10  11
BRANCH   8  20
HETATM   20  C10   D T 601      -5.957  -0.934   9.461  1.00 29.97     0.268 C 
HETATM   21  N11   D T 601      -6.002   0.434   8.901  1.00 35.69    -0.057 NA
HETATM   22  O12   D T 601      -6.955  -1.651   9.441  1.00 30.21    -0.271 OA
ENDBRANCH   8  20
TORSDOF 3
ENDMDL
MODEL 3
REMARK VINA RESULT:    -7.115      2.629      4.486
REMARK INTER + INTRA:          -8.898
REMARK INTER:                  -8.383
REMARK INTRA:                  -0.515
REMARK UNBOUND:                -0.534
REMARK  3 active torsions:
REMARK  status: ('A' for Active; 'I' for Inactive)
REMARK    1  A    between atoms: C7_8  and  C10_12 
REMARK    2  A    between atoms: N9_10  and  C1'_11 
REMARK    3  A    between atoms: C4'_19  and  C5'_21 
ROOT
HETATM    1  N1    D T 601      -5.366  -4.950   9.967  1.00 22.46    -0.210 NA
HETATM    2  C2    D T 601      -4.310  -5.489  10.662  1.00 17.33     0.201 A 
HETATM    3  N3    D T 601      -3.307  -4.665  11.114  1.00 21.38    -0.207 NA
HETATM    4  C4    D T 601      -3.376  -3.319  10.863  1.00 21.15     0.150 A 
HETATM    5  C5    D T 601      -4.427  -2.787  10.181  1.00 22.48     0.071 A 
HETATM    6  C6    D T 601      -5.432  -3.623   9.723  1.00 22.92     0.156 A 
HETATM    7  N6    D T 601      -6.684  -3.605   9.001  1.00 23.12    -0.080 NA
HETATM    8  C7    D T 601      -4.229  -1.423  10.082  1.00 19.57     0.076 A 
HETATM    9  C8    D T 601      -3.045  -1.114  10.712  1.00 12.70     0.084 A 
HETATM   10  N9    D T 601      -2.538  -2.268  11.213  1.00 22.69    -0.287 N 
ENDROOT
BRANCH  10  11
HETATM   11  C1'   D T 601      -1.257  -2.469  11.915  1.00 23.36     0.240 C 
HETATM   12  C2'   D T 601      -0.386  -3.430  11.109  1.00 24.93     0.234 C 
HETATM   13  O2'   D T 601       0.544  -4.040  11.989  1.00 35.12    -0.216 OA
HETATM   14  C3'   D T 601       0.311  -2.457  10.184  1.00 25.54     0.216 C 
HETATM   15  O3'   D T 601       1.458  -2.995   9.558  1.00 30.30    -0.218 OA
HETATM   16  C4'   D T 601       0.611  -1.298  11.120  1.00 31.54     0.183 C 
HETATM   17  O4'   D T 601      -0.564  -1.237  11.976  1.00 29.87    -0.331 OA
BRANCH  16  18
HETATM   18  C5'   D T 601       0.853   0.045  10.477  1.00 31.76     0.214 C 
HETATM   19  O5'   D T 601       0.005   0.231   9.355  1.00 34.06    -0.218 OA
ENDBRANCH  16  18
ENDBRANCH  10  11
BRANCH   8  20
HETATM   20  C10   D T 601      -5.032  -0.261   9.433  1.00 29.97     0.268 C 
HETATM   21  N11   D T 601      -5.153   1.024  10.153  1.00 35.69    -0.057 NA
HETATM   22  O12   D T 601      -5.553  -0.412   8.330  1.00 30.21    -0.271 OA
ENDBRANCH   8  20
TORSDOF 3
ENDMDL
MODEL 4
REMARK VINA RESULT:    -6.986      2.456      4.886
REMARK INTER + INTRA:          -8.745
REMARK INTER:                  -8.258
REMARK INTRA:                  -0.487
REMARK UNBOUND:                -0.534
REMARK  3 active torsions:
REMARK  status: ('A' for Active; 'I' for Inactive)
REMARK    1  A    between atoms: C7_8  and  C10_12 
REMARK    2  A    between atoms: N9_10  and  C1'_11 
REMARK    3  A    between atoms: C4'_19  and  C5'_21 
ROOT
HETATM    1  N1    D T 601      -5.983   0.572   8.943  1.00 22.46    -0.210 NA
HETATM    2  C2    D T 601      -5.203   1.640   8.569  1.00 17.33     0.201 A 
HETATM    3  N3    D T 601      -3.858   1.628   8.855  1.00 21.38    -0.207 NA
HETATM    4  C4    D T 601      -3.319   0.551   9.510  1.00 21.15     0.150 A 
HETATM    5  C5    D T 601      -4.093  -0.508   9.873  1.00 22.48     0.071 A 
HETATM    6  C6    D T 601      -5.448  -0.488   9.587  1.00 22.92     0.156 A 
HETATM    7  N6    D T 601      -6.651  -1.277   9.728  1.00 23.12    -0.080 NA
HETATM    8  C7    D T 601      -3.287  -1.433  10.508  1.00 19.57     0.076 A 
HETATM    9  C8    D T 601      -2.002  -0.938  10.533  1.00 12.70     0.084 A 
HETATM   10  N9    D T 601      -2.017   0.262   9.900  1.00 22.69    -0.287 N 
ENDROOT
BRANCH  10  11
HETATM   11  C1'   D T 601      -0.903   1.211   9.723  1.00 23.36     0.240 C 
HETATM   12  C2'   D T 601      -1.086   2.387  10.679  1.00 24.93     0.234 C 
HETATM   13  O2'   D T 601      -0.388   3.505  10.156  1.00 35.12    -0.216 OA
HETATM   14  C3'   D T 601      -0.391   1.850  11.911  1.00 25.54     0.216 C 
HETATM   15  O3'   D T 601      -0.069   2.847  12.859  1.00 30.30    -0.218 OA
HETATM   16  C4'   D T 601       0.824   1.163  11.308  1.00 31.54     0.183 C 
HETATM   17  O4'   D T 601       0.308   0.574  10.082  1.00 29.87    -0.331 OA
BRANCH  16  18
HETATM   18  C5'   D T 601       1.489   0.105  12.151  1.00 31.76     0.214 C 
HETATM   19  O5'   D T 601       0.567  -0.474  13.062  1.00 34.06    -0.218 OA
ENDBRANCH  16  18
ENDBRANCH  10  11
BRANCH   8  20
HETATM   20  C10   D T 601      -3.542  -2.822  11.156  1.00 29.97     0.268 C 
HETATM   21  N11   D T 601      -2.651  -3.289  12.240  1.00 35.69    -0.057 NA
HETATM   22  O12   D T 601      -4.479  -3.519  10.773  1.00 30.21    -0.271 OA
ENDBRANCH   8  20
TORSDOF 3
ENDMDL
MODEL 5
REMARK VINA RESULT:    -6.916      2.232      3.481
REMARK INTER + INTRA:          -8.663
REMARK INTER:                  -8.146
REMARK INTRA:                  -0.517
REMARK UNBOUND:                -0.534
REMARK  3 active torsions:
REMARK  status: ('A' for Active; 'I' for Inactive)
REMARK    1  A    between atoms: C7_8  and  C10_12 
REMARK    2  A    between atoms: N9_10  and  C1'_11 
REMARK    3  A    between atoms: C4'_19  and  C5'_21 
ROOT
HETATM    1  N1    D T 601      -3.871  -5.287  11.148  1.00 22.46    -0.210 NA
HETATM    2  C2    D T 601      -2.565  -5.308  11.577  1.00 17.33     0.201 A 
HETATM    3  N3    D T 601      -1.856  -4.132  11.643  1.00 21.38    -0.207 NA
HETATM    4  C4    D T 601      -2.463  -2.959  11.279  1.00 21.15     0.150 A 
HETATM    5  C5    D T 601      -3.759  -2.940  10.862  1.00 22.48     0.071 A 
HETATM    6  C6    D T 601      -4.466  -4.128  10.792  1.00 22.92     0.156 A 
HETATM    7  N6    D T 601      -5.766  -4.658  10.446  1.00 23.12    -0.080 NA
HETATM    8  C7    D T 601      -4.096  -1.633  10.566  1.00 19.57     0.076 A 
HETATM    9  C8    D T 601      -2.997  -0.840  10.807  1.00 12.70     0.084 A 
HETATM   10  N9    D T 601      -2.008  -1.646  11.268  1.00 22.69    -0.287 N 
ENDROOT
BRANCH  10  11
HETATM   11  C1'   D T 601      -0.620  -1.281  11.606  1.00 23.36     0.240 C 
HETATM   12  C2'   D T 601       0.310  -1.750  10.490  1.00 24.93     0.234 C 
HETATM   13  O2'   D T 601       1.613  -1.909  11.028  1.00 35.12    -0.216 OA
HETATM   14  C3'   D T 601       0.255  -0.553   9.565  1.00 25.54     0.216 C 
HETATM   15  O3'   D T 601       1.299  -0.526   8.614  1.00 30.30    -0.218 OA
HETATM   16  C4'   D T 601       0.293   0.603  10.551  1.00 31.54     0.183 C 
HETATM   17  O4'   D T 601      -0.514   0.129  11.665  1.00 29.87    -0.331 OA
BRANCH  16  18
HETATM   18  C5'   D T 601      -0.233   1.928  10.058  1.00 31.76     0.214 C 
HETATM   19  O5'   D T 601      -1.343   2.354  10.831  1.00 34.06    -0.218 OA
ENDBRANCH  16  18
ENDBRANCH  10  11
BRANCH   8  20
HETATM   20  C10   D T 601      -5.388  -0.944  10.045  1.00 29.97     0.268 C 
HETATM   21  N11   D T 601      -5.591  -0.796   8.588  1.00 35.69    -0.057 NA
HETATM   22  O12   D T 601      -6.232  -0.534  10.839  1.00 30.21    -0.271 OA
ENDBRANCH   8  20
TORSDOF 3
ENDMDL
MODEL 6
REMARK VINA RESULT:    -6.797      1.924      3.736
REMARK INTER + INTRA:          -8.523
REMARK INTER:                  -8.346
REMARK INTRA:                  -0.177
REMARK UNBOUND:                -0.534
REMARK  3 active torsions:
REMARK  status: ('A' for Active; 'I' for Inactive)
REMARK    1  A    between atoms: C7_8  and  C10_12 
REMARK    2  A    between atoms: N9_10  and  C1'_11 
REMARK    3  A    between atoms: C4'_19  and  C5'_21 
ROOT
HETATM    1  N1    D T 601      -6.304  -3.929   9.614  1.00 22.46    -0.210 NA
HETATM    2  C2    D T 601      -6.582  -2.776   8.919  1.00 17.33     0.201 A 
HETATM    3  N3    D T 601      -5.726  -1.705   9.019  1.00 21.38    -0.207 NA
HETATM    4  C4    D T 601      -4.612  -1.804   9.811  1.00 21.15     0.150 A 
HETATM    5  C5    D T 601      -4.336  -2.950  10.492  1.00 22.48     0.071 A 
HETATM    6  C6    D T 601      -5.204  -4.024  10.392  1.00 22.92     0.156 A 
HETATM    7  N6    D T 601      -5.393  -5.380  10.858  1.00 23.12    -0.080 NA
HETATM    8  C7    D T 601      -3.162  -2.760  11.196  1.00 19.57     0.076 A 
HETATM    9  C8    D T 601      -2.711  -1.484  10.942  1.00 12.70     0.084 A 
HETATM   10  N9    D T 601      -3.582  -0.910  10.075  1.00 22.69    -0.287 N 
ENDROOT
BRANCH  10  11
HETATM   11  C1'   D T 601      -3.569   0.469   9.553  1.00 23.36     0.240 C 
HETATM   12  C2'   D T 601      -3.290   1.439  10.698  1.00 24.93     0.234 C 
HETATM   13  O2'   D T 601      -3.807   2.711  10.346  1.00 35.12    -0.216 OA
HETATM   14  C3'   D T 601      -1.776   1.453  10.683  1.00 25.54     0.216 C 
HETATM   15  O3'   D T 601      -1.215   2.541  11.388  1.00 30.30    -0.218 OA
HETATM   16  C4'   D T 601      -1.481   1.472   9.192  1.00 31.54     0.183 C 
HETATM   17  O4'   D T 601      -2.504   0.603   8.630  1.00 29.87    -0.331 OA
BRANCH  16  18
HETATM   18  C5'   D T 601      -0.113   0.999   8.769  1.00 31.76     0.214 C 
HETATM   19  O5'   D T 601       0.057  -0.382   9.047  1.00 34.06    -0.218 OA
ENDBRANCH  16  18
ENDBRANCH  10  11
BRANCH   8  20
HETATM   20  C10   D T 601      -2.323  -3.650  12.154  1.00 29.97     0.268 C 
HETATM   21  N11   D T 601      -2.181  -5.093  11.863  1.00 35.69    -0.057 NA
HETATM   22  O12   D T 601      -1.780  -3.154  13.139  1.00 30.21    -0.271 OA
ENDBRANCH   8  20
TORSDOF 3
ENDMDL
MODEL 7
REMARK VINA RESULT:    -6.740      2.824      4.659
REMARK INTER + INTRA:          -8.456
REMARK INTER:                  -8.166
REMARK INTRA:                  -0.291
REMARK UNBOUND:                -0.534
REMARK  3 active torsions:
REMARK  status: ('A' for Active; 'I' for Inactive)
REMARK    1  A    between atoms: C7_8  and  C10_12 
REMARK    2  A    between atoms: N9_10  and  C1'_11 
REMARK    3  A    between atoms: C4'_19  and  C5'_21 
ROOT
HETATM    1  N1    D T 601      -4.709   0.619  10.025  1.00 22.46    -0.210 NA
HETATM    2  C2    D T 601      -3.470   0.953  10.517  1.00 17.33     0.201 A 
HETATM    3  N3    D T 601      -2.608  -0.043  10.910  1.00 21.38    -0.207 NA
HETATM    4  C4    D T 601      -2.998  -1.352  10.805  1.00 21.15     0.150 A 
HETATM    5  C5    D T 601      -4.224  -1.681  10.310  1.00 22.48     0.071 A 
HETATM    6  C6    D T 601      -5.090  -0.673   9.921  1.00 22.92     0.156 A 
HETATM    7  N6    D T 601      -6.409  -0.459   9.370  1.00 23.12    -0.080 NA
HETATM    8  C7    D T 601      -4.337  -3.058  10.322  1.00 19.57     0.076 A 
HETATM    9  C8    D T 601      -3.169  -3.581  10.827  1.00 12.70     0.084 A 
HETATM   10  N9    D T 601      -2.341  -2.541  11.097  1.00 22.69    -0.287 N 
ENDROOT
BRANCH  10  11
HETATM   11  C1'   D T 601      -1.001  -2.581  11.711  1.00 23.36     0.240 C 
HETATM   12  C2'   D T 601      -0.280  -3.851  11.265  1.00 24.93     0.234 C 
HETATM   13  O2'   D T 601       0.710  -4.168  12.229  1.00 35.12    -0.216 OA
HETATM   14  C3'   D T 601       0.357  -3.369   9.980  1.00 25.54     0.216 C 
HETATM   15  O3'   D T 601       1.395  -4.207   9.515  1.00 30.30    -0.218 OA
HETATM   16  C4'   D T 601       0.824  -1.975  10.369  1.00 31.54     0.183 C 
HETATM   17  O4'   D T 601      -0.240  -1.487  11.232  1.00 29.87    -0.331 OA
BRANCH  16  18
HETATM   18  C5'   D T 601       1.062  -1.004   9.241  1.00 31.76     0.214 C 
HETATM   19  O5'   D T 601       0.614   0.297   9.587  1.00 34.06    -0.218 OA
ENDBRANCH  16  18
ENDBRANCH  10  11
BRANCH   8  20
HETATM   20  C10   D T 601      -5.459  -4.051   9.909  1.00 29.97     0.268 C 
HETATM   21  N11   D T 601      -6.131  -3.880   8.603  1.00 35.69    -0.057 NA
HETATM   22  O12   D T 601      -5.775  -4.972  10.659  1.00 30.21    -0.271 OA
ENDBRANCH   8  20
TORSDOF 3
ENDMDL
MODEL 8
REMARK VINA RESULT:    -6.703      1.491      2.997
REMARK INTER + INTRA:          -8.413
REMARK INTER:                  -8.250
REMARK INTRA:                  -0.162
REMARK UNBOUND:                -0.534
REMARK  3 active torsions:
REMARK  status: ('A' for Active; 'I' for Inactive)
REMARK    1  A    between atoms: C7_8  and  C10_12 
REMARK    2  A    between atoms: N9_10  and  C1'_11 
REMARK    3  A    between atoms: C4'_19  and  C5'_21 
ROOT
HETATM    1  N1    D T 601      -6.182  -3.523   9.341  1.00 22.46    -0.210 NA
HETATM    2  C2    D T 601      -6.461  -2.178   9.301  1.00 17.33     0.201 A 
HETATM    3  N3    D T 601      -5.570  -1.287   9.852  1.00 21.38    -0.207 NA
HETATM    4  C4    D T 601      -4.421  -1.755  10.433  1.00 21.15     0.150 A 
HETATM    5  C5    D T 601      -4.144  -3.088  10.464  1.00 22.48     0.071 A 
HETATM    6  C6    D T 601      -5.047  -3.982   9.913  1.00 22.92     0.156 A 
HETATM    7  N6    D T 601      -5.252  -5.394   9.684  1.00 23.12    -0.080 NA
HETATM    8  C7    D T 601      -2.931  -3.261  11.104  1.00 19.57     0.076 A 
HETATM    9  C8    D T 601      -2.457  -2.020  11.466  1.00 12.70     0.084 A 
HETATM   10  N9    D T 601      -3.353  -1.099  11.033  1.00 22.69    -0.287 N 
ENDROOT
BRANCH  10  11
HETATM   11  C1'   D T 601      -3.326   0.361  11.234  1.00 23.36     0.240 C 
HETATM   12  C2'   D T 601      -1.941   0.893  10.874  1.00 24.93     0.234 C 
HETATM   13  O2'   D T 601      -1.738   2.118  11.560  1.00 35.12    -0.216 OA
HETATM   14  C3'   D T 601      -2.117   1.134   9.390  1.00 25.54     0.216 C 
HETATM   15  O3'   D T 601      -1.126   1.971   8.831  1.00 30.30    -0.218 OA
HETATM   16  C4'   D T 601      -3.518   1.721   9.334  1.00 31.54     0.183 C 
HETATM   17  O4'   D T 601      -4.244   0.968  10.345  1.00 29.87    -0.331 OA
BRANCH  16  18
HETATM   18  C5'   D T 601      -4.234   1.635   8.010  1.00 31.76     0.214 C 
HETATM   19  O5'   D T 601      -5.562   2.124   8.116  1.00 34.06    -0.218 OA
ENDBRANCH  16  18
ENDBRANCH  10  11
BRANCH   8  20
HETATM   20  C10   D T 601      -2.072  -4.502  11.468  1.00 29.97     0.268 C 
HETATM   21  N11   D T 601      -1.735  -5.484  10.415  1.00 35.69    -0.057 NA
HETATM   22  O12   D T 601      -1.672  -4.660  12.621  1.00 30.21    -0.271 OA
ENDBRANCH   8  20
TORSDOF 3
ENDMDL
MODEL 9
REMARK VINA RESULT:    -6.453      2.777      4.686
REMARK INTER + INTRA:          -8.119
REMARK INTER:                  -7.858
REMARK INTRA:                  -0.261
REMARK UNBOUND:                -0.534
REMARK  3 active torsions:
REMARK  status: ('A' for Active; 'I' for Inactive)
REMARK    1  A    between atoms: C7_8  and  C10_12 
REMARK    2  A    between atoms: N9_10  and  C1'_11 
REMARK    3  A    between atoms: C4'_19  and  C5'_21 
ROOT
HETATM    1  N1    D T 601      -5.595   0.795   9.631  1.00 22.46    -0.210 NA
HETATM    2  C2    D T 601      -4.594   1.684   9.943  1.00 17.33     0.201 A 
HETATM    3  N3    D T 601      -3.397   1.211  10.426  1.00 21.38    -0.207 NA
HETATM    4  C4    D T 601      -3.222  -0.138  10.591  1.00 21.15     0.150 A 
HETATM    5  C5    D T 601      -4.213  -1.017  10.274  1.00 22.48     0.071 A 
HETATM    6  C6    D T 601      -5.419  -0.535   9.793  1.00 22.92     0.156 A 
HETATM    7  N6    D T 601      -6.716  -0.976   9.333  1.00 23.12    -0.080 NA
HETATM    8  C7    D T 601      -3.756  -2.294  10.540  1.00 19.57     0.076 A 
HETATM    9  C8    D T 601      -2.470  -2.198  11.022  1.00 12.70     0.084 A 
HETATM   10  N9    D T 601      -2.134  -0.884  11.027  1.00 22.69    -0.287 N 
ENDROOT
BRANCH  10  11
HETATM   11  C1'   D T 601      -0.888  -0.266  11.515  1.00 23.36     0.240 C 
HETATM   12  C2'   D T 601       0.012  -1.347  12.108  1.00 24.93     0.234 C 
HETATM   13  O2'   D T 601       0.898  -0.738  13.033  1.00 35.12    -0.216 OA
HETATM   14  C3'   D T 601       0.757  -1.795  10.869  1.00 25.54     0.216 C 
HETATM   15  O3'   D T 601       1.927  -2.535  11.149  1.00 30.30    -0.218 OA
HETATM   16  C4'   D T 601       1.022  -0.471  10.170  1.00 31.54     0.183 C 
HETATM   17  O4'   D T 601      -0.190   0.295  10.419  1.00 29.87    -0.331 OA
BRANCH  16  18
HETATM   18  C5'   D T 601       1.301  -0.533   8.690  1.00 31.76     0.214 C 
HETATM   19  O5'   D T 601       2.694  -0.629   8.438  1.00 34.06    -0.218 OA
ENDBRANCH  16  18
ENDBRANCH  10  11
BRANCH   8  20
HETATM   20  C10   D T 601      -4.380  -3.711  10.411  1.00 29.97     0.268 C 
HETATM   21  N11   D T 601      -5.293  -3.999   9.285  1.00 35.69    -0.057 NA
HETATM   22  O12   D T 601      -4.110  -4.581  11.236  1.00 30.21    -0.271 OA
ENDBRANCH   8  20
TORSDOF 3
ENDMDL
