MODEL 1
REMARK VINA RESULT:    -6.493      0.000      0.000
REMARK INTER + INTRA:          -8.156
REMARK INTER:                  -7.632
REMARK INTRA:                  -0.524
REMARK UNBOUND:                -0.524
REMARK  3 active torsions:
REMARK  status: ('A' for Active; 'I' for Inactive)
REMARK    1  A    between atoms: C7_8  and  C10_12 
REMARK    2  A    between atoms: N9_10  and  C1'_11 
REMARK    3  A    between atoms: C4'_19  and  C5'_21 
ROOT
HETATM    1  N1    D T 601     -14.355   0.974  -6.670  1.00 22.46    -0.210 NA
HETATM    2  C2    D T 601     -15.319   1.698  -6.012  1.00 17.33     0.201 A 
HETATM    3  N3    D T 601     -14.961   2.833  -5.325  1.00 21.38    -0.207 NA
HETATM    4  C4    D T 601     -13.646   3.223  -5.307  1.00 21.15     0.150 A 
HETATM    5  C5    D T 601     -12.695   2.507  -5.966  1.00 22.48     0.071 A 
HETATM    6  C6    D T 601     -13.061   1.361  -6.651  1.00 22.92     0.156 A 
HETATM    7  N6    D T 601     -12.513   0.298  -7.464  1.00 23.12    -0.080 NA
HETATM    8  C7    D T 601     -11.476   3.132  -5.775  1.00 19.57     0.076 A 
HETATM    9  C8    D T 601     -11.683   4.244  -4.991  1.00 12.70     0.084 A 
HETATM   10  N9    D T 601     -13.012   4.315  -4.728  1.00 22.69    -0.287 N 
ENDROOT
BRANCH  10  11
HETATM   11  C1'   D T 601     -13.720   5.291  -3.878  1.00 23.36     0.240 C 
HETATM   12  C2'   D T 601     -13.875   4.713  -2.473  1.00 24.93     0.234 C 
HETATM   13  O2'   D T 601     -14.977   5.348  -1.845  1.00 35.12    -0.216 OA
HETATM   14  C3'   D T 601     -12.572   5.164  -1.846  1.00 25.54     0.216 C 
HETATM   15  O3'   D T 601     -12.571   5.101  -0.435  1.00 30.30    -0.218 OA
HETATM   16  C4'   D T 601     -12.434   6.574  -2.396  1.00 31.54     0.183 C 
HETATM   17  O4'   D T 601     -12.933   6.458  -3.759  1.00 29.87    -0.331 OA
BRANCH  16  18
HETATM   18  C5'   D T 601     -11.045   7.163  -2.402  1.00 31.76     0.214 C 
HETATM   19  O5'   D T 601     -10.060   6.144  -2.377  1.00 34.06    -0.218 OA
ENDBRANCH  16  18
ENDBRANCH  10  11
BRANCH   8  20
HETATM   20  C10   D T 601     -10.025   2.829  -6.239  1.00 29.97     0.268 C 
HETATM   21  N11   D T 601      -8.910   2.998  -5.282  1.00 35.69    -0.057 NA
HETATM   22  O12   D T 601      -9.810   2.448  -7.387  1.00 30.21    -0.271 OA
ENDBRANCH   8  20
TORSDOF 3
ENDMDL
MODEL 2
REMARK VINA RESULT:    -6.414      2.524      4.134
REMARK INTER + INTRA:          -8.063
REMARK INTER:                  -7.597
REMARK INTRA:                  -0.466
REMARK UNBOUND:                -0.524
REMARK  3 active torsions:
REMARK  status: ('A' for Active; 'I' for Inactive)
REMARK    1  A    between atoms: C7_8  and  C10_12 
REMARK    2  A    between atoms: N9_10  and  C1'_11 
REMARK    3  A    between atoms: C4'_19  and  C5'_21 
ROOT
HETATM    1  N1    D T 601     -11.793   2.863  -5.243  1.00 22.46    -0.210 NA
HETATM    2  C2    D T 601     -12.944   2.172  -4.948  1.00 17.33     0.201 A 
HETATM    3  N3    D T 601     -13.862   2.724  -4.089  1.00 21.38    -0.207 NA
HETATM    4  C4    D T 601     -13.615   3.955  -3.538  1.00 21.15     0.150 A 
HETATM    5  C5    D T 601     -12.477   4.640  -3.838  1.00 22.48     0.071 A 
HETATM    6  C6    D T 601     -11.552   4.076  -4.700  1.00 22.92     0.156 A 
HETATM    7  N6    D T 601     -10.273   4.334  -5.323  1.00 23.12    -0.080 NA
HETATM    8  C7    D T 601     -12.500   5.837  -3.146  1.00 19.57     0.076 A 
HETATM    9  C8    D T 601     -13.666   5.887  -2.415  1.00 12.70     0.084 A 
HETATM   10  N9    D T 601     -14.359   4.750  -2.676  1.00 22.69    -0.287 N 
ENDROOT
BRANCH  10  11
HETATM   11  C1'   D T 601     -15.636   4.310  -2.086  1.00 23.36     0.240 C 
HETATM   12  C2'   D T 601     -15.359   3.567  -0.781  1.00 24.93     0.234 C 
HETATM   13  O2'   D T 601     -16.449   2.700  -0.516  1.00 35.12    -0.216 OA
HETATM   14  C3'   D T 601     -15.346   4.724   0.195  1.00 25.54     0.216 C 
HETATM   15  O3'   D T 601     -15.477   4.328   1.545  1.00 30.30    -0.218 OA
HETATM   16  C4'   D T 601     -16.504   5.570  -0.309  1.00 31.54     0.183 C 
HETATM   17  O4'   D T 601     -16.411   5.445  -1.757  1.00 29.87    -0.331 OA
BRANCH  16  18
HETATM   18  C5'   D T 601     -16.501   7.025   0.087  1.00 31.76     0.214 C 
HETATM   19  O5'   D T 601     -15.181   7.482   0.333  1.00 34.06    -0.218 OA
ENDBRANCH  16  18
ENDBRANCH  10  11
BRANCH   8  20
HETATM   20  C10   D T 601     -11.524   7.041  -3.042  1.00 29.97     0.268 C 
HETATM   21  N11   D T 601     -10.213   6.855  -2.384  1.00 35.69    -0.057 NA
HETATM   22  O12   D T 601     -11.840   8.134  -3.508  1.00 30.21    -0.271 OA
ENDBRANCH   8  20
TORSDOF 3
ENDMDL
MODEL 3
REMARK VINA RESULT:    -6.343      3.382      6.902
REMARK INTER + INTRA:          -7.980
REMARK INTER:                  -7.407
REMARK INTRA:                  -0.573
REMARK UNBOUND:                -0.524
REMARK  3 active torsions:
REMARK  status: ('A' for Active; 'I' for Inactive)
REMARK    1  A    between atoms: C7_8  and  C10_12 
REMARK    2  A    between atoms: N9_10  and  C1'_11 
REMARK    3  A    between atoms: C4'_19  and  C5'_21 
ROOT
HETATM    1  N1    D T 601      -9.013   2.351  -7.017  1.00 22.46    -0.210 NA
HETATM    2  C2    D T 601      -9.071   1.271  -7.865  1.00 17.33     0.201 A 
HETATM    3  N3    D T 601     -10.290   0.710  -8.163  1.00 21.38    -0.207 NA
HETATM    4  C4    D T 601     -11.428   1.238  -7.610  1.00 21.15     0.150 A 
HETATM    5  C5    D T 601     -11.368   2.313  -6.777  1.00 22.48     0.071 A 
HETATM    6  C6    D T 601     -10.136   2.869  -6.474  1.00 22.92     0.156 A 
HETATM    7  N6    D T 601      -9.527   3.934  -5.710  1.00 23.12    -0.080 NA
HETATM    8  C7    D T 601     -12.655   2.621  -6.378  1.00 19.57     0.076 A 
HETATM    9  C8    D T 601     -13.515   1.727  -6.976  1.00 12.70     0.084 A 
HETATM   10  N9    D T 601     -12.768   0.900  -7.749  1.00 22.69    -0.287 N 
ENDROOT
BRANCH  10  11
HETATM   11  C1'   D T 601     -13.220  -0.261  -8.537  1.00 23.36     0.240 C 
HETATM   12  C2'   D T 601     -12.917  -1.543  -7.764  1.00 24.93     0.234 C 
HETATM   13  O2'   D T 601     -12.826  -2.615  -8.689  1.00 35.12    -0.216 OA
HETATM   14  C3'   D T 601     -14.174  -1.663  -6.929  1.00 25.54     0.216 C 
HETATM   15  O3'   D T 601     -14.363  -2.947  -6.372  1.00 30.30    -0.218 OA
HETATM   16  C4'   D T 601     -15.250  -1.264  -7.927  1.00 31.54     0.183 C 
HETATM   17  O4'   D T 601     -14.623  -0.197  -8.694  1.00 29.87    -0.331 OA
BRANCH  16  18
HETATM   18  C5'   D T 601     -16.561  -0.789  -7.352  1.00 31.76     0.214 C 
HETATM   19  O5'   D T 601     -16.368  -0.167  -6.093  1.00 34.06    -0.218 OA
ENDBRANCH  16  18
ENDBRANCH  10  11
BRANCH   8  20
HETATM   20  C10   D T 601     -13.265   3.704  -5.446  1.00 29.97     0.268 C 
HETATM   21  N11   D T 601     -12.858   3.747  -4.025  1.00 35.69    -0.057 NA
HETATM   22  O12   D T 601     -14.072   4.518  -5.889  1.00 30.21    -0.271 OA
ENDBRANCH   8  20
TORSDOF 3
ENDMDL
MODEL 4
REMARK VINA RESULT:    -6.331      4.718      7.399
REMARK INTER + INTRA:          -7.965
REMARK INTER:                  -7.500
REMARK INTRA:                  -0.466
REMARK UNBOUND:                -0.524
REMARK  3 active torsions:
REMARK  status: ('A' for Active; 'I' for Inactive)
REMARK    1  A    between atoms: C7_8  and  C10_12 
REMARK    2  A    between atoms: N9_10  and  C1'_11 
REMARK    3  A    between atoms: C4'_19  and  C5'_21 
ROOT
HETATM    1  N1    D T 601     -19.123   2.771   0.280  1.00 22.46    -0.210 NA
HETATM    2  C2    D T 601     -18.173   2.079  -0.432  1.00 17.33     0.201 A 
HETATM    3  N3    D T 601     -16.924   2.624  -0.600  1.00 21.38    -0.207 NA
HETATM    4  C4    D T 601     -16.645   3.851  -0.056  1.00 21.15     0.150 A 
HETATM    5  C5    D T 601     -17.586   4.531   0.655  1.00 22.48     0.071 A 
HETATM    6  C6    D T 601     -18.846   3.980   0.816  1.00 22.92     0.156 A 
HETATM    7  N6    D T 601     -20.130   4.238   1.426  1.00 23.12    -0.080 NA
HETATM    8  C7    D T 601     -17.027   5.724   1.079  1.00 19.57     0.076 A 
HETATM    9  C8    D T 601     -15.729   5.773   0.624  1.00 12.70     0.084 A 
HETATM   10  N9    D T 601     -15.487   4.618  -0.045  1.00 22.69    -0.287 N 
ENDROOT
BRANCH  10  11
HETATM   11  C1'   D T 601     -14.263   4.226  -0.768  1.00 23.36     0.240 C 
HETATM   12  C2'   D T 601     -14.552   4.202  -2.268  1.00 24.93     0.234 C 
HETATM   13  O2'   D T 601     -13.620   3.334  -2.891  1.00 35.12    -0.216 OA
HETATM   14  C3'   D T 601     -14.261   5.644  -2.626  1.00 25.54     0.216 C 
HETATM   15  O3'   D T 601     -14.081   5.859  -4.010  1.00 30.30    -0.218 OA
HETATM   16  C4'   D T 601     -13.018   5.926  -1.797  1.00 31.54     0.183 C 
HETATM   17  O4'   D T 601     -13.266   5.205  -0.557  1.00 29.87    -0.331 OA
BRANCH  16  18
HETATM   18  C5'   D T 601     -12.717   7.374  -1.502  1.00 31.76     0.214 C 
HETATM   19  O5'   D T 601     -11.393   7.707  -1.888  1.00 34.06    -0.218 OA
ENDBRANCH  16  18
ENDBRANCH  10  11
BRANCH   8  20
HETATM   20  C10   D T 601     -17.556   6.929   1.903  1.00 29.97     0.268 C 
HETATM   21  N11   D T 601     -18.729   7.683   1.411  1.00 35.69    -0.057 NA
HETATM   22  O12   D T 601     -17.006   7.246   2.956  1.00 30.21    -0.271 OA
ENDBRANCH   8  20
TORSDOF 3
ENDMDL
MODEL 5
REMARK VINA RESULT:    -6.313      1.881      2.428
REMARK INTER + INTRA:          -7.945
REMARK INTER:                  -7.439
REMARK INTRA:                  -0.506
REMARK UNBOUND:                -0.524
REMARK  3 active torsions:
REMARK  status: ('A' for Active; 'I' for Inactive)
REMARK    1  A    between atoms: C7_8  and  C10_12 
REMARK    2  A    between atoms: N9_10  and  C1'_11 
REMARK    3  A    between atoms: C4'_19  and  C5'_21 
ROOT
HETATM    1  N1    D T 601     -12.302   1.791  -7.266  1.00 22.46    -0.210 NA
HETATM    2  C2    D T 601     -13.654   1.801  -7.024  1.00 17.33     0.201 A 
HETATM    3  N3    D T 601     -14.160   2.624  -6.047  1.00 21.38    -0.207 NA
HETATM    4  C4    D T 601     -13.306   3.421  -5.329  1.00 21.15     0.150 A 
HETATM    5  C5    D T 601     -11.967   3.414  -5.577  1.00 22.48     0.071 A 
HETATM    6  C6    D T 601     -11.463   2.578  -6.558  1.00 22.92     0.156 A 
HETATM    7  N6    D T 601     -10.225   2.190  -7.195  1.00 23.12    -0.080 NA
HETATM    8  C7    D T 601     -11.364   4.308  -4.711  1.00 19.57     0.076 A 
HETATM    9  C8    D T 601     -12.345   4.871  -3.925  1.00 12.70     0.084 A 
HETATM   10  N9    D T 601     -13.533   4.350  -4.321  1.00 22.69    -0.287 N 
ENDROOT
BRANCH  10  11
HETATM   11  C1'   D T 601     -14.868   4.591  -3.744  1.00 23.36     0.240 C 
HETATM   12  C2'   D T 601     -15.267   3.394  -2.883  1.00 24.93     0.234 C 
HETATM   13  O2'   D T 601     -16.682   3.357  -2.794  1.00 35.12    -0.216 OA
HETATM   14  C3'   D T 601     -14.658   3.797  -1.556  1.00 25.54     0.216 C 
HETATM   15  O3'   D T 601     -15.166   3.070  -0.457  1.00 30.30    -0.218 OA
HETATM   16  C4'   D T 601     -14.975   5.283  -1.506  1.00 31.54     0.183 C 
HETATM   17  O4'   D T 601     -14.807   5.713  -2.887  1.00 29.87    -0.331 OA
BRANCH  16  18
HETATM   18  C5'   D T 601     -14.120   6.126  -0.594  1.00 31.76     0.214 C 
HETATM   19  O5'   D T 601     -13.293   7.004  -1.339  1.00 34.06    -0.218 OA
ENDBRANCH  16  18
ENDBRANCH  10  11
BRANCH   8  20
HETATM   20  C10   D T 601      -9.896   4.755  -4.473  1.00 29.97     0.268 C 
HETATM   21  N11   D T 601      -9.617   6.163  -4.119  1.00 35.69    -0.057 NA
HETATM   22  O12   D T 601      -8.978   3.943  -4.574  1.00 30.21    -0.271 OA
ENDBRANCH   8  20
TORSDOF 3
ENDMDL
MODEL 6
REMARK VINA RESULT:    -6.087      1.610      3.518
REMARK INTER + INTRA:          -7.679
REMARK INTER:                  -7.590
REMARK INTRA:                  -0.089
REMARK UNBOUND:                -0.524
REMARK  3 active torsions:
REMARK  status: ('A' for Active; 'I' for Inactive)
REMARK    1  A    between atoms: C7_8  and  C10_12 
REMARK    2  A    between atoms: N9_10  and  C1'_11 
REMARK    3  A    between atoms: C4'_19  and  C5'_21 
ROOT
HETATM    1  N1    D T 601      -9.135   4.278  -4.712  1.00 22.46    -0.210 NA
HETATM    2  C2    D T 601      -9.917   5.133  -3.974  1.00 17.33     0.201 A 
HETATM    3  N3    D T 601     -11.283   5.090  -4.112  1.00 21.38    -0.207 NA
HETATM    4  C4    D T 601     -11.844   4.195  -4.987  1.00 21.15     0.150 A 
HETATM    5  C5    D T 601     -11.067   3.344  -5.711  1.00 22.48     0.071 A 
HETATM    6  C6    D T 601      -9.691   3.396  -5.573  1.00 22.92     0.156 A 
HETATM    7  N6    D T 601      -8.475   2.778  -6.052  1.00 23.12    -0.080 NA
HETATM    8  C7    D T 601     -11.898   2.566  -6.497  1.00 19.57     0.076 A 
HETATM    9  C8    D T 601     -13.199   2.943  -6.249  1.00 12.70     0.084 A 
HETATM   10  N9    D T 601     -13.167   3.919  -5.307  1.00 22.69    -0.287 N 
ENDROOT
BRANCH  10  11
HETATM   11  C1'   D T 601     -14.299   4.686  -4.757  1.00 23.36     0.240 C 
HETATM   12  C2'   D T 601     -15.367   3.716  -4.253  1.00 24.93     0.234 C 
HETATM   13  O2'   D T 601     -16.617   4.386  -4.249  1.00 35.12    -0.216 OA
HETATM   14  C3'   D T 601     -14.880   3.484  -2.839  1.00 25.54     0.216 C 
HETATM   15  O3'   D T 601     -15.856   2.916  -1.990  1.00 30.30    -0.218 OA
HETATM   16  C4'   D T 601     -14.447   4.881  -2.425  1.00 31.54     0.183 C 
HETATM   17  O4'   D T 601     -13.856   5.428  -3.638  1.00 29.87    -0.331 OA
BRANCH  16  18
HETATM   18  C5'   D T 601     -13.465   4.974  -1.284  1.00 31.76     0.214 C 
HETATM   19  O5'   D T 601     -12.802   6.227  -1.284  1.00 34.06    -0.218 OA
ENDBRANCH  16  18
ENDBRANCH  10  11
BRANCH   8  20
HETATM   20  C10   D T 601     -11.653   1.436  -7.534  1.00 29.97     0.268 C 
HETATM   21  N11   D T 601     -12.636   0.338  -7.653  1.00 35.69    -0.057 NA
HETATM   22  O12   D T 601     -10.655   1.461  -8.252  1.00 30.21    -0.271 OA
ENDBRANCH   8  20
TORSDOF 3
ENDMDL
MODEL 7
REMARK VINA RESULT:    -6.028      3.125      5.200
REMARK INTER + INTRA:          -7.610
REMARK INTER:                  -7.324
REMARK INTRA:                  -0.286
REMARK UNBOUND:                -0.524
REMARK  3 active torsions:
REMARK  status: ('A' for Active; 'I' for Inactive)
REMARK    1  A    between atoms: C7_8  and  C10_12 
REMARK    2  A    between atoms: N9_10  and  C1'_11 
REMARK    3  A    between atoms: C4'_19  and  C5'_21 
ROOT
HETATM    1  N1    D T 601     -13.550   2.940  -3.567  1.00 22.46    -0.210 NA
HETATM    2  C2    D T 601     -14.377   2.599  -2.524  1.00 17.33     0.201 A 
HETATM    3  N3    D T 601     -14.584   3.496  -1.504  1.00 21.38    -0.207 NA
HETATM    4  C4    D T 601     -13.960   4.716  -1.543  1.00 21.15     0.150 A 
HETATM    5  C5    D T 601     -13.147   5.054  -2.581  1.00 22.48     0.071 A 
HETATM    6  C6    D T 601     -12.937   4.143  -3.603  1.00 22.92     0.156 A 
HETATM    7  N6    D T 601     -12.231   3.981  -4.854  1.00 23.12    -0.080 NA
HETATM    8  C7    D T 601     -12.665   6.330  -2.353  1.00 19.57     0.076 A 
HETATM    9  C8    D T 601     -13.191   6.780  -1.163  1.00 12.70     0.084 A 
HETATM   10  N9    D T 601     -14.002   5.806  -0.682  1.00 22.69    -0.287 N 
ENDROOT
BRANCH  10  11
HETATM   11  C1'   D T 601     -14.743   5.787   0.592  1.00 23.36     0.240 C 
HETATM   12  C2'   D T 601     -15.483   7.113   0.763  1.00 24.93     0.234 C 
HETATM   13  O2'   D T 601     -15.715   7.323   2.146  1.00 35.12    -0.216 OA
HETATM   14  C3'   D T 601     -16.778   6.798   0.045  1.00 25.54     0.216 C 
HETATM   15  O3'   D T 601     -17.824   7.699   0.342  1.00 30.30    -0.218 OA
HETATM   16  C4'   D T 601     -17.049   5.373   0.503  1.00 31.54     0.183 C 
HETATM   17  O4'   D T 601     -15.724   4.771   0.545  1.00 29.87    -0.331 OA
BRANCH  16  18
HETATM   18  C5'   D T 601     -17.966   4.548  -0.364  1.00 31.76     0.214 C 
HETATM   19  O5'   D T 601     -17.731   4.802  -1.739  1.00 34.06    -0.218 OA
ENDBRANCH  16  18
ENDBRANCH  10  11
BRANCH   8  20
HETATM   20  C10   D T 601     -11.707   7.274  -3.129  1.00 29.97     0.268 C 
HETATM   21  N11   D T 601     -12.152   8.646  -3.456  1.00 35.69    -0.057 NA
HETATM   22  O12   D T 601     -10.589   6.885  -3.461  1.00 30.21    -0.271 OA
ENDBRANCH   8  20
TORSDOF 3
ENDMDL
MODEL 8
REMARK VINA RESULT:    -5.937      3.164      5.553
REMARK INTER + INTRA:          -7.503
REMARK INTER:                  -7.060
REMARK INTRA:                  -0.443
REMARK UNBOUND:                -0.524
REMARK  3 active torsions:
REMARK  status: ('A' for Active; 'I' for Inactive)
REMARK    1  A    between atoms: C7_8  and  C10_12 
REMARK    2  A    between atoms: N9_10  and  C1'_11 
REMARK    3  A    between atoms: C4'_19  and  C5'_21 
ROOT
HETATM    1  N1    D T 601     -10.977   5.975  -3.583  1.00 22.46    -0.210 NA
HETATM    2  C2    D T 601     -11.106   6.823  -2.509  1.00 17.33     0.201 A 
HETATM    3  N3    D T 601     -12.070   6.573  -1.562  1.00 21.38    -0.207 NA
HETATM    4  C4    D T 601     -12.889   5.483  -1.706  1.00 21.15     0.150 A 
HETATM    5  C5    D T 601     -12.754   4.641  -2.767  1.00 22.48     0.071 A 
HETATM    6  C6    D T 601     -11.784   4.901  -3.721  1.00 22.92     0.156 A 
HETATM    7  N6    D T 601     -11.237   4.386  -4.956  1.00 23.12    -0.080 NA
HETATM    8  C7    D T 601     -13.703   3.642  -2.649  1.00 19.57     0.076 A 
HETATM    9  C8    D T 601     -14.426   3.873  -1.500  1.00 12.70     0.084 A 
HETATM   10  N9    D T 601     -13.912   4.981  -0.911  1.00 22.69    -0.287 N 
ENDROOT
BRANCH  10  11
HETATM   11  C1'   D T 601     -14.385   5.665   0.306  1.00 23.36     0.240 C 
HETATM   12  C2'   D T 601     -15.299   6.823  -0.091  1.00 24.93     0.234 C 
HETATM   13  O2'   D T 601     -15.301   7.775   0.960  1.00 35.12    -0.216 OA
HETATM   14  C3'   D T 601     -16.631   6.106  -0.164  1.00 25.54     0.216 C 
HETATM   15  O3'   D T 601     -17.744   6.976  -0.152  1.00 30.30    -0.218 OA
HETATM   16  C4'   D T 601     -16.558   5.188   1.046  1.00 31.54     0.183 C 
HETATM   17  O4'   D T 601     -15.164   4.768   1.070  1.00 29.87    -0.331 OA
BRANCH  16  18
HETATM   18  C5'   D T 601     -17.463   3.982   1.034  1.00 31.76     0.214 C 
HETATM   19  O5'   D T 601     -18.355   4.004   2.136  1.00 34.06    -0.218 OA
ENDBRANCH  16  18
ENDBRANCH  10  11
BRANCH   8  20
HETATM   20  C10   D T 601     -14.080   2.406  -3.510  1.00 29.97     0.268 C 
HETATM   21  N11   D T 601     -14.945   2.587  -4.695  1.00 35.69    -0.057 NA
HETATM   22  O12   D T 601     -13.657   1.291  -3.209  1.00 30.21    -0.271 OA
ENDBRANCH   8  20
TORSDOF 3
ENDMDL
MODEL 9
REMARK VINA RESULT:    -5.866      4.528      6.915
REMARK INTER + INTRA:          -7.419
REMARK INTER:                  -7.175
REMARK INTRA:                  -0.244
REMARK UNBOUND:                -0.524
REMARK  3 active torsions:
REMARK  status: ('A' for Active; 'I' for Inactive)
REMARK    1  A    between atoms: C7_8  and  C10_12 
REMARK    2  A    between atoms: N9_10  and  C1'_11 
REMARK    3  A    between atoms: C4'_19  and  C5'_21 
ROOT
HETATM    1  N1    D T 601     -12.118   5.572  -2.994  1.00 22.46    -0.210 NA
HETATM    2  C2    D T 601     -12.936   4.626  -2.424  1.00 17.33     0.201 A 
HETATM    3  N3    D T 601     -13.737   4.976  -1.363  1.00 21.38    -0.207 NA
HETATM    4  C4    D T 601     -13.705   6.262  -0.890  1.00 21.15     0.150 A 
HETATM    5  C5    D T 601     -12.899   7.198  -1.461  1.00 22.48     0.071 A 
HETATM    6  C6    D T 601     -12.089   6.839  -2.526  1.00 22.92     0.156 A 
HETATM    7  N6    D T 601     -11.113   7.379  -3.445  1.00 23.12    -0.080 NA
HETATM    8  C7    D T 601     -13.075   8.391  -0.784  1.00 19.57     0.076 A 
HETATM    9  C8    D T 601     -14.003   8.183   0.213  1.00 12.70     0.084 A 
HETATM   10  N9    D T 601     -14.406   6.891   0.131  1.00 22.69    -0.287 N 
ENDROOT
BRANCH  10  11
HETATM   11  C1'   D T 601     -15.341   6.173   1.017  1.00 23.36     0.240 C 
HETATM   12  C2'   D T 601     -16.446   7.129   1.463  1.00 24.93     0.234 C 
HETATM   13  O2'   D T 601     -16.989   6.651   2.683  1.00 35.12    -0.216 OA
HETATM   14  C3'   D T 601     -17.435   6.950   0.331  1.00 25.54     0.216 C 
HETATM   15  O3'   D T 601     -18.731   7.424   0.632  1.00 30.30    -0.218 OA
HETATM   16  C4'   D T 601     -17.372   5.449   0.097  1.00 31.54     0.183 C 
HETATM   17  O4'   D T 601     -15.964   5.134   0.290  1.00 29.87    -0.331 OA
BRANCH  16  18
HETATM   18  C5'   D T 601     -17.832   4.956  -1.252  1.00 31.76     0.214 C 
HETATM   19  O5'   D T 601     -19.243   4.824  -1.291  1.00 34.06    -0.218 OA
ENDBRANCH  16  18
ENDBRANCH  10  11
BRANCH   8  20
HETATM   20  C10   D T 601     -12.463   9.811  -0.923  1.00 29.97     0.268 C 
HETATM   21  N11   D T 601     -12.667  10.567  -2.178  1.00 35.69    -0.057 NA
HETATM   22  O12   D T 601     -11.821  10.301   0.004  1.00 30.21    -0.271 OA
ENDBRANCH   8  20
TORSDOF 3
ENDMDL
