MODEL 1
REMARK VINA RESULT:    -6.823      0.000      0.000
REMARK INTER + INTRA:          -8.434
REMARK INTER:                  -8.020
REMARK INTRA:                  -0.415
REMARK UNBOUND:                -0.415
REMARK  3 active torsions:
REMARK  status: ('A' for Active; 'I' for Inactive)
REMARK    1  A    between atoms: C7_8  and  C10_12 
REMARK    2  A    between atoms: N9_10  and  C1'_11 
REMARK    3  A    between atoms: C4'_19  and  C5'_21 
ROOT
HETATM    1  N1    D T 601       0.813   4.876   9.209  1.00 22.46    -0.210 NA
HETATM    2  C2    D T 601       1.976   5.522   9.555  1.00 17.33     0.201 A 
HETATM    3  N3    D T 601       2.415   6.577   8.793  1.00 21.38    -0.207 NA
HETATM    4  C4    D T 601       1.686   6.967   7.699  1.00 21.15     0.150 A 
HETATM    5  C5    D T 601       0.531   6.332   7.365  1.00 22.48     0.071 A 
HETATM    6  C6    D T 601       0.096   5.265   8.133  1.00 22.92     0.156 A 
HETATM    7  N6    D T 601      -0.974   4.298   8.233  1.00 23.12    -0.080 NA
HETATM    8  C7    D T 601       0.019   6.937   6.232  1.00 19.57     0.076 A 
HETATM    9  C8    D T 601       0.870   7.958   5.870  1.00 12.70     0.084 A 
HETATM   10  N9    D T 601       1.873   7.993   6.782  1.00 22.69    -0.287 N 
ENDROOT
BRANCH  10  11
HETATM   11  C1'   D T 601       3.060   8.869   6.793  1.00 23.36     0.240 C 
HETATM   12  C2'   D T 601       4.301   8.038   6.475  1.00 24.93     0.234 C 
HETATM   13  O2'   D T 601       5.435   8.699   7.009  1.00 35.12    -0.216 OA
HETATM   14  C3'   D T 601       4.300   8.113   4.963  1.00 25.54     0.216 C 
HETATM   15  O3'   D T 601       5.533   7.748   4.378  1.00 30.30    -0.218 OA
HETATM   16  C4'   D T 601       3.916   9.564   4.724  1.00 31.54     0.183 C 
HETATM   17  O4'   D T 601       2.935   9.832   5.765  1.00 29.87    -0.331 OA
BRANCH  16  18
HETATM   18  C5'   D T 601       3.337   9.895   3.372  1.00 31.76     0.214 C 
HETATM   19  O5'   D T 601       2.521   8.839   2.895  1.00 34.06    -0.218 OA
ENDBRANCH  16  18
ENDBRANCH  10  11
BRANCH   8  20
HETATM   20  C10   D T 601      -1.238   6.693   5.353  1.00 29.97     0.268 C 
HETATM   21  N11   D T 601      -1.626   7.705   4.348  1.00 35.69    -0.057 NA
HETATM   22  O12   D T 601      -1.899   5.665   5.493  1.00 30.21    -0.271 OA
ENDBRANCH   8  20
TORSDOF 3
ENDMDL
MODEL 2
REMARK VINA RESULT:    -6.700      1.980      2.506
REMARK INTER + INTRA:          -8.290
REMARK INTER:                  -7.827
REMARK INTRA:                  -0.462
REMARK UNBOUND:                -0.415
REMARK  3 active torsions:
REMARK  status: ('A' for Active; 'I' for Inactive)
REMARK    1  A    between atoms: C7_8  and  C10_12 
REMARK    2  A    between atoms: N9_10  and  C1'_11 
REMARK    3  A    between atoms: C4'_19  and  C5'_21 
ROOT
HETATM    1  N1    D T 601       3.045   3.608  10.657  1.00 22.46    -0.210 NA
HETATM    2  C2    D T 601       4.278   4.199  10.514  1.00 17.33     0.201 A 
HETATM    3  N3    D T 601       4.412   5.293   9.695  1.00 21.38    -0.207 NA
HETATM    4  C4    D T 601       3.313   5.777   9.032  1.00 21.15     0.150 A 
HETATM    5  C5    D T 601       2.093   5.195   9.182  1.00 22.48     0.071 A 
HETATM    6  C6    D T 601       1.965   4.088  10.005  1.00 22.92     0.156 A 
HETATM    7  N6    D T 601       0.987   3.144  10.495  1.00 23.12    -0.080 NA
HETATM    8  C7    D T 601       1.185   5.890   8.404  1.00 19.57     0.076 A 
HETATM    9  C8    D T 601       1.858   6.912   7.772  1.00 12.70     0.084 A 
HETATM   10  N9    D T 601       3.151   6.859   8.176  1.00 22.69    -0.287 N 
ENDROOT
BRANCH  10  11
HETATM   11  C1'   D T 601       4.278   7.702   7.733  1.00 23.36     0.240 C 
HETATM   12  C2'   D T 601       4.896   7.094   6.476  1.00 24.93     0.234 C 
HETATM   13  O2'   D T 601       6.237   7.538   6.374  1.00 35.12    -0.216 OA
HETATM   14  C3'   D T 601       4.035   7.738   5.410  1.00 25.54     0.216 C 
HETATM   15  O3'   D T 601       4.591   7.663   4.113  1.00 30.30    -0.218 OA
HETATM   16  C4'   D T 601       3.901   9.158   5.935  1.00 31.54     0.183 C 
HETATM   17  O4'   D T 601       3.787   8.979   7.375  1.00 29.87    -0.331 OA
BRANCH  16  18
HETATM   18  C5'   D T 601       2.732   9.960   5.421  1.00 31.76     0.214 C 
HETATM   19  O5'   D T 601       1.695   9.111   4.959  1.00 34.06    -0.218 OA
ENDBRANCH  16  18
ENDBRANCH  10  11
BRANCH   8  20
HETATM   20  C10   D T 601      -0.335   5.739   8.126  1.00 29.97     0.268 C 
HETATM   21  N11   D T 601      -0.881   4.407   7.792  1.00 35.69    -0.057 NA
HETATM   22  O12   D T 601      -1.074   6.721   8.187  1.00 30.21    -0.271 OA
ENDBRANCH   8  20
TORSDOF 3
ENDMDL
MODEL 3
REMARK VINA RESULT:    -6.490      2.494      3.587
REMARK INTER + INTRA:          -8.043
REMARK INTER:                  -7.525
REMARK INTRA:                  -0.517
REMARK UNBOUND:                -0.415
REMARK  3 active torsions:
REMARK  status: ('A' for Active; 'I' for Inactive)
REMARK    1  A    between atoms: C7_8  and  C10_12 
REMARK    2  A    between atoms: N9_10  and  C1'_11 
REMARK    3  A    between atoms: C4'_19  and  C5'_21 
ROOT
HETATM    1  N1    D T 601       5.843   4.737   8.843  1.00 22.46    -0.210 NA
HETATM    2  C2    D T 601       6.526   5.753   8.218  1.00 17.33     0.201 A 
HETATM    3  N3    D T 601       5.829   6.822   7.709  1.00 21.38    -0.207 NA
HETATM    4  C4    D T 601       4.464   6.856   7.831  1.00 21.15     0.150 A 
HETATM    5  C5    D T 601       3.792   5.852   8.456  1.00 22.48     0.071 A 
HETATM    6  C6    D T 601       4.499   4.774   8.963  1.00 22.92     0.156 A 
HETATM    7  N6    D T 601       4.316   3.525   9.667  1.00 23.12    -0.080 NA
HETATM    8  C7    D T 601       2.443   6.155   8.430  1.00 19.57     0.076 A 
HETATM    9  C8    D T 601       2.288   7.361   7.783  1.00 12.70     0.084 A 
HETATM   10  N9    D T 601       3.524   7.801   7.441  1.00 22.69    -0.287 N 
ENDROOT
BRANCH  10  11
HETATM   11  C1'   D T 601       3.878   9.012   6.677  1.00 23.36     0.240 C 
HETATM   12  C2'   D T 601       4.010   8.653   5.199  1.00 24.93     0.234 C 
HETATM   13  O2'   D T 601       4.851   9.610   4.577  1.00 35.12    -0.216 OA
HETATM   14  C3'   D T 601       2.576   8.826   4.746  1.00 25.54     0.216 C 
HETATM   15  O3'   D T 601       2.433   8.923   3.344  1.00 30.30    -0.218 OA
HETATM   16  C4'   D T 601       2.165  10.087   5.491  1.00 31.54     0.183 C 
HETATM   17  O4'   D T 601       2.824   9.949   6.781  1.00 29.87    -0.331 OA
BRANCH  16  18
HETATM   18  C5'   D T 601       0.686  10.302   5.687  1.00 31.76     0.214 C 
HETATM   19  O5'   D T 601       0.003   9.066   5.814  1.00 34.06    -0.218 OA
ENDBRANCH  16  18
ENDBRANCH  10  11
BRANCH   8  20
HETATM   20  C10   D T 601       1.166   5.438   8.949  1.00 29.97     0.268 C 
HETATM   21  N11   D T 601      -0.026   5.365   8.079  1.00 35.69    -0.057 NA
HETATM   22  O12   D T 601       1.154   4.935  10.071  1.00 30.21    -0.271 OA
ENDBRANCH   8  20
TORSDOF 3
ENDMDL
MODEL 4
REMARK VINA RESULT:    -6.384      1.807      3.221
REMARK INTER + INTRA:          -7.919
REMARK INTER:                  -7.688
REMARK INTRA:                  -0.231
REMARK UNBOUND:                -0.415
REMARK  3 active torsions:
REMARK  status: ('A' for Active; 'I' for Inactive)
REMARK    1  A    between atoms: C7_8  and  C10_12 
REMARK    2  A    between atoms: N9_10  and  C1'_11 
REMARK    3  A    between atoms: C4'_19  and  C5'_21 
ROOT
HETATM    1  N1    D T 601      -0.790   6.305   6.452  1.00 22.46    -0.210 NA
HETATM    2  C2    D T 601      -0.349   7.397   5.744  1.00 17.33     0.201 A 
HETATM    3  N3    D T 601       0.892   7.921   6.015  1.00 21.38    -0.207 NA
HETATM    4  C4    D T 601       1.668   7.347   6.989  1.00 21.15     0.150 A 
HETATM    5  C5    D T 601       1.231   6.261   7.682  1.00 22.48     0.071 A 
HETATM    6  C6    D T 601      -0.023   5.740   7.408  1.00 22.92     0.156 A 
HETATM    7  N6    D T 601      -0.926   4.683   7.805  1.00 23.12    -0.080 NA
HETATM    8  C7    D T 601       2.214   5.902   8.586  1.00 19.57     0.076 A 
HETATM    9  C8    D T 601       3.267   6.778   8.442  1.00 12.70     0.084 A 
HETATM   10  N9    D T 601       2.944   7.643   7.449  1.00 22.69    -0.287 N 
ENDROOT
BRANCH  10  11
HETATM   11  C1'   D T 601       3.718   8.802   6.966  1.00 23.36     0.240 C 
HETATM   12  C2'   D T 601       5.198   8.430   6.907  1.00 24.93     0.234 C 
HETATM   13  O2'   D T 601       5.965   9.619   6.991  1.00 35.12    -0.216 OA
HETATM   14  C3'   D T 601       5.276   7.839   5.516  1.00 25.54     0.216 C 
HETATM   15  O3'   D T 601       6.595   7.733   5.020  1.00 30.30    -0.218 OA
HETATM   16  C4'   D T 601       4.399   8.794   4.723  1.00 31.54     0.183 C 
HETATM   17  O4'   D T 601       3.317   9.108   5.644  1.00 29.87    -0.331 OA
BRANCH  16  18
HETATM   18  C5'   D T 601       3.836   8.272   3.425  1.00 31.76     0.214 C 
HETATM   19  O5'   D T 601       2.571   8.849   3.150  1.00 34.06    -0.218 OA
ENDBRANCH  16  18
ENDBRANCH  10  11
BRANCH   8  20
HETATM   20  C10   D T 601       2.339   4.785   9.657  1.00 29.97     0.268 C 
HETATM   21  N11   D T 601       3.640   4.110   9.851  1.00 35.69    -0.057 NA
HETATM   22  O12   D T 601       1.364   4.471  10.338  1.00 30.21    -0.271 OA
ENDBRANCH   8  20
TORSDOF 3
ENDMDL
MODEL 5
REMARK VINA RESULT:    -6.253      2.518      4.385
REMARK INTER + INTRA:          -7.764
REMARK INTER:                  -7.296
REMARK INTRA:                  -0.468
REMARK UNBOUND:                -0.415
REMARK  3 active torsions:
REMARK  status: ('A' for Active; 'I' for Inactive)
REMARK    1  A    between atoms: C7_8  and  C10_12 
REMARK    2  A    between atoms: N9_10  and  C1'_11 
REMARK    3  A    between atoms: C4'_19  and  C5'_21 
ROOT
HETATM    1  N1    D T 601      -0.047   8.828   5.993  1.00 22.46    -0.210 NA
HETATM    2  C2    D T 601       1.018   9.312   5.271  1.00 17.33     0.201 A 
HETATM    3  N3    D T 601       2.254   8.730   5.417  1.00 21.38    -0.207 NA
HETATM    4  C4    D T 601       2.405   7.678   6.283  1.00 21.15     0.150 A 
HETATM    5  C5    D T 601       1.347   7.196   6.990  1.00 22.48     0.071 A 
HETATM    6  C6    D T 601       0.105   7.790   6.843  1.00 22.92     0.156 A 
HETATM    7  N6    D T 601      -1.261   7.699   7.307  1.00 23.12    -0.080 NA
HETATM    8  C7    D T 601       1.793   6.145   7.770  1.00 19.57     0.076 A 
HETATM    9  C8    D T 601       3.140   5.979   7.534  1.00 12.70     0.084 A 
HETATM   10  N9    D T 601       3.507   6.897   6.607  1.00 22.69    -0.287 N 
ENDROOT
BRANCH  10  11
HETATM   11  C1'   D T 601       4.857   7.160   6.073  1.00 23.36     0.240 C 
HETATM   12  C2'   D T 601       5.575   8.150   6.988  1.00 24.93     0.234 C 
HETATM   13  O2'   D T 601       6.580   8.809   6.237  1.00 35.12    -0.216 OA
HETATM   14  C3'   D T 601       6.192   7.198   7.990  1.00 25.54     0.216 C 
HETATM   15  O3'   D T 601       7.226   7.779   8.759  1.00 30.30    -0.218 OA
HETATM   16  C4'   D T 601       6.660   6.063   7.093  1.00 31.54     0.183 C 
HETATM   17  O4'   D T 601       5.605   5.960   6.096  1.00 29.87    -0.331 OA
BRANCH  16  18
HETATM   18  C5'   D T 601       6.876   4.726   7.755  1.00 31.76     0.214 C 
HETATM   19  O5'   D T 601       6.055   4.586   8.901  1.00 34.06    -0.218 OA
ENDBRANCH  16  18
ENDBRANCH  10  11
BRANCH   8  20
HETATM   20  C10   D T 601       1.110   5.193   8.790  1.00 29.97     0.268 C 
HETATM   21  N11   D T 601      -0.133   4.492   8.406  1.00 35.69    -0.057 NA
HETATM   22  O12   D T 601       1.606   5.023   9.903  1.00 30.21    -0.271 OA
ENDBRANCH   8  20
TORSDOF 3
ENDMDL
MODEL 6
REMARK VINA RESULT:    -5.753      2.458      4.820
REMARK INTER + INTRA:          -7.177
REMARK INTER:                  -6.972
REMARK INTRA:                  -0.205
REMARK UNBOUND:                -0.415
REMARK  3 active torsions:
REMARK  status: ('A' for Active; 'I' for Inactive)
REMARK    1  A    between atoms: C7_8  and  C10_12 
REMARK    2  A    between atoms: N9_10  and  C1'_11 
REMARK    3  A    between atoms: C4'_19  and  C5'_21 
ROOT
HETATM    1  N1    D T 601       0.407   4.424   9.327  1.00 22.46    -0.210 NA
HETATM    2  C2    D T 601       0.185   5.151   8.182  1.00 17.33     0.201 A 
HETATM    3  N3    D T 601       1.253   5.685   7.503  1.00 21.38    -0.207 NA
HETATM    4  C4    D T 601       2.522   5.486   7.981  1.00 21.15     0.150 A 
HETATM    5  C5    D T 601       2.740   4.759   9.110  1.00 22.48     0.071 A 
HETATM    6  C6    D T 601       1.658   4.228   9.794  1.00 22.92     0.156 A 
HETATM    7  N6    D T 601       1.327   3.436  10.957  1.00 23.12    -0.080 NA
HETATM    8  C7    D T 601       4.101   4.725   9.346  1.00 19.57     0.076 A 
HETATM    9  C8    D T 601       4.727   5.437   8.346  1.00 12.70     0.084 A 
HETATM   10  N9    D T 601       3.765   5.879   7.499  1.00 22.69    -0.287 N 
ENDROOT
BRANCH  10  11
HETATM   11  C1'   D T 601       3.925   6.738   6.310  1.00 23.36     0.240 C 
HETATM   12  C2'   D T 601       2.935   7.897   6.391  1.00 24.93     0.234 C 
HETATM   13  O2'   D T 601       2.693   8.375   5.079  1.00 35.12    -0.216 OA
HETATM   14  C3'   D T 601       3.750   8.897   7.184  1.00 25.54     0.216 C 
HETATM   15  O3'   D T 601       3.250  10.217   7.113  1.00 30.30    -0.218 OA
HETATM   16  C4'   D T 601       5.129   8.732   6.567  1.00 31.54     0.183 C 
HETATM   17  O4'   D T 601       5.222   7.301   6.318  1.00 29.87    -0.331 OA
BRANCH  16  18
HETATM   18  C5'   D T 601       6.300   9.187   7.402  1.00 31.76     0.214 C 
HETATM   19  O5'   D T 601       6.957   8.085   8.002  1.00 34.06    -0.218 OA
ENDBRANCH  16  18
ENDBRANCH  10  11
BRANCH   8  20
HETATM   20  C10   D T 601       4.990   4.087  10.449  1.00 29.97     0.268 C 
HETATM   21  N11   D T 601       4.464   3.971  11.825  1.00 35.69    -0.057 NA
HETATM   22  O12   D T 601       6.118   3.681  10.174  1.00 30.21    -0.271 OA
ENDBRANCH   8  20
TORSDOF 3
ENDMDL
MODEL 7
REMARK VINA RESULT:    -5.742      3.122      5.459
REMARK INTER + INTRA:          -7.163
REMARK INTER:                  -6.679
REMARK INTRA:                  -0.484
REMARK UNBOUND:                -0.415
REMARK  3 active torsions:
REMARK  status: ('A' for Active; 'I' for Inactive)
REMARK    1  A    between atoms: C7_8  and  C10_12 
REMARK    2  A    between atoms: N9_10  and  C1'_11 
REMARK    3  A    between atoms: C4'_19  and  C5'_21 
ROOT
HETATM    1  N1    D T 601       2.891   3.776  11.091  1.00 22.46    -0.210 NA
HETATM    2  C2    D T 601       1.918   4.234  10.235  1.00 17.33     0.201 A 
HETATM    3  N3    D T 601       2.283   4.902   9.092  1.00 21.38    -0.207 NA
HETATM    4  C4    D T 601       3.612   5.104   8.825  1.00 21.15     0.150 A 
HETATM    5  C5    D T 601       4.574   4.642   9.669  1.00 22.48     0.071 A 
HETATM    6  C6    D T 601       4.200   3.974  10.823  1.00 22.92     0.156 A 
HETATM    7  N6    D T 601       4.753   3.319  11.988  1.00 23.12    -0.080 NA
HETATM    8  C7    D T 601       5.807   4.986   9.148  1.00 19.57     0.076 A 
HETATM    9  C8    D T 601       5.598   5.664   7.967  1.00 12.70     0.084 A 
HETATM   10  N9    D T 601       4.259   5.712   7.757  1.00 22.69    -0.287 N 
ENDROOT
BRANCH  10  11
HETATM   11  C1'   D T 601       3.535   6.384   6.662  1.00 23.36     0.240 C 
HETATM   12  C2'   D T 601       2.753   7.567   7.228  1.00 24.93     0.234 C 
HETATM   13  O2'   D T 601       1.675   7.854   6.354  1.00 35.12    -0.216 OA
HETATM   14  C3'   D T 601       3.806   8.652   7.154  1.00 25.54     0.216 C 
HETATM   15  O3'   D T 601       3.281   9.959   7.265  1.00 30.30    -0.218 OA
HETATM   16  C4'   D T 601       4.453   8.365   5.808  1.00 31.54     0.183 C 
HETATM   17  O4'   D T 601       4.471   6.911   5.742  1.00 29.87    -0.331 OA
BRANCH  16  18
HETATM   18  C5'   D T 601       5.844   8.908   5.599  1.00 31.76     0.214 C 
HETATM   19  O5'   D T 601       6.550   8.986   6.825  1.00 34.06    -0.218 OA
ENDBRANCH  16  18
ENDBRANCH  10  11
BRANCH   8  20
HETATM   20  C10   D T 601       7.273   4.773   9.613  1.00 29.97     0.268 C 
HETATM   21  N11   D T 601       8.352   4.715   8.605  1.00 35.69    -0.057 NA
HETATM   22  O12   D T 601       7.530   4.659  10.811  1.00 30.21    -0.271 OA
ENDBRANCH   8  20
TORSDOF 3
ENDMDL
MODEL 8
REMARK VINA RESULT:    -5.699      1.936      3.678
REMARK INTER + INTRA:          -7.113
REMARK INTER:                  -7.010
REMARK INTRA:                  -0.103
REMARK UNBOUND:                -0.415
REMARK  3 active torsions:
REMARK  status: ('A' for Active; 'I' for Inactive)
REMARK    1  A    between atoms: C7_8  and  C10_12 
REMARK    2  A    between atoms: N9_10  and  C1'_11 
REMARK    3  A    between atoms: C4'_19  and  C5'_21 
ROOT
HETATM    1  N1    D T 601       0.971   9.258   5.247  1.00 22.46    -0.210 NA
HETATM    2  C2    D T 601       2.241   9.674   5.569  1.00 17.33     0.201 A 
HETATM    3  N3    D T 601       3.002   8.918   6.428  1.00 21.38    -0.207 NA
HETATM    4  C4    D T 601       2.481   7.762   6.950  1.00 21.15     0.150 A 
HETATM    5  C5    D T 601       1.227   7.349   6.622  1.00 22.48     0.071 A 
HETATM    6  C6    D T 601       0.462   8.118   5.761  1.00 22.92     0.156 A 
HETATM    7  N6    D T 601      -0.833   8.159   5.119  1.00 23.12    -0.080 NA
HETATM    8  C7    D T 601       0.975   6.164   7.290  1.00 19.57     0.076 A 
HETATM    9  C8    D T 601       2.091   5.847   8.033  1.00 12.70     0.084 A 
HETATM   10  N9    D T 601       3.019   6.808   7.804  1.00 22.69    -0.287 N 
ENDROOT
BRANCH  10  11
HETATM   11  C1'   D T 601       4.354   6.947   8.417  1.00 23.36     0.240 C 
HETATM   12  C2'   D T 601       5.117   5.633   8.263  1.00 24.93     0.234 C 
HETATM   13  O2'   D T 601       6.106   5.566   9.275  1.00 35.12    -0.216 OA
HETATM   14  C3'   D T 601       5.753   5.845   6.905  1.00 25.54     0.216 C 
HETATM   15  O3'   D T 601       6.821   4.959   6.638  1.00 30.30    -0.218 OA
HETATM   16  C4'   D T 601       6.174   7.304   6.984  1.00 31.54     0.183 C 
HETATM   17  O4'   D T 601       5.085   7.933   7.715  1.00 29.87    -0.331 OA
BRANCH  16  18
HETATM   18  C5'   D T 601       6.393   8.014   5.672  1.00 31.76     0.214 C 
HETATM   19  O5'   D T 601       5.644   7.407   4.633  1.00 34.06    -0.218 OA
ENDBRANCH  16  18
ENDBRANCH  10  11
BRANCH   8  20
HETATM   20  C10   D T 601      -0.242   5.202   7.358  1.00 29.97     0.268 C 
HETATM   21  N11   D T 601      -0.368   4.274   8.501  1.00 35.69    -0.057 NA
HETATM   22  O12   D T 601      -1.092   5.219   6.470  1.00 30.21    -0.271 OA
ENDBRANCH   8  20
TORSDOF 3
ENDMDL
MODEL 9
REMARK VINA RESULT:    -5.442      2.307      3.565
REMARK INTER + INTRA:          -6.811
REMARK INTER:                  -6.584
REMARK INTRA:                  -0.227
REMARK UNBOUND:                -0.415
REMARK  3 active torsions:
REMARK  status: ('A' for Active; 'I' for Inactive)
REMARK    1  A    between atoms: C7_8  and  C10_12 
REMARK    2  A    between atoms: N9_10  and  C1'_11 
REMARK    3  A    between atoms: C4'_19  and  C5'_21 
ROOT
HETATM    1  N1    D T 601       3.415   4.355  10.130  1.00 22.46    -0.210 NA
HETATM    2  C2    D T 601       4.756   4.338   9.827  1.00 17.33     0.201 A 
HETATM    3  N3    D T 601       5.210   5.036   8.735  1.00 21.38    -0.207 NA
HETATM    4  C4    D T 601       4.318   5.735   7.964  1.00 21.15     0.150 A 
HETATM    5  C5    D T 601       2.993   5.757   8.271  1.00 22.48     0.071 A 
HETATM    6  C6    D T 601       2.539   5.046   9.370  1.00 22.92     0.156 A 
HETATM    7  N6    D T 601       1.334   4.738  10.106  1.00 23.12    -0.080 NA
HETATM    8  C7    D T 601       2.344   6.535   7.330  1.00 19.57     0.076 A 
HETATM    9  C8    D T 601       3.285   6.999   6.437  1.00 12.70     0.084 A 
HETATM   10  N9    D T 601       4.493   6.533   6.839  1.00 22.69    -0.287 N 
ENDROOT
BRANCH  10  11
HETATM   11  C1'   D T 601       5.799   6.703   6.177  1.00 23.36     0.240 C 
HETATM   12  C2'   D T 601       5.670   7.749   5.073  1.00 24.93     0.234 C 
HETATM   13  O2'   D T 601       6.694   7.525   4.118  1.00 35.12    -0.216 OA
HETATM   14  C3'   D T 601       5.940   9.014   5.860  1.00 25.54     0.216 C 
HETATM   15  O3'   D T 601       6.255  10.128   5.051  1.00 30.30    -0.218 OA
HETATM   16  C4'   D T 601       7.079   8.577   6.768  1.00 31.54     0.183 C 
HETATM   17  O4'   D T 601       6.731   7.207   7.115  1.00 29.87    -0.331 OA
BRANCH  16  18
HETATM   18  C5'   D T 601       7.291   9.388   8.022  1.00 31.76     0.214 C 
HETATM   19  O5'   D T 601       8.139  10.496   7.774  1.00 34.06    -0.218 OA
ENDBRANCH  16  18
ENDBRANCH  10  11
BRANCH   8  20
HETATM   20  C10   D T 601       0.863   6.946   7.105  1.00 29.97     0.268 C 
HETATM   21  N11   D T 601       0.557   8.093   6.225  1.00 35.69    -0.057 NA
HETATM   22  O12   D T 601      -0.041   6.318   7.653  1.00 30.21    -0.271 OA
ENDBRANCH   8  20
TORSDOF 3
ENDMDL
