MODEL 1
REMARK VINA RESULT:    -6.422      0.000      0.000
REMARK INTER + INTRA:          -7.880
REMARK INTER:                  -7.548
REMARK INTRA:                  -0.332
REMARK UNBOUND:                -0.332
REMARK  3 active torsions:
REMARK  status: ('A' for Active; 'I' for Inactive)
REMARK    1  A    between atoms: C7_8  and  C10_12 
REMARK    2  A    between atoms: N9_10  and  C1'_11 
REMARK    3  A    between atoms: C4'_19  and  C5'_21 
ROOT
HETATM    1  N1    D T 601      10.318  -3.409  -0.410  1.00 22.46    -0.210 NA
HETATM    2  C2    D T 601      10.013  -2.094  -0.152  1.00 17.33     0.201 A 
HETATM    3  N3    D T 601       9.595  -1.283  -1.179  1.00 21.38    -0.207 NA
HETATM    4  C4    D T 601       9.490  -1.797  -2.445  1.00 21.15     0.150 A 
HETATM    5  C5    D T 601       9.786  -3.102  -2.697  1.00 22.48     0.071 A 
HETATM    6  C6    D T 601      10.212  -3.914  -1.659  1.00 22.92     0.156 A 
HETATM    7  N6    D T 601      10.629  -5.268  -1.374  1.00 23.12    -0.080 NA
HETATM    8  C7    D T 601       9.590  -3.335  -4.045  1.00 19.57     0.076 A 
HETATM    9  C8    D T 601       9.166  -2.161  -4.626  1.00 12.70     0.084 A 
HETATM   10  N9    D T 601       9.080  -1.230  -3.645  1.00 22.69    -0.287 N 
ENDROOT
BRANCH  10  11
HETATM   11  C1'   D T 601       8.732   0.198  -3.773  1.00 23.36     0.240 C 
HETATM   12  C2'   D T 601       9.958   0.973  -4.249  1.00 24.93     0.234 C 
HETATM   13  O2'   D T 601       9.816   2.328  -3.855  1.00 35.12    -0.216 OA
HETATM   14  C3'   D T 601       9.805   0.834  -5.749  1.00 25.54     0.216 C 
HETATM   15  O3'   D T 601      10.584   1.755  -6.485  1.00 30.30    -0.218 OA
HETATM   16  C4'   D T 601       8.306   1.021  -5.927  1.00 31.54     0.183 C 
HETATM   17  O4'   D T 601       7.740   0.344  -4.770  1.00 29.87    -0.331 OA
BRANCH  16  18
HETATM   18  C5'   D T 601       7.705   0.470  -7.195  1.00 31.76     0.214 C 
HETATM   19  O5'   D T 601       7.390   1.512  -8.104  1.00 34.06    -0.218 OA
ENDBRANCH  16  18
ENDBRANCH  10  11
BRANCH   8  20
HETATM   20  C10   D T 601       9.753  -4.580  -4.959  1.00 29.97     0.268 C 
HETATM   21  N11   D T 601      10.637  -4.499  -6.140  1.00 35.69    -0.057 NA
HETATM   22  O12   D T 601       9.156  -5.622  -4.696  1.00 30.21    -0.271 OA
ENDBRANCH   8  20
TORSDOF 3
ENDMDL
MODEL 2
REMARK VINA RESULT:    -6.276      2.927      5.601
REMARK INTER + INTRA:          -7.708
REMARK INTER:                  -7.275
REMARK INTRA:                  -0.433
REMARK UNBOUND:                -0.332
REMARK  3 active torsions:
REMARK  status: ('A' for Active; 'I' for Inactive)
REMARK    1  A    between atoms: C7_8  and  C10_12 
REMARK    2  A    between atoms: N9_10  and  C1'_11 
REMARK    3  A    between atoms: C4'_19  and  C5'_21 
ROOT
HETATM    1  N1    D T 601       9.051   2.049  -5.548  1.00 22.46    -0.210 NA
HETATM    2  C2    D T 601       9.961   2.022  -4.518  1.00 17.33     0.201 A 
HETATM    3  N3    D T 601      10.258   0.827  -3.909  1.00 21.38    -0.207 NA
HETATM    4  C4    D T 601       9.642  -0.320  -4.338  1.00 21.15     0.150 A 
HETATM    5  C5    D T 601       8.746  -0.292  -5.363  1.00 22.48     0.071 A 
HETATM    6  C6    D T 601       8.446   0.917  -5.969  1.00 22.92     0.156 A 
HETATM    7  N6    D T 601       7.636   1.491  -7.020  1.00 23.12    -0.080 NA
HETATM    8  C7    D T 601       8.294  -1.580  -5.574  1.00 19.57     0.076 A 
HETATM    9  C8    D T 601       8.921  -2.408  -4.670  1.00 12.70     0.084 A 
HETATM   10  N9    D T 601       9.762  -1.643  -3.933  1.00 22.69    -0.287 N 
ENDROOT
BRANCH  10  11
HETATM   11  C1'   D T 601      10.608  -2.055  -2.797  1.00 23.36     0.240 C 
HETATM   12  C2'   D T 601       9.896  -1.713  -1.491  1.00 24.93     0.234 C 
HETATM   13  O2'   D T 601      10.869  -1.585  -0.468  1.00 35.12    -0.216 OA
HETATM   14  C3'   D T 601       9.071  -2.967  -1.291  1.00 25.54     0.216 C 
HETATM   15  O3'   D T 601       8.578  -3.115   0.024  1.00 30.30    -0.218 OA
HETATM   16  C4'   D T 601      10.054  -4.053  -1.702  1.00 31.54     0.183 C 
HETATM   17  O4'   D T 601      10.766  -3.460  -2.824  1.00 29.87    -0.331 OA
BRANCH  16  18
HETATM   18  C5'   D T 601       9.461  -5.379  -2.107  1.00 31.76     0.214 C 
HETATM   19  O5'   D T 601       9.557  -5.573  -3.508  1.00 34.06    -0.218 OA
ENDBRANCH  16  18
ENDBRANCH  10  11
BRANCH   8  20
HETATM   20  C10   D T 601       7.280  -2.218  -6.563  1.00 29.97     0.268 C 
HETATM   21  N11   D T 601       7.232  -1.738  -7.960  1.00 35.69    -0.057 NA
HETATM   22  O12   D T 601       6.531  -3.116  -6.185  1.00 30.21    -0.271 OA
ENDBRANCH   8  20
TORSDOF 3
ENDMDL
MODEL 3
REMARK VINA RESULT:    -6.164      2.942      5.521
REMARK INTER + INTRA:          -7.577
REMARK INTER:                  -7.513
REMARK INTRA:                  -0.063
REMARK UNBOUND:                -0.332
REMARK  3 active torsions:
REMARK  status: ('A' for Active; 'I' for Inactive)
REMARK    1  A    between atoms: C7_8  and  C10_12 
REMARK    2  A    between atoms: N9_10  and  C1'_11 
REMARK    3  A    between atoms: C4'_19  and  C5'_21 
ROOT
HETATM    1  N1    D T 601       9.111   1.886  -5.236  1.00 22.46    -0.210 NA
HETATM    2  C2    D T 601       9.496   1.827  -3.918  1.00 17.33     0.201 A 
HETATM    3  N3    D T 601       9.254   0.685  -3.193  1.00 21.38    -0.207 NA
HETATM    4  C4    D T 601       8.632  -0.377  -3.796  1.00 21.15     0.150 A 
HETATM    5  C5    D T 601       8.259  -0.319  -5.104  1.00 22.48     0.071 A 
HETATM    6  C6    D T 601       8.500   0.837  -5.828  1.00 22.92     0.156 A 
HETATM    7  N6    D T 601       8.330   1.409  -7.145  1.00 23.12    -0.080 NA
HETATM    8  C7    D T 601       7.664  -1.522  -5.435  1.00 19.57     0.076 A 
HETATM    9  C8    D T 601       7.674  -2.327  -4.318  1.00 12.70     0.084 A 
HETATM   10  N9    D T 601       8.289  -1.638  -3.326  1.00 22.69    -0.287 N 
ENDROOT
BRANCH  10  11
HETATM   11  C1'   D T 601       8.490  -2.048  -1.923  1.00 23.36     0.240 C 
HETATM   12  C2'   D T 601       8.705  -3.558  -1.867  1.00 24.93     0.234 C 
HETATM   13  O2'   D T 601       8.352  -4.016  -0.572  1.00 35.12    -0.216 OA
HETATM   14  C3'   D T 601      10.204  -3.629  -2.069  1.00 25.54     0.216 C 
HETATM   15  O3'   D T 601      10.766  -4.871  -1.701  1.00 30.30    -0.218 OA
HETATM   16  C4'   D T 601      10.687  -2.464  -1.219  1.00 31.54     0.183 C 
HETATM   17  O4'   D T 601       9.670  -1.445  -1.429  1.00 29.87    -0.331 OA
BRANCH  16  18
HETATM   18  C5'   D T 601      12.050  -1.910  -1.548  1.00 31.76     0.214 C 
HETATM   19  O5'   D T 601      12.032  -1.210  -2.780  1.00 34.06    -0.218 OA
ENDBRANCH  16  18
ENDBRANCH  10  11
BRANCH   8  20
HETATM   20  C10   D T 601       7.026  -2.087  -6.733  1.00 29.97     0.268 C 
HETATM   21  N11   D T 601       7.299  -1.420  -8.023  1.00 35.69    -0.057 NA
HETATM   22  O12   D T 601       6.307  -3.083  -6.685  1.00 30.21    -0.271 OA
ENDBRANCH   8  20
TORSDOF 3
ENDMDL
MODEL 4
REMARK VINA RESULT:    -6.084      2.760      6.028
REMARK INTER + INTRA:          -7.482
REMARK INTER:                  -7.232
REMARK INTRA:                  -0.250
REMARK UNBOUND:                -0.332
REMARK  3 active torsions:
REMARK  status: ('A' for Active; 'I' for Inactive)
REMARK    1  A    between atoms: C7_8  and  C10_12 
REMARK    2  A    between atoms: N9_10  and  C1'_11 
REMARK    3  A    between atoms: C4'_19  and  C5'_21 
ROOT
HETATM    1  N1    D T 601       6.818  -1.826  -7.574  1.00 22.46    -0.210 NA
HETATM    2  C2    D T 601       6.535  -2.693  -6.546  1.00 17.33     0.201 A 
HETATM    3  N3    D T 601       7.033  -2.440  -5.291  1.00 21.38    -0.207 NA
HETATM    4  C4    D T 601       7.806  -1.327  -5.085  1.00 21.15     0.150 A 
HETATM    5  C5    D T 601       8.080  -0.466  -6.103  1.00 22.48     0.071 A 
HETATM    6  C6    D T 601       7.580  -0.729  -7.367  1.00 22.92     0.156 A 
HETATM    7  N6    D T 601       7.556  -0.200  -8.712  1.00 23.12    -0.080 NA
HETATM    8  C7    D T 601       8.870   0.552  -5.605  1.00 19.57     0.076 A 
HETATM    9  C8    D T 601       9.082   0.314  -4.265  1.00 12.70     0.084 A 
HETATM   10  N9    D T 601       8.411  -0.818  -3.942  1.00 22.69    -0.287 N 
ENDROOT
BRANCH  10  11
HETATM   11  C1'   D T 601       8.379  -1.518  -2.644  1.00 23.36     0.240 C 
HETATM   12  C2'   D T 601       8.556  -3.016  -2.877  1.00 24.93     0.234 C 
HETATM   13  O2'   D T 601       7.993  -3.712  -1.777  1.00 35.12    -0.216 OA
HETATM   14  C3'   D T 601      10.066  -3.119  -2.859  1.00 25.54     0.216 C 
HETATM   15  O3'   D T 601      10.541  -4.438  -2.681  1.00 30.30    -0.218 OA
HETATM   16  C4'   D T 601      10.428  -2.180  -1.718  1.00 31.54     0.183 C 
HETATM   17  O4'   D T 601       9.475  -1.090  -1.860  1.00 29.87    -0.331 OA
BRANCH  16  18
HETATM   18  C5'   D T 601      11.836  -1.640  -1.711  1.00 31.76     0.214 C 
HETATM   19  O5'   D T 601      12.081  -0.841  -2.857  1.00 34.06    -0.218 OA
ENDBRANCH  16  18
ENDBRANCH  10  11
BRANCH   8  20
HETATM   20  C10   D T 601       9.522   1.816  -6.230  1.00 29.97     0.268 C 
HETATM   21  N11   D T 601       8.708   2.696  -7.095  1.00 35.69    -0.057 NA
HETATM   22  O12   D T 601      10.700   2.081  -6.002  1.00 30.21    -0.271 OA
ENDBRANCH   8  20
TORSDOF 3
ENDMDL
MODEL 5
REMARK VINA RESULT:    -5.793      2.504      3.308
REMARK INTER + INTRA:          -7.141
REMARK INTER:                  -6.627
REMARK INTRA:                  -0.514
REMARK UNBOUND:                -0.332
REMARK  3 active torsions:
REMARK  status: ('A' for Active; 'I' for Inactive)
REMARK    1  A    between atoms: C7_8  and  C10_12 
REMARK    2  A    between atoms: N9_10  and  C1'_11 
REMARK    3  A    between atoms: C4'_19  and  C5'_21 
ROOT
HETATM    1  N1    D T 601      11.481  -2.451   1.370  1.00 22.46    -0.210 NA
HETATM    2  C2    D T 601      10.939  -1.252   0.973  1.00 17.33     0.201 A 
HETATM    3  N3    D T 601      10.003  -1.232  -0.032  1.00 21.38    -0.207 NA
HETATM    4  C4    D T 601       9.624  -2.410  -0.624  1.00 21.15     0.150 A 
HETATM    5  C5    D T 601      10.156  -3.597  -0.223  1.00 22.48     0.071 A 
HETATM    6  C6    D T 601      11.104  -3.610   0.786  1.00 22.92     0.156 A 
HETATM    7  N6    D T 601      11.937  -4.510   1.551  1.00 23.12    -0.080 NA
HETATM    8  C7    D T 601       9.592  -4.601  -0.988  1.00 19.57     0.076 A 
HETATM    9  C8    D T 601       8.702  -4.023  -1.866  1.00 12.70     0.084 A 
HETATM   10  N9    D T 601       8.703  -2.689  -1.625  1.00 22.69    -0.287 N 
ENDROOT
BRANCH  10  11
HETATM   11  C1'   D T 601       7.964  -1.635  -2.345  1.00 23.36     0.240 C 
HETATM   12  C2'   D T 601       8.959  -0.653  -2.958  1.00 24.93     0.234 C 
HETATM   13  O2'   D T 601       8.305   0.590  -3.151  1.00 35.12    -0.216 OA
HETATM   14  C3'   D T 601       9.227  -1.328  -4.286  1.00 25.54     0.216 C 
HETATM   15  O3'   D T 601       9.829  -0.478  -5.241  1.00 30.30    -0.218 OA
HETATM   16  C4'   D T 601       7.836  -1.802  -4.680  1.00 31.54     0.183 C 
HETATM   17  O4'   D T 601       7.249  -2.219  -3.416  1.00 29.87    -0.331 OA
BRANCH  16  18
HETATM   18  C5'   D T 601       7.766  -2.927  -5.681  1.00 31.76     0.214 C 
HETATM   19  O5'   D T 601       8.732  -3.925  -5.393  1.00 34.06    -0.218 OA
ENDBRANCH  16  18
ENDBRANCH  10  11
BRANCH   8  20
HETATM   20  C10   D T 601       9.769  -6.143  -1.042  1.00 29.97     0.268 C 
HETATM   21  N11   D T 601       8.591  -7.013  -0.841  1.00 35.69    -0.057 NA
HETATM   22  O12   D T 601      10.876  -6.631  -1.254  1.00 30.21    -0.271 OA
ENDBRANCH   8  20
TORSDOF 3
ENDMDL
MODEL 6
REMARK VINA RESULT:    -5.490      2.931      6.028
REMARK INTER + INTRA:          -6.785
REMARK INTER:                  -6.564
REMARK INTRA:                  -0.221
REMARK UNBOUND:                -0.332
REMARK  3 active torsions:
REMARK  status: ('A' for Active; 'I' for Inactive)
REMARK    1  A    between atoms: C7_8  and  C10_12 
REMARK    2  A    between atoms: N9_10  and  C1'_11 
REMARK    3  A    between atoms: C4'_19  and  C5'_21 
ROOT
HETATM    1  N1    D T 601       7.527  -2.367  -6.161  1.00 22.46    -0.210 NA
HETATM    2  C2    D T 601       7.980  -3.456  -5.456  1.00 17.33     0.201 A 
HETATM    3  N3    D T 601       8.954  -3.287  -4.502  1.00 21.38    -0.207 NA
HETATM    4  C4    D T 601       9.459  -2.034  -4.269  1.00 21.15     0.150 A 
HETATM    5  C5    D T 601       9.003  -0.956  -4.963  1.00 22.48     0.071 A 
HETATM    6  C6    D T 601       8.025  -1.133  -5.928  1.00 22.92     0.156 A 
HETATM    7  N6    D T 601       7.234  -0.402  -6.891  1.00 23.12    -0.080 NA
HETATM    8  C7    D T 601       9.685   0.161  -4.520  1.00 19.57     0.076 A 
HETATM    9  C8    D T 601      10.568  -0.237  -3.540  1.00 12.70     0.084 A 
HETATM   10  N9    D T 601      10.411  -1.572  -3.369  1.00 22.69    -0.287 N 
ENDROOT
BRANCH  10  11
HETATM   11  C1'   D T 601      11.171  -2.471  -2.481  1.00 23.36     0.240 C 
HETATM   12  C2'   D T 601      11.756  -1.660  -1.327  1.00 24.93     0.234 C 
HETATM   13  O2'   D T 601      12.883  -2.352  -0.817  1.00 35.12    -0.216 OA
HETATM   14  C3'   D T 601      10.605  -1.713  -0.344  1.00 25.54     0.216 C 
HETATM   15  O3'   D T 601      10.972  -1.365   0.975  1.00 30.30    -0.218 OA
HETATM   16  C4'   D T 601      10.139  -3.154  -0.489  1.00 31.54     0.183 C 
HETATM   17  O4'   D T 601      10.286  -3.417  -1.912  1.00 29.87    -0.331 OA
BRANCH  16  18
HETATM   18  C5'   D T 601       8.728  -3.452  -0.050  1.00 31.76     0.214 C 
HETATM   19  O5'   D T 601       8.425  -4.828  -0.210  1.00 34.06    -0.218 OA
ENDBRANCH  16  18
ENDBRANCH  10  11
BRANCH   8  20
HETATM   20  C10   D T 601       9.649   1.667  -4.897  1.00 29.97     0.268 C 
HETATM   21  N11   D T 601       9.539   2.054  -6.320  1.00 35.69    -0.057 NA
HETATM   22  O12   D T 601       9.707   2.526  -4.020  1.00 30.21    -0.271 OA
ENDBRANCH   8  20
TORSDOF 3
ENDMDL
MODEL 7
REMARK VINA RESULT:    -5.425      2.586      4.383
REMARK INTER + INTRA:          -6.708
REMARK INTER:                  -6.339
REMARK INTRA:                  -0.369
REMARK UNBOUND:                -0.332
REMARK  3 active torsions:
REMARK  status: ('A' for Active; 'I' for Inactive)
REMARK    1  A    between atoms: C7_8  and  C10_12 
REMARK    2  A    between atoms: N9_10  and  C1'_11 
REMARK    3  A    between atoms: C4'_19  and  C5'_21 
ROOT
HETATM    1  N1    D T 601      10.833  -2.690   1.498  1.00 22.46    -0.210 NA
HETATM    2  C2    D T 601      11.325  -1.916   0.474  1.00 17.33     0.201 A 
HETATM    3  N3    D T 601      11.137  -2.316  -0.826  1.00 21.38    -0.207 NA
HETATM    4  C4    D T 601      10.463  -3.481  -1.083  1.00 21.15     0.150 A 
HETATM    5  C5    D T 601       9.969  -4.243  -0.067  1.00 22.48     0.071 A 
HETATM    6  C6    D T 601      10.167  -3.837   1.242  1.00 22.92     0.156 A 
HETATM    7  N6    D T 601       9.885  -4.224   2.606  1.00 23.12    -0.080 NA
HETATM    8  C7    D T 601       9.344  -5.344  -0.620  1.00 19.57     0.076 A 
HETATM    9  C8    D T 601       9.452  -5.256  -1.990  1.00 12.70     0.084 A 
HETATM   10  N9    D T 601      10.112  -4.106  -2.273  1.00 22.69    -0.287 N 
ENDROOT
BRANCH  10  11
HETATM   11  C1'   D T 601      10.527  -3.597  -3.593  1.00 23.36     0.240 C 
HETATM   12  C2'   D T 601       9.672  -4.251  -4.675  1.00 24.93     0.234 C 
HETATM   13  O2'   D T 601      10.388  -4.213  -5.899  1.00 35.12    -0.216 OA
HETATM   14  C3'   D T 601       8.499  -3.294  -4.712  1.00 25.54     0.216 C 
HETATM   15  O3'   D T 601       7.703  -3.419  -5.872  1.00 30.30    -0.218 OA
HETATM   16  C4'   D T 601       9.193  -1.947  -4.588  1.00 31.54     0.183 C 
HETATM   17  O4'   D T 601      10.277  -2.207  -3.653  1.00 29.87    -0.331 OA
BRANCH  16  18
HETATM   18  C5'   D T 601       8.350  -0.797  -4.098  1.00 31.76     0.214 C 
HETATM   19  O5'   D T 601       8.817  -0.321  -2.846  1.00 34.06    -0.218 OA
ENDBRANCH  16  18
ENDBRANCH  10  11
BRANCH   8  20
HETATM   20  C10   D T 601       8.604  -6.573  -0.027  1.00 29.97     0.268 C 
HETATM   21  N11   D T 601       7.382  -7.073  -0.692  1.00 35.69    -0.057 NA
HETATM   22  O12   D T 601       9.035  -7.126   0.983  1.00 30.21    -0.271 OA
ENDBRANCH   8  20
TORSDOF 3
ENDMDL
MODEL 8
REMARK VINA RESULT:    -4.998      3.114      4.853
REMARK INTER + INTRA:          -6.206
REMARK INTER:                  -5.972
REMARK INTRA:                  -0.234
REMARK UNBOUND:                -0.332
REMARK  3 active torsions:
REMARK  status: ('A' for Active; 'I' for Inactive)
REMARK    1  A    between atoms: C7_8  and  C10_12 
REMARK    2  A    between atoms: N9_10  and  C1'_11 
REMARK    3  A    between atoms: C4'_19  and  C5'_21 
ROOT
HETATM    1  N1    D T 601      14.011  -0.651   0.739  1.00 22.46    -0.210 NA
HETATM    2  C2    D T 601      14.266  -0.342  -0.576  1.00 17.33     0.201 A 
HETATM    3  N3    D T 601      13.454  -0.849  -1.560  1.00 21.38    -0.207 NA
HETATM    4  C4    D T 601      12.401  -1.656  -1.216  1.00 21.15     0.150 A 
HETATM    5  C5    D T 601      12.145  -1.955   0.087  1.00 22.48     0.071 A 
HETATM    6  C6    D T 601      12.971  -1.446   1.075  1.00 22.92     0.156 A 
HETATM    7  N6    D T 601      13.156  -1.437   2.509  1.00 23.12    -0.080 NA
HETATM    8  C7    D T 601      11.035  -2.777   0.130  1.00 19.57     0.076 A 
HETATM    9  C8    D T 601      10.603  -2.982  -1.161  1.00 12.70     0.084 A 
HETATM   10  N9    D T 601      11.421  -2.277  -1.980  1.00 22.69    -0.287 N 
ENDROOT
BRANCH  10  11
HETATM   11  C1'   D T 601      11.407  -2.224  -3.454  1.00 23.36     0.240 C 
HETATM   12  C2'   D T 601      10.472  -3.307  -3.986  1.00 24.93     0.234 C 
HETATM   13  O2'   D T 601      10.860  -3.626  -5.313  1.00 35.12    -0.216 OA
HETATM   14  C3'   D T 601       9.155  -2.560  -3.979  1.00 25.54     0.216 C 
HETATM   15  O3'   D T 601       8.153  -3.172  -4.764  1.00 30.30    -0.218 OA
HETATM   16  C4'   D T 601       9.575  -1.188  -4.485  1.00 31.54     0.183 C 
HETATM   17  O4'   D T 601      10.876  -0.981  -3.868  1.00 29.87    -0.331 OA
BRANCH  16  18
HETATM   18  C5'   D T 601       8.656  -0.039  -4.155  1.00 31.76     0.214 C 
HETATM   19  O5'   D T 601       8.851   0.402  -2.822  1.00 34.06    -0.218 OA
ENDBRANCH  16  18
ENDBRANCH  10  11
BRANCH   8  20
HETATM   20  C10   D T 601      10.248  -3.466   1.278  1.00 29.97     0.268 C 
HETATM   21  N11   D T 601       8.907  -4.023   1.003  1.00 35.69    -0.057 NA
HETATM   22  O12   D T 601      10.740  -3.550   2.401  1.00 30.21    -0.271 OA
ENDBRANCH   8  20
TORSDOF 3
ENDMDL
MODEL 9
REMARK VINA RESULT:    -4.876      3.194      5.684
REMARK INTER + INTRA:          -6.063
REMARK INTER:                  -5.739
REMARK INTRA:                  -0.324
REMARK UNBOUND:                -0.332
REMARK  3 active torsions:
REMARK  status: ('A' for Active; 'I' for Inactive)
REMARK    1  A    between atoms: C7_8  and  C10_12 
REMARK    2  A    between atoms: N9_10  and  C1'_11 
REMARK    3  A    between atoms: C4'_19  and  C5'_21 
ROOT
HETATM    1  N1    D T 601       8.322   0.062  -4.371  1.00 22.46    -0.210 NA
HETATM    2  C2    D T 601       8.533   0.620  -3.133  1.00 17.33     0.201 A 
HETATM    3  N3    D T 601       9.031  -0.158  -2.116  1.00 21.38    -0.207 NA
HETATM    4  C4    D T 601       9.309  -1.479  -2.353  1.00 21.15     0.150 A 
HETATM    5  C5    D T 601       9.106  -2.028  -3.582  1.00 22.48     0.071 A 
HETATM    6  C6    D T 601       8.598  -1.240  -4.602  1.00 22.92     0.156 A 
HETATM    7  N6    D T 601       8.214  -1.292  -5.994  1.00 23.12    -0.080 NA
HETATM    8  C7    D T 601       9.472  -3.359  -3.525  1.00 19.57     0.076 A 
HETATM    9  C8    D T 601       9.906  -3.630  -2.246  1.00 12.70     0.084 A 
HETATM   10  N9    D T 601       9.831  -2.476  -1.539  1.00 22.69    -0.287 N 
ENDROOT
BRANCH  10  11
HETATM   11  C1'   D T 601      10.125  -2.265  -0.109  1.00 23.36     0.240 C 
HETATM   12  C2'   D T 601      10.811  -3.508   0.452  1.00 24.93     0.234 C 
HETATM   13  O2'   D T 601      10.597  -3.547   1.853  1.00 35.12    -0.216 OA
HETATM   14  C3'   D T 601      12.257  -3.187   0.140  1.00 25.54     0.216 C 
HETATM   15  O3'   D T 601      13.180  -3.975   0.863  1.00 30.30    -0.218 OA
HETATM   16  C4'   D T 601      12.325  -1.704   0.475  1.00 31.54     0.183 C 
HETATM   17  O4'   D T 601      11.040  -1.195   0.023  1.00 29.87    -0.331 OA
BRANCH  16  18
HETATM   18  C5'   D T 601      13.446  -0.921  -0.160  1.00 31.76     0.214 C 
HETATM   19  O5'   D T 601      13.992  -1.620  -1.267  1.00 34.06    -0.218 OA
ENDBRANCH  16  18
ENDBRANCH  10  11
BRANCH   8  20
HETATM   20  C10   D T 601       9.476  -4.521  -4.555  1.00 29.97     0.268 C 
HETATM   21  N11   D T 601       9.319  -5.912  -4.078  1.00 35.69    -0.057 NA
HETATM   22  O12   D T 601       9.605  -4.284  -5.754  1.00 30.21    -0.271 OA
ENDBRANCH   8  20
TORSDOF 3
ENDMDL
