MODEL 1
REMARK VINA RESULT:    -9.026      0.000      0.000
REMARK INTER + INTRA:         -13.860
REMARK INTER:                 -12.719
REMARK INTRA:                  -1.141
REMARK UNBOUND:                -1.141
REMARK  7 active torsions:
REMARK  status: ('A' for Active; 'I' for Inactive)
REMARK    1  A    between atoms: N3_2  and  C20_12 
REMARK    2  A    between atoms: C4_3  and  C5_4 
REMARK    3  A    between atoms: C13_9  and  N2_29 
REMARK    4  A    between atoms: C17_11  and  C19_33 
REMARK    5  A    between atoms: C20_12  and  C16_31 
REMARK    6  A    between atoms: C2_23  and  C3_24 
REMARK    7  A    between atoms: C9_25  and  C12_27 
REMARK       I    between atoms: C12_27  and  N2_29 
ROOT
HETATM    1  C12   D T 801      -4.875  -2.828  -5.765  1.00 44.92     0.279 C 
HETATM    2  O1    D T 801      -4.547  -1.804  -5.194  1.00 47.76    -0.265 OA
HETATM    3  N2    D T 801      -5.965  -2.825  -6.587  1.00 46.59    -0.208 NA
ENDROOT
BRANCH   1   4
HETATM    4  C9    D T 801      -4.047  -4.062  -5.579  1.00 40.68     0.059 A 
HETATM    5  C8    D T 801      -2.824  -4.070  -4.875  1.00 40.60     0.004 A 
HETATM    6  C7    D T 801      -2.099  -5.240  -4.703  1.00 42.33    -0.004 A 
HETATM    7  C6    D T 801      -2.549  -6.447  -5.210  1.00 44.57    -0.014 A 
HETATM    8  C5    D T 801      -3.767  -6.476  -5.913  1.00 44.90     0.038 A 
HETATM    9  C11   D T 801      -1.728  -7.692  -4.999  1.00 40.34     0.032 C 
HETATM   10  C10   D T 801      -4.502  -5.289  -6.088  1.00 44.55     0.013 A 
BRANCH   8  11
HETATM   11  C4    D T 801      -4.332  -7.664  -6.485  1.00 43.57    -0.058 C 
HETATM   12  C3    D T 801      -4.834  -8.621  -6.954  1.00 44.10    -0.039 C 
BRANCH  12  13
HETATM   13  C2    D T 801      -5.384  -9.803  -7.547  1.00 46.85     0.145 A 
HETATM   14  N82   D T 801      -6.614 -10.020  -8.119  1.00 45.71    -0.203 N 
HETATM   15  N81   D T 801      -7.740  -9.202  -8.296  1.00 48.41    -0.162 NA
HETATM   16  C84   D T 801      -6.615 -11.328  -8.560  1.00 48.08     0.165 A 
HETATM   17  C83   D T 801      -8.812  -9.678  -8.883  1.00 54.40     0.121 A 
HETATM   18  C82   D T 801      -8.846 -11.008  -9.344  1.00 53.21     0.026 A 
HETATM   19  C81   D T 801      -7.767 -11.834  -9.194  1.00 48.83     0.041 A 
HETATM   20  N1    D T 801      -5.445 -11.880  -8.277  1.00 46.84    -0.223 NA
HETATM   21  C1    D T 801      -4.682 -10.987  -7.667  1.00 46.95     0.128 A 
ENDBRANCH  12  13
ENDBRANCH   8  11
ENDBRANCH   1   4
BRANCH   3  22
HETATM   22  C13   D T 801      -6.792  -1.721  -6.876  1.00 45.13     0.085 A 
HETATM   23  C14   D T 801      -6.388  -0.755  -7.796  1.00 45.97     0.019 A 
HETATM   24  C15   D T 801      -7.177   0.357  -8.053  1.00 43.20    -0.001 A 
HETATM   25  C16   D T 801      -8.390   0.557  -7.391  1.00 40.99     0.015 A 
HETATM   26  C17   D T 801      -8.791  -0.404  -6.434  1.00 44.10     0.071 A 
HETATM   27  C18   D T 801      -7.985  -1.519  -6.185  1.00 42.25     0.023 A 
BRANCH  25  28
HETATM   28  C20   D T 801      -9.221   1.800  -7.702  1.00 39.15     0.277 C 
BRANCH  28  29
HETATM   29  N3    D T 801      -8.523   3.087  -7.529  1.00 38.29     0.146 N 
HETATM   30  C21   D T 801      -8.369   3.416  -6.096  1.00 41.73     0.286 C 
HETATM   31  C22   D T 801      -7.649   4.756  -5.910  1.00 41.71     0.286 C 
HETATM   32  N4    D T 801      -8.361   5.807  -6.653  1.00 48.22     0.143 N 
HETATM   33  C23   D T 801      -8.418   5.475  -8.089  1.00 42.74     0.286 C 
HETATM   34  C25   D T 801      -7.754   7.125  -6.427  1.00 47.13     0.285 C 
HETATM   35  C24   D T 801      -9.205   4.171  -8.256  1.00 36.93     0.286 C 
ENDBRANCH  28  29
ENDBRANCH  25  28
BRANCH  26  36
HETATM   36  C19   D T 801     -10.088  -0.278  -5.659  1.00 42.98     0.419 C 
HETATM   37  F1    D T 801     -10.162   0.920  -4.937  1.00 48.85    -0.166 F 
HETATM   38  F2    D T 801     -11.184  -0.352  -6.525  1.00 43.91    -0.166 F 
HETATM   39  F3    D T 801     -10.153  -1.334  -4.757  1.00 45.50    -0.166 F 
ENDBRANCH  26  36
ENDBRANCH   3  22
TORSDOF 7
ENDMDL
MODEL 2
REMARK VINA RESULT:    -8.458      1.623      2.093
REMARK INTER + INTRA:         -13.060
REMARK INTER:                 -11.984
REMARK INTRA:                  -1.075
REMARK UNBOUND:                -1.141
REMARK  7 active torsions:
REMARK  status: ('A' for Active; 'I' for Inactive)
REMARK    1  A    between atoms: N3_2  and  C20_12 
REMARK    2  A    between atoms: C4_3  and  C5_4 
REMARK    3  A    between atoms: C13_9  and  N2_29 
REMARK    4  A    between atoms: C17_11  and  C19_33 
REMARK    5  A    between atoms: C20_12  and  C16_31 
REMARK    6  A    between atoms: C2_23  and  C3_24 
REMARK    7  A    between atoms: C9_25  and  C12_27 
REMARK       I    between atoms: C12_27  and  N2_29 
ROOT
HETATM    1  C12   D T 801      -5.311  -3.164  -5.785  1.00 44.92     0.279 C 
HETATM    2  O1    D T 801      -4.865  -2.072  -6.087  1.00 47.76    -0.265 OA
HETATM    3  N2    D T 801      -6.658  -3.329  -5.642  1.00 46.59    -0.208 NA
ENDROOT
BRANCH   1   4
HETATM    4  C9    D T 801      -4.365  -4.313  -5.615  1.00 40.68     0.059 A 
HETATM    5  C8    D T 801      -3.141  -4.207  -4.922  1.00 40.60     0.004 A 
HETATM    6  C7    D T 801      -2.305  -5.303  -4.765  1.00 42.33    -0.004 A 
HETATM    7  C6    D T 801      -2.641  -6.544  -5.276  1.00 44.57    -0.014 A 
HETATM    8  C5    D T 801      -3.857  -6.687  -5.969  1.00 44.90     0.038 A 
HETATM    9  C11   D T 801      -1.701  -7.706  -5.082  1.00 40.34     0.032 C 
HETATM   10  C10   D T 801      -4.705  -5.575  -6.129  1.00 44.55     0.013 A 
BRANCH   8  11
HETATM   11  C4    D T 801      -4.311  -7.920  -6.544  1.00 43.57    -0.058 C 
HETATM   12  C3    D T 801      -4.717  -8.913  -7.031  1.00 44.10    -0.039 C 
BRANCH  12  13
HETATM   13  C2    D T 801      -5.148 -10.145  -7.621  1.00 46.85     0.145 A 
HETATM   14  N82   D T 801      -6.334 -10.468  -8.234  1.00 45.71    -0.203 N 
HETATM   15  N81   D T 801      -7.513  -9.746  -8.470  1.00 48.41    -0.162 NA
HETATM   16  C84   D T 801      -6.213 -11.780  -8.649  1.00 48.08     0.165 A 
HETATM   17  C83   D T 801      -8.520 -10.316  -9.088  1.00 54.40     0.121 A 
HETATM   18  C82   D T 801      -8.430 -11.651  -9.524  1.00 53.21     0.026 A 
HETATM   19  C81   D T 801      -7.297 -12.386  -9.317  1.00 48.83     0.041 A 
HETATM   20  N1    D T 801      -5.016 -12.232  -8.312  1.00 46.84    -0.223 NA
HETATM   21  C1    D T 801      -4.350 -11.271  -7.691  1.00 46.95     0.128 A 
ENDBRANCH  12  13
ENDBRANCH   8  11
ENDBRANCH   1   4
BRANCH   3  22
HETATM   22  C13   D T 801      -7.646  -2.340  -5.820  1.00 45.13     0.085 A 
HETATM   23  C14   D T 801      -8.219  -1.707  -4.719  1.00 45.97     0.019 A 
HETATM   24  C15   D T 801      -9.224  -0.763  -4.884  1.00 43.20    -0.001 A 
HETATM   25  C16   D T 801      -9.705  -0.427  -6.151  1.00 40.99     0.015 A 
HETATM   26  C17   D T 801      -9.148  -1.089  -7.271  1.00 44.10     0.071 A 
HETATM   27  C18   D T 801      -8.138  -2.037  -7.088  1.00 42.25     0.023 A 
BRANCH  25  28
HETATM   28  C20   D T 801     -10.816   0.612  -6.283  1.00 39.15     0.277 C 
BRANCH  28  29
HETATM   29  N3    D T 801     -10.475   1.966  -5.810  1.00 38.29     0.146 N 
HETATM   30  C21   D T 801     -11.644   2.867  -5.902  1.00 41.73     0.286 C 
HETATM   31  C22   D T 801     -11.294   4.279  -5.417  1.00 41.71     0.286 C 
HETATM   32  N4    D T 801     -10.135   4.786  -6.168  1.00 48.22     0.143 N 
HETATM   33  C23   D T 801      -8.972   3.900  -5.980  1.00 42.74     0.286 C 
HETATM   34  C25   D T 801      -9.824   6.172  -5.797  1.00 47.13     0.285 C 
HETATM   35  C24   D T 801      -9.319   2.516  -6.539  1.00 36.93     0.286 C 
ENDBRANCH  28  29
ENDBRANCH  25  28
BRANCH  26  36
HETATM   36  C19   D T 801      -9.603  -0.798  -8.688  1.00 42.98     0.419 C 
HETATM   37  F1    D T 801     -10.998  -0.795  -8.808  1.00 48.85    -0.166 F 
HETATM   38  F2    D T 801      -9.110   0.439  -9.115  1.00 43.91    -0.166 F 
HETATM   39  F3    D T 801      -9.097  -1.797  -9.513  1.00 45.50    -0.166 F 
ENDBRANCH  26  36
ENDBRANCH   3  22
TORSDOF 7
ENDMDL
MODEL 3
REMARK VINA RESULT:    -8.300      3.205      4.376
REMARK INTER + INTRA:         -12.838
REMARK INTER:                 -11.828
REMARK INTRA:                  -1.010
REMARK UNBOUND:                -1.141
REMARK  7 active torsions:
REMARK  status: ('A' for Active; 'I' for Inactive)
REMARK    1  A    between atoms: N3_2  and  C20_12 
REMARK    2  A    between atoms: C4_3  and  C5_4 
REMARK    3  A    between atoms: C13_9  and  N2_29 
REMARK    4  A    between atoms: C17_11  and  C19_33 
REMARK    5  A    between atoms: C20_12  and  C16_31 
REMARK    6  A    between atoms: C2_23  and  C3_24 
REMARK    7  A    between atoms: C9_25  and  C12_27 
REMARK       I    between atoms: C12_27  and  N2_29 
ROOT
HETATM    1  C12   D T 801      -6.611  -0.410  -7.147  1.00 44.92     0.279 C 
HETATM    2  O1    D T 801      -6.838  -0.301  -8.338  1.00 47.76    -0.265 OA
HETATM    3  N2    D T 801      -7.281   0.376  -6.255  1.00 46.59    -0.208 NA
ENDROOT
BRANCH   1   4
HETATM    4  C9    D T 801      -5.623  -1.438  -6.686  1.00 40.68     0.059 A 
HETATM    5  C8    D T 801      -4.369  -1.107  -6.132  1.00 40.60     0.004 A 
HETATM    6  C7    D T 801      -3.493  -2.090  -5.693  1.00 42.33    -0.004 A 
HETATM    7  C6    D T 801      -3.817  -3.433  -5.778  1.00 44.57    -0.014 A 
HETATM    8  C5    D T 801      -5.062  -3.798  -6.322  1.00 44.90     0.038 A 
HETATM    9  C11   D T 801      -2.833  -4.465  -5.290  1.00 40.34     0.032 C 
HETATM   10  C10   D T 801      -5.950  -2.802  -6.767  1.00 44.55     0.013 A 
BRANCH   8  11
HETATM   11  C4    D T 801      -5.506  -5.155  -6.462  1.00 43.57    -0.058 C 
HETATM   12  C3    D T 801      -5.910  -6.254  -6.584  1.00 44.10    -0.039 C 
BRANCH  12  13
HETATM   13  C2    D T 801      -6.339  -7.612  -6.746  1.00 46.85     0.145 A 
HETATM   14  N82   D T 801      -5.607  -8.752  -6.970  1.00 45.71    -0.203 N 
HETATM   15  N81   D T 801      -4.234  -8.986  -7.139  1.00 48.41    -0.162 NA
HETATM   16  C84   D T 801      -6.513  -9.794  -7.019  1.00 48.08     0.165 A 
HETATM   17  C83   D T 801      -3.797 -10.205  -7.351  1.00 54.40     0.121 A 
HETATM   18  C82   D T 801      -4.693 -11.288  -7.407  1.00 53.21     0.026 A 
HETATM   19  C81   D T 801      -6.037 -11.102  -7.242  1.00 48.83     0.041 A 
HETATM   20  N1    D T 801      -7.732  -9.315  -6.831  1.00 46.84    -0.223 NA
HETATM   21  C1    D T 801      -7.661  -8.004  -6.663  1.00 46.95     0.128 A 
ENDBRANCH  12  13
ENDBRANCH   8  11
ENDBRANCH   1   4
BRANCH   3  22
HETATM   22  C13   D T 801      -8.260   1.342  -6.562  1.00 45.13     0.085 A 
HETATM   23  C14   D T 801      -9.615   1.021  -6.499  1.00 45.97     0.019 A 
HETATM   24  C15   D T 801     -10.584   1.953  -6.843  1.00 43.20    -0.001 A 
HETATM   25  C16   D T 801     -10.238   3.235  -7.277  1.00 40.99     0.015 A 
HETATM   26  C17   D T 801      -8.864   3.557  -7.372  1.00 44.10     0.071 A 
HETATM   27  C18   D T 801      -7.900   2.606  -7.023  1.00 42.25     0.023 A 
BRANCH  25  28
HETATM   28  C20   D T 801     -11.340   4.225  -7.651  1.00 39.15     0.277 C 
BRANCH  28  29
HETATM   29  N3    D T 801     -12.080   4.806  -6.516  1.00 38.29     0.146 N 
HETATM   30  C21   D T 801     -13.477   4.321  -6.493  1.00 41.73     0.286 C 
HETATM   31  C22   D T 801     -14.254   4.926  -5.319  1.00 41.71     0.286 C 
HETATM   32  N4    D T 801     -14.170   6.394  -5.375  1.00 48.22     0.143 N 
HETATM   33  C23   D T 801     -12.764   6.833  -5.311  1.00 42.74     0.286 C 
HETATM   34  C25   D T 801     -14.978   7.015  -4.317  1.00 47.13     0.285 C 
HETATM   35  C24   D T 801     -12.025   6.278  -6.534  1.00 36.93     0.286 C 
ENDBRANCH  28  29
ENDBRANCH  25  28
BRANCH  26  36
HETATM   36  C19   D T 801      -8.385   4.919  -7.835  1.00 42.98     0.419 C 
HETATM   37  F1    D T 801      -8.816   5.950  -6.990  1.00 48.85    -0.166 F 
HETATM   38  F2    D T 801      -6.989   4.947  -7.907  1.00 43.91    -0.166 F 
HETATM   39  F3    D T 801      -8.909   5.148  -9.103  1.00 45.50    -0.166 F 
ENDBRANCH  26  36
ENDBRANCH   3  22
TORSDOF 7
ENDMDL
MODEL 4
REMARK VINA RESULT:    -8.188      4.042     12.922
REMARK INTER + INTRA:         -12.679
REMARK INTER:                 -11.988
REMARK INTRA:                  -0.692
REMARK UNBOUND:                -1.141
REMARK  7 active torsions:
REMARK  status: ('A' for Active; 'I' for Inactive)
REMARK    1  A    between atoms: N3_2  and  C20_12 
REMARK    2  A    between atoms: C4_3  and  C5_4 
REMARK    3  A    between atoms: C13_9  and  N2_29 
REMARK    4  A    between atoms: C17_11  and  C19_33 
REMARK    5  A    between atoms: C20_12  and  C16_31 
REMARK    6  A    between atoms: C2_23  and  C3_24 
REMARK    7  A    between atoms: C9_25  and  C12_27 
REMARK       I    between atoms: C12_27  and  N2_29 
ROOT
HETATM    1  C12   D T 801      -8.389   2.818  -7.163  1.00 44.92     0.279 C 
HETATM    2  O1    D T 801      -9.112   2.414  -8.055  1.00 47.76    -0.265 OA
HETATM    3  N2    D T 801      -7.599   1.939  -6.480  1.00 46.59    -0.208 NA
ENDROOT
BRANCH   1   4
HETATM    4  C9    D T 801      -8.357   4.286  -6.862  1.00 40.68     0.059 A 
HETATM    5  C8    D T 801      -7.309   5.134  -7.277  1.00 40.60     0.004 A 
HETATM    6  C7    D T 801      -7.330   6.493  -7.001  1.00 42.33    -0.004 A 
HETATM    7  C6    D T 801      -8.382   7.072  -6.312  1.00 44.57    -0.014 A 
HETATM    8  C5    D T 801      -9.447   6.255  -5.887  1.00 44.90     0.038 A 
HETATM    9  C11   D T 801      -8.362   8.552  -6.033  1.00 40.34     0.032 C 
HETATM   10  C10   D T 801      -9.425   4.877  -6.167  1.00 44.55     0.013 A 
BRANCH   8  11
HETATM   11  C4    D T 801     -10.588   6.740  -5.166  1.00 43.57    -0.058 C 
HETATM   12  C3    D T 801     -11.549   7.109  -4.594  1.00 44.10    -0.039 C 
BRANCH  12  13
HETATM   13  C2    D T 801     -12.677   7.584  -3.849  1.00 46.85     0.145 A 
HETATM   14  N82   D T 801     -13.531   6.914  -3.009  1.00 45.71    -0.203 N 
HETATM   15  N81   D T 801     -13.620   5.571  -2.612  1.00 48.41    -0.162 NA
HETATM   16  C84   D T 801     -14.426   7.852  -2.532  1.00 48.08     0.165 A 
HETATM   17  C83   D T 801     -14.562   5.192  -1.782  1.00 54.40     0.121 A 
HETATM   18  C82   D T 801     -15.489   6.122  -1.278  1.00 53.21     0.026 A 
HETATM   19  C81   D T 801     -15.434   7.440  -1.637  1.00 48.83     0.041 A 
HETATM   20  N1    D T 801     -14.130   9.033  -3.051  1.00 46.84    -0.223 NA
HETATM   21  C1    D T 801     -13.082   8.905  -3.848  1.00 46.95     0.128 A 
ENDBRANCH  12  13
ENDBRANCH   8  11
ENDBRANCH   1   4
BRANCH   3  22
HETATM   22  C13   D T 801      -7.508   0.550  -6.701  1.00 45.13     0.085 A 
HETATM   23  C14   D T 801      -6.856   0.054  -7.828  1.00 45.97     0.019 A 
HETATM   24  C15   D T 801      -6.801  -1.311  -8.075  1.00 43.20    -0.001 A 
HETATM   25  C16   D T 801      -7.408  -2.230  -7.216  1.00 40.99     0.015 A 
HETATM   26  C17   D T 801      -8.098  -1.730  -6.087  1.00 44.10     0.071 A 
HETATM   27  C18   D T 801      -8.145  -0.353  -5.852  1.00 42.25     0.023 A 
BRANCH  25  28
HETATM   28  C20   D T 801      -7.327  -3.723  -7.532  1.00 39.15     0.277 C 
BRANCH  28  29
HETATM   29  N3    D T 801      -6.026  -4.358  -7.256  1.00 38.29     0.146 N 
HETATM   30  C21   D T 801      -6.208  -5.672  -6.603  1.00 41.73     0.286 C 
HETATM   31  C22   D T 801      -4.858  -6.335  -6.307  1.00 41.71     0.286 C 
HETATM   32  N4    D T 801      -4.024  -5.423  -5.509  1.00 48.22     0.143 N 
HETATM   33  C23   D T 801      -3.801  -4.160  -6.236  1.00 42.74     0.286 C 
HETATM   34  C25   D T 801      -2.756  -6.057  -5.127  1.00 47.13     0.285 C 
HETATM   35  C24   D T 801      -5.157  -3.479  -6.455  1.00 36.93     0.286 C 
ENDBRANCH  28  29
ENDBRANCH  25  28
BRANCH  26  36
HETATM   36  C19   D T 801      -8.792  -2.645  -5.096  1.00 42.98     0.419 C 
HETATM   37  F1    D T 801      -9.818  -3.392  -5.691  1.00 48.85    -0.166 F 
HETATM   38  F2    D T 801      -7.873  -3.523  -4.514  1.00 43.91    -0.166 F 
HETATM   39  F3    D T 801      -9.353  -1.851  -4.102  1.00 45.50    -0.166 F 
ENDBRANCH  26  36
ENDBRANCH   3  22
TORSDOF 7
ENDMDL
MODEL 5
REMARK VINA RESULT:    -8.171      4.025     12.242
REMARK INTER + INTRA:         -12.656
REMARK INTER:                 -11.523
REMARK INTRA:                  -1.133
REMARK UNBOUND:                -1.141
REMARK  7 active torsions:
REMARK  status: ('A' for Active; 'I' for Inactive)
REMARK    1  A    between atoms: N3_2  and  C20_12 
REMARK    2  A    between atoms: C4_3  and  C5_4 
REMARK    3  A    between atoms: C13_9  and  N2_29 
REMARK    4  A    between atoms: C17_11  and  C19_33 
REMARK    5  A    between atoms: C20_12  and  C16_31 
REMARK    6  A    between atoms: C2_23  and  C3_24 
REMARK    7  A    between atoms: C9_25  and  C12_27 
REMARK       I    between atoms: C12_27  and  N2_29 
ROOT
HETATM    1  C12   D T 801      -6.128  -5.444  -6.668  1.00 44.92     0.279 C 
HETATM    2  O1    D T 801      -6.925  -5.542  -7.583  1.00 47.76    -0.265 OA
HETATM    3  N2    D T 801      -5.693  -6.568  -6.027  1.00 46.59    -0.208 NA
ENDROOT
BRANCH   1   4
HETATM    4  C9    D T 801      -5.614  -4.088  -6.293  1.00 40.68     0.059 A 
HETATM    5  C8    D T 801      -4.301  -3.863  -5.831  1.00 40.60     0.004 A 
HETATM    6  C7    D T 801      -3.855  -2.587  -5.519  1.00 42.33    -0.004 A 
HETATM    7  C6    D T 801      -4.680  -1.484  -5.653  1.00 44.57    -0.014 A 
HETATM    8  C5    D T 801      -5.995  -1.671  -6.116  1.00 44.90     0.038 A 
HETATM    9  C11   D T 801      -4.153  -0.117  -5.300  1.00 40.34     0.032 C 
HETATM   10  C10   D T 801      -6.447  -2.966  -6.432  1.00 44.55     0.013 A 
BRANCH   8  11
HETATM   11  C4    D T 801      -6.940  -0.607  -6.293  1.00 43.57    -0.058 C 
HETATM   12  C3    D T 801      -7.685   0.290  -6.457  1.00 44.10    -0.039 C 
BRANCH  12  13
HETATM   13  C2    D T 801      -8.643   1.337  -6.651  1.00 46.85     0.145 A 
HETATM   14  N82   D T 801      -8.523   2.694  -6.475  1.00 45.71    -0.203 N 
HETATM   15  N81   D T 801      -7.470   3.508  -6.032  1.00 48.41    -0.162 NA
HETATM   16  C84   D T 801      -9.739   3.244  -6.832  1.00 48.08     0.165 A 
HETATM   17  C83   D T 801      -7.633   4.807  -5.951  1.00 54.40     0.121 A 
HETATM   18  C82   D T 801      -8.859   5.399  -6.308  1.00 53.21     0.026 A 
HETATM   19  C81   D T 801      -9.908   4.640  -6.747  1.00 48.83     0.041 A 
HETATM   20  N1    D T 801     -10.556   2.274  -7.211  1.00 46.84    -0.223 NA
HETATM   21  C1    D T 801      -9.926   1.114  -7.114  1.00 46.95     0.128 A 
ENDBRANCH  12  13
ENDBRANCH   8  11
ENDBRANCH   1   4
BRANCH   3  22
HETATM   22  C13   D T 801      -6.067  -7.895  -6.318  1.00 45.13     0.085 A 
HETATM   23  C14   D T 801      -7.184  -8.465  -5.709  1.00 45.97     0.019 A 
HETATM   24  C15   D T 801      -7.533  -9.785  -5.957  1.00 43.20    -0.001 A 
HETATM   25  C16   D T 801      -6.773 -10.591  -6.807  1.00 40.99     0.015 A 
HETATM   26  C17   D T 801      -5.622 -10.028  -7.404  1.00 44.10     0.071 A 
HETATM   27  C18   D T 801      -5.282  -8.697  -7.144  1.00 42.25     0.023 A 
BRANCH  25  28
HETATM   28  C20   D T 801      -7.193 -12.041  -7.044  1.00 39.15     0.277 C 
BRANCH  28  29
HETATM   29  N3    D T 801      -8.565 -12.227  -7.552  1.00 38.29     0.146 N 
HETATM   30  C21   D T 801      -8.976 -13.644  -7.454  1.00 41.73     0.286 C 
HETATM   31  C22   D T 801     -10.399 -13.846  -7.987  1.00 41.71     0.286 C 
HETATM   32  N4    D T 801     -10.490 -13.328  -9.361  1.00 48.22     0.143 N 
HETATM   33  C23   D T 801     -10.152 -11.894  -9.395  1.00 42.74     0.286 C 
HETATM   34  C25   D T 801     -11.815 -13.585  -9.940  1.00 47.13     0.285 C 
HETATM   35  C24   D T 801      -8.701 -11.725  -8.930  1.00 36.93     0.286 C 
ENDBRANCH  28  29
ENDBRANCH  25  28
BRANCH  26  36
HETATM   36  C19   D T 801      -4.729 -10.820  -8.339  1.00 42.98     0.419 C 
HETATM   37  F1    D T 801      -4.184 -11.953  -7.722  1.00 48.85    -0.166 F 
HETATM   38  F2    D T 801      -5.443 -11.222  -9.472  1.00 43.91    -0.166 F 
HETATM   39  F3    D T 801      -3.681  -9.994  -8.733  1.00 45.50    -0.166 F 
ENDBRANCH  26  36
ENDBRANCH   3  22
TORSDOF 7
ENDMDL
MODEL 6
REMARK VINA RESULT:    -8.116      2.861     12.508
REMARK INTER + INTRA:         -12.578
REMARK INTER:                 -12.230
REMARK INTRA:                  -0.348
REMARK UNBOUND:                -1.141
REMARK  7 active torsions:
REMARK  status: ('A' for Active; 'I' for Inactive)
REMARK    1  A    between atoms: N3_2  and  C20_12 
REMARK    2  A    between atoms: C4_3  and  C5_4 
REMARK    3  A    between atoms: C13_9  and  N2_29 
REMARK    4  A    between atoms: C17_11  and  C19_33 
REMARK    5  A    between atoms: C20_12  and  C16_31 
REMARK    6  A    between atoms: C2_23  and  C3_24 
REMARK    7  A    between atoms: C9_25  and  C12_27 
REMARK       I    between atoms: C12_27  and  N2_29 
ROOT
HETATM    1  C12   D T 801      -8.572  -2.128  -6.814  1.00 44.92     0.279 C 
HETATM    2  O1    D T 801      -8.010  -2.118  -7.894  1.00 47.76    -0.265 OA
HETATM    3  N2    D T 801      -8.251  -3.082  -5.892  1.00 46.59    -0.208 NA
ENDROOT
BRANCH   1   4
HETATM    4  C9    D T 801      -9.580  -1.062  -6.510  1.00 40.68     0.059 A 
HETATM    5  C8    D T 801     -10.934  -1.340  -6.228  1.00 40.60     0.004 A 
HETATM    6  C7    D T 801     -11.830  -0.325  -5.926  1.00 42.33    -0.004 A 
HETATM    7  C6    D T 801     -11.431   0.999  -5.884  1.00 44.57    -0.014 A 
HETATM    8  C5    D T 801     -10.086   1.312  -6.156  1.00 44.90     0.038 A 
HETATM    9  C11   D T 801     -12.440   2.068  -5.553  1.00 40.34     0.032 C 
HETATM   10  C10   D T 801      -9.177   0.282  -6.463  1.00 44.55     0.013 A 
BRANCH   8  11
HETATM   11  C4    D T 801      -9.557   2.645  -6.145  1.00 43.57    -0.058 C 
HETATM   12  C3    D T 801      -9.085   3.724  -6.145  1.00 44.10    -0.039 C 
BRANCH  12  13
HETATM   13  C2    D T 801      -8.572   5.061  -6.156  1.00 46.85     0.145 A 
HETATM   14  N82   D T 801      -7.650   5.652  -6.984  1.00 45.71    -0.203 N 
HETATM   15  N81   D T 801      -6.888   5.170  -8.059  1.00 48.41    -0.162 NA
HETATM   16  C84   D T 801      -7.542   6.966  -6.575  1.00 48.08     0.165 A 
HETATM   17  C83   D T 801      -6.058   5.969  -8.686  1.00 54.40     0.121 A 
HETATM   18  C82   D T 801      -5.923   7.314  -8.294  1.00 53.21     0.026 A 
HETATM   19  C81   D T 801      -6.651   7.822  -7.254  1.00 48.83     0.041 A 
HETATM   20  N1    D T 801      -8.358   7.168  -5.552  1.00 46.84    -0.223 NA
HETATM   21  C1    D T 801      -8.993   6.041  -5.276  1.00 46.95     0.128 A 
ENDBRANCH  12  13
ENDBRANCH   8  11
ENDBRANCH   1   4
BRANCH   3  22
HETATM   22  C13   D T 801      -7.293  -4.103  -6.044  1.00 45.13     0.085 A 
HETATM   23  C14   D T 801      -7.649  -5.332  -6.595  1.00 45.97     0.019 A 
HETATM   24  C15   D T 801      -6.721  -6.359  -6.707  1.00 43.20    -0.001 A 
HETATM   25  C16   D T 801      -5.408  -6.203  -6.259  1.00 40.99     0.015 A 
HETATM   26  C17   D T 801      -5.048  -4.968  -5.671  1.00 44.10     0.071 A 
HETATM   27  C18   D T 801      -5.993  -3.945  -5.564  1.00 42.25     0.023 A 
BRANCH  25  28
HETATM   28  C20   D T 801      -4.423  -7.363  -6.398  1.00 39.15     0.277 C 
BRANCH  28  29
HETATM   29  N3    D T 801      -4.933  -8.542  -7.121  1.00 38.29     0.146 N 
HETATM   30  C21   D T 801      -6.025  -9.193  -6.366  1.00 41.73     0.286 C 
HETATM   31  C22   D T 801      -6.555 -10.424  -7.110  1.00 41.71     0.286 C 
HETATM   32  N4    D T 801      -5.444 -11.344  -7.396  1.00 48.22     0.143 N 
HETATM   33  C23   D T 801      -4.420 -10.676  -8.220  1.00 42.74     0.286 C 
HETATM   34  C25   D T 801      -5.924 -12.579  -8.029  1.00 47.13     0.285 C 
HETATM   35  C24   D T 801      -3.852  -9.495  -7.426  1.00 36.93     0.286 C 
ENDBRANCH  28  29
ENDBRANCH  25  28
BRANCH  26  36
HETATM   36  C19   D T 801      -3.648  -4.700  -5.151  1.00 42.98     0.419 C 
HETATM   37  F1    D T 801      -2.683  -4.766  -6.164  1.00 48.85    -0.166 F 
HETATM   38  F2    D T 801      -3.584  -3.441  -4.547  1.00 43.91    -0.166 F 
HETATM   39  F3    D T 801      -3.351  -5.673  -4.203  1.00 45.50    -0.166 F 
ENDBRANCH  26  36
ENDBRANCH   3  22
TORSDOF 7
ENDMDL
MODEL 7
REMARK VINA RESULT:    -7.839      3.475      4.864
REMARK INTER + INTRA:         -12.188
REMARK INTER:                 -11.203
REMARK INTRA:                  -0.985
REMARK UNBOUND:                -1.141
REMARK  7 active torsions:
REMARK  status: ('A' for Active; 'I' for Inactive)
REMARK    1  A    between atoms: N3_2  and  C20_12 
REMARK    2  A    between atoms: C4_3  and  C5_4 
REMARK    3  A    between atoms: C13_9  and  N2_29 
REMARK    4  A    between atoms: C17_11  and  C19_33 
REMARK    5  A    between atoms: C20_12  and  C16_31 
REMARK    6  A    between atoms: C2_23  and  C3_24 
REMARK    7  A    between atoms: C9_25  and  C12_27 
REMARK       I    between atoms: C12_27  and  N2_29 
ROOT
HETATM    1  C12   D T 801      -7.123  -0.005  -7.572  1.00 44.92     0.279 C 
HETATM    2  O1    D T 801      -7.422   0.275  -8.718  1.00 47.76    -0.265 OA
HETATM    3  N2    D T 801      -7.536   0.800  -6.549  1.00 46.59    -0.208 NA
ENDROOT
BRANCH   1   4
HETATM    4  C9    D T 801      -6.338  -1.253  -7.310  1.00 40.68     0.059 A 
HETATM    5  C8    D T 801      -5.000  -1.242  -6.862  1.00 40.60     0.004 A 
HETATM    6  C7    D T 801      -4.316  -2.422  -6.607  1.00 42.33    -0.004 A 
HETATM    7  C6    D T 801      -4.921  -3.656  -6.775  1.00 44.57    -0.014 A 
HETATM    8  C5    D T 801      -6.256  -3.703  -7.216  1.00 44.90     0.038 A 
HETATM    9  C11   D T 801      -4.138  -4.911  -6.486  1.00 40.34     0.032 C 
HETATM   10  C10   D T 801      -6.949  -2.507  -7.475  1.00 44.55     0.013 A 
BRANCH   8  11
HETATM   11  C4    D T 801      -6.985  -4.920  -7.428  1.00 43.57    -0.058 C 
HETATM   12  C3    D T 801      -7.620  -5.898  -7.596  1.00 44.10    -0.039 C 
BRANCH  12  13
HETATM   13  C2    D T 801      -8.339  -7.114  -7.834  1.00 46.85     0.145 A 
HETATM   14  N82   D T 801      -9.682  -7.327  -8.032  1.00 45.71    -0.203 N 
HETATM   15  N81   D T 801     -10.791  -6.468  -8.046  1.00 48.41    -0.162 NA
HETATM   16  C84   D T 801      -9.834  -8.683  -8.244  1.00 48.08     0.165 A 
HETATM   17  C83   D T 801     -11.992  -6.951  -8.258  1.00 54.40     0.121 A 
HETATM   18  C82   D T 801     -12.183  -8.328  -8.477  1.00 53.21     0.026 A 
HETATM   19  C81   D T 801     -11.127  -9.196  -8.475  1.00 48.83     0.041 A 
HETATM   20  N1    D T 801      -8.648  -9.266  -8.183  1.00 46.84    -0.223 NA
HETATM   21  C1    D T 801      -7.727  -8.348  -7.938  1.00 46.95     0.128 A 
ENDBRANCH  12  13
ENDBRANCH   8  11
ENDBRANCH   1   4
BRANCH   3  22
HETATM   22  C13   D T 801      -8.312   1.969  -6.665  1.00 45.13     0.085 A 
HETATM   23  C14   D T 801      -9.681   1.888  -6.916  1.00 45.97     0.019 A 
HETATM   24  C15   D T 801     -10.445   3.036  -7.076  1.00 43.20    -0.001 A 
HETATM   25  C16   D T 801      -9.870   4.307  -7.008  1.00 40.99     0.015 A 
HETATM   26  C17   D T 801      -8.476   4.395  -6.784  1.00 44.10     0.071 A 
HETATM   27  C18   D T 801      -7.720   3.230  -6.626  1.00 42.25     0.023 A 
BRANCH  25  28
HETATM   28  C20   D T 801     -10.749   5.542  -7.197  1.00 39.15     0.277 C 
BRANCH  28  29
HETATM   29  N3    D T 801     -11.803   5.729  -6.182  1.00 38.29     0.146 N 
HETATM   30  C21   D T 801     -12.574   6.963  -6.444  1.00 41.73     0.286 C 
HETATM   31  C22   D T 801     -13.667   7.167  -5.389  1.00 41.71     0.286 C 
HETATM   32  N4    D T 801     -13.065   7.156  -4.046  1.00 48.22     0.143 N 
HETATM   33  C23   D T 801     -12.379   5.874  -3.800  1.00 42.74     0.286 C 
HETATM   34  C25   D T 801     -14.068   7.439  -3.011  1.00 47.13     0.285 C 
HETATM   35  C24   D T 801     -11.244   5.727  -4.819  1.00 36.93     0.286 C 
ENDBRANCH  28  29
ENDBRANCH  25  28
BRANCH  26  36
HETATM   36  C19   D T 801      -7.756   5.727  -6.696  1.00 42.98     0.419 C 
HETATM   37  F1    D T 801      -7.852   6.463  -7.885  1.00 48.85    -0.166 F 
HETATM   38  F2    D T 801      -8.274   6.494  -5.648  1.00 43.91    -0.166 F 
HETATM   39  F3    D T 801      -6.412   5.472  -6.450  1.00 45.50    -0.166 F 
ENDBRANCH  26  36
ENDBRANCH   3  22
TORSDOF 7
ENDMDL
MODEL 8
REMARK VINA RESULT:    -7.707      5.362     14.057
REMARK INTER + INTRA:         -12.003
REMARK INTER:                 -10.872
REMARK INTRA:                  -1.130
REMARK UNBOUND:                -1.141
REMARK  7 active torsions:
REMARK  status: ('A' for Active; 'I' for Inactive)
REMARK    1  A    between atoms: N3_2  and  C20_12 
REMARK    2  A    between atoms: C4_3  and  C5_4 
REMARK    3  A    between atoms: C13_9  and  N2_29 
REMARK    4  A    between atoms: C17_11  and  C19_33 
REMARK    5  A    between atoms: C20_12  and  C16_31 
REMARK    6  A    between atoms: C2_23  and  C3_24 
REMARK    7  A    between atoms: C9_25  and  C12_27 
REMARK       I    between atoms: C12_27  and  N2_29 
ROOT
HETATM    1  C12   D T 801      -9.144   5.203  -5.187  1.00 44.92     0.279 C 
HETATM    2  O1    D T 801      -8.444   4.806  -4.274  1.00 47.76    -0.265 OA
HETATM    3  N2    D T 801      -9.529   4.338  -6.171  1.00 46.59    -0.208 NA
ENDROOT
BRANCH   1   4
HETATM    4  C9    D T 801      -9.600   6.630  -5.186  1.00 40.68     0.059 A 
HETATM    5  C8    D T 801      -8.805   7.693  -5.662  1.00 40.60     0.004 A 
HETATM    6  C7    D T 801      -9.274   8.999  -5.667  1.00 42.33    -0.004 A 
HETATM    7  C6    D T 801     -10.543   9.309  -5.209  1.00 44.57    -0.014 A 
HETATM    8  C5    D T 801     -11.365   8.272  -4.731  1.00 44.90     0.038 A 
HETATM    9  C11   D T 801     -11.010  10.741  -5.232  1.00 40.34     0.032 C 
HETATM   10  C10   D T 801     -10.888   6.948  -4.726  1.00 44.55     0.013 A 
BRANCH   8  11
HETATM   11  C4    D T 801     -12.694   8.471  -4.231  1.00 43.57    -0.058 C 
HETATM   12  C3    D T 801     -13.800   8.605  -3.846  1.00 44.10    -0.039 C 
BRANCH  12  13
HETATM   13  C2    D T 801     -15.119   8.795  -3.322  1.00 46.85     0.145 A 
HETATM   14  N82   D T 801     -15.937   7.927  -2.640  1.00 45.71    -0.203 N 
HETATM   15  N81   D T 801     -15.791   6.587  -2.250  1.00 48.41    -0.162 NA
HETATM   16  C84   D T 801     -17.089   8.628  -2.342  1.00 48.08     0.165 A 
HETATM   17  C83   D T 801     -16.756   5.984  -1.598  1.00 54.40     0.121 A 
HETATM   18  C82   D T 801     -17.943   6.670  -1.279  1.00 53.21     0.026 A 
HETATM   19  C81   D T 801     -18.121   7.977  -1.638  1.00 48.83     0.041 A 
HETATM   20  N1    D T 801     -16.978   9.860  -2.813  1.00 46.84    -0.223 NA
HETATM   21  C1    D T 801     -15.803   9.992  -3.408  1.00 46.95     0.128 A 
ENDBRANCH  12  13
ENDBRANCH   8  11
ENDBRANCH   1   4
BRANCH   3  22
HETATM   22  C13   D T 801      -9.204   2.970  -6.257  1.00 45.13     0.085 A 
HETATM   23  C14   D T 801      -8.073   2.554  -6.957  1.00 45.97     0.019 A 
HETATM   24  C15   D T 801      -7.770   1.206  -7.083  1.00 43.20    -0.001 A 
HETATM   25  C16   D T 801      -8.592   0.221  -6.530  1.00 40.99     0.015 A 
HETATM   26  C17   D T 801      -9.757   0.636  -5.845  1.00 44.10     0.071 A 
HETATM   27  C18   D T 801     -10.050   1.997  -5.727  1.00 42.25     0.023 A 
BRANCH  25  28
HETATM   28  C20   D T 801      -8.221  -1.251  -6.701  1.00 39.15     0.277 C 
BRANCH  28  29
HETATM   29  N3    D T 801      -6.814  -1.586  -6.417  1.00 38.29     0.146 N 
HETATM   30  C21   D T 801      -6.399  -2.796  -7.158  1.00 41.73     0.286 C 
HETATM   31  C22   D T 801      -4.939  -3.154  -6.861  1.00 41.71     0.286 C 
HETATM   32  N4    D T 801      -4.749  -3.293  -5.409  1.00 48.22     0.143 N 
HETATM   33  C23   D T 801      -5.096  -2.036  -4.721  1.00 42.74     0.286 C 
HETATM   34  C25   D T 801      -3.382  -3.724  -5.089  1.00 47.13     0.285 C 
HETATM   35  C24   D T 801      -6.579  -1.738  -4.971  1.00 36.93     0.286 C 
ENDBRANCH  28  29
ENDBRANCH  25  28
BRANCH  26  36
HETATM   36  C19   D T 801     -10.716  -0.355  -5.212  1.00 42.98     0.419 C 
HETATM   37  F1    D T 801     -11.280  -1.225  -6.154  1.00 48.85    -0.166 F 
HETATM   38  F2    D T 801     -10.062  -1.110  -4.234  1.00 43.91    -0.166 F 
HETATM   39  F3    D T 801     -11.745   0.367  -4.616  1.00 45.50    -0.166 F 
ENDBRANCH  26  36
ENDBRANCH   3  22
TORSDOF 7
ENDMDL
MODEL 9
REMARK VINA RESULT:    -7.693      5.911     14.306
REMARK INTER + INTRA:         -11.982
REMARK INTER:                 -10.987
REMARK INTRA:                  -0.996
REMARK UNBOUND:                -1.141
REMARK  7 active torsions:
REMARK  status: ('A' for Active; 'I' for Inactive)
REMARK    1  A    between atoms: N3_2  and  C20_12 
REMARK    2  A    between atoms: C4_3  and  C5_4 
REMARK    3  A    between atoms: C13_9  and  N2_29 
REMARK    4  A    between atoms: C17_11  and  C19_33 
REMARK    5  A    between atoms: C20_12  and  C16_31 
REMARK    6  A    between atoms: C2_23  and  C3_24 
REMARK    7  A    between atoms: C9_25  and  C12_27 
REMARK       I    between atoms: C12_27  and  N2_29 
ROOT
HETATM    1  C12   D T 801      -9.582   4.926  -5.121  1.00 44.92     0.279 C 
HETATM    2  O1    D T 801      -8.580   4.697  -4.469  1.00 47.76    -0.265 OA
HETATM    3  N2    D T 801     -10.100   3.957  -5.930  1.00 46.59    -0.208 NA
ENDROOT
BRANCH   1   4
HETATM    4  C9    D T 801     -10.247   6.262  -4.986  1.00 40.68     0.059 A 
HETATM    5  C8    D T 801      -9.678   7.458  -5.472  1.00 40.60     0.004 A 
HETATM    6  C7    D T 801     -10.338   8.672  -5.350  1.00 42.33    -0.004 A 
HETATM    7  C6    D T 801     -11.583   8.757  -4.750  1.00 44.57    -0.014 A 
HETATM    8  C5    D T 801     -12.181   7.583  -4.257  1.00 44.90     0.038 A 
HETATM    9  C11   D T 801     -12.262  10.097  -4.638  1.00 40.34     0.032 C 
HETATM   10  C10   D T 801     -11.511   6.352  -4.382  1.00 44.55     0.013 A 
BRANCH   8  11
HETATM   11  C4    D T 801     -13.464   7.547  -3.616  1.00 43.57    -0.058 C 
HETATM   12  C3    D T 801     -14.498   7.528  -3.054  1.00 44.10    -0.039 C 
BRANCH  12  13
HETATM   13  C2    D T 801     -15.787   7.514  -2.429  1.00 46.85     0.145 A 
HETATM   14  N82   D T 801     -16.369   8.417  -1.574  1.00 45.71    -0.203 N 
HETATM   15  N81   D T 801     -15.919   9.618  -1.005  1.00 48.41    -0.162 NA
HETATM   16  C84   D T 801     -17.632   7.934  -1.295  1.00 48.08     0.165 A 
HETATM   17  C83   D T 801     -16.698  10.295  -0.196  1.00 54.40     0.121 A 
HETATM   18  C82   D T 801     -17.991   9.830   0.109  1.00 53.21     0.026 A 
HETATM   19  C81   D T 801     -18.468   8.666  -0.428  1.00 48.83     0.041 A 
HETATM   20  N1    D T 801     -17.814   6.798  -1.949  1.00 46.84    -0.223 NA
HETATM   21  C1    D T 801     -16.721   6.518  -2.642  1.00 46.95     0.128 A 
ENDBRANCH  12  13
ENDBRANCH   8  11
ENDBRANCH   1   4
BRANCH   3  22
HETATM   22  C13   D T 801      -9.593   2.654  -6.105  1.00 45.13     0.085 A 
HETATM   23  C14   D T 801      -8.490   2.427  -6.926  1.00 45.97     0.019 A 
HETATM   24  C15   D T 801      -8.013   1.141  -7.138  1.00 43.20    -0.001 A 
HETATM   25  C16   D T 801      -8.627   0.032  -6.552  1.00 40.99     0.015 A 
HETATM   26  C17   D T 801      -9.765   0.253  -5.742  1.00 44.10     0.071 A 
HETATM   27  C18   D T 801     -10.235   1.553  -5.539  1.00 42.25     0.023 A 
BRANCH  25  28
HETATM   28  C20   D T 801      -8.069  -1.365  -6.820  1.00 39.15     0.277 C 
BRANCH  28  29
HETATM   29  N3    D T 801      -6.656  -1.564  -6.448  1.00 38.29     0.146 N 
HETATM   30  C21   D T 801      -6.068  -2.694  -7.197  1.00 41.73     0.286 C 
HETATM   31  C22   D T 801      -4.600  -2.911  -6.811  1.00 41.71     0.286 C 
HETATM   32  N4    D T 801      -4.494  -3.087  -5.354  1.00 48.22     0.143 N 
HETATM   33  C23   D T 801      -5.017  -1.901  -4.652  1.00 42.74     0.286 C 
HETATM   34  C25   D T 801      -3.114  -3.387  -4.953  1.00 47.13     0.285 C 
HETATM   35  C24   D T 801      -6.503  -1.748  -4.995  1.00 36.93     0.286 C 
ENDBRANCH  28  29
ENDBRANCH  25  28
BRANCH  26  36
HETATM   36  C19   D T 801     -10.504  -0.885  -5.064  1.00 42.98     0.419 C 
HETATM   37  F1    D T 801      -9.639  -1.752  -4.385  1.00 48.85    -0.166 F 
HETATM   38  F2    D T 801     -11.445  -0.385  -4.159  1.00 43.91    -0.166 F 
HETATM   39  F3    D T 801     -11.165  -1.612  -6.049  1.00 45.50    -0.166 F 
ENDBRANCH  26  36
ENDBRANCH   3  22
TORSDOF 7
ENDMDL
