MODEL 1
REMARK VINA RESULT:    -8.555      0.000      0.000
REMARK INTER + INTRA:         -13.135
REMARK INTER:                 -12.055
REMARK INTRA:                  -1.080
REMARK UNBOUND:                -1.080
REMARK  7 active torsions:
REMARK  status: ('A' for Active; 'I' for Inactive)
REMARK    1  A    between atoms: N3_2  and  C20_12 
REMARK    2  A    between atoms: C4_3  and  C5_4 
REMARK    3  A    between atoms: C13_9  and  N2_29 
REMARK    4  A    between atoms: C17_11  and  C19_33 
REMARK    5  A    between atoms: C20_12  and  C16_31 
REMARK    6  A    between atoms: C2_23  and  C3_24 
REMARK    7  A    between atoms: C9_25  and  C12_27 
REMARK       I    between atoms: C12_27  and  N2_29 
ROOT
HETATM    1  C12   D T 801       8.566  -7.048   0.030  1.00 44.92     0.279 C 
HETATM    2  O1    D T 801       7.624  -7.529  -0.573  1.00 47.76    -0.265 OA
HETATM    3  N2    D T 801       9.344  -7.847   0.817  1.00 46.59    -0.208 NA
ENDROOT
BRANCH   1   4
HETATM    4  C9    D T 801       8.870  -5.591  -0.140  1.00 40.68     0.059 A 
HETATM    5  C8    D T 801       9.488  -4.812   0.861  1.00 40.60     0.004 A 
HETATM    6  C7    D T 801       9.776  -3.471   0.655  1.00 42.33    -0.004 A 
HETATM    7  C6    D T 801       9.475  -2.846  -0.543  1.00 44.57    -0.014 A 
HETATM    8  C5    D T 801       8.863  -3.595  -1.565  1.00 44.90     0.038 A 
HETATM    9  C11   D T 801       9.805  -1.386  -0.721  1.00 40.34     0.032 C 
HETATM   10  C10   D T 801       8.570  -4.955  -1.355  1.00 44.55     0.013 A 
BRANCH   8  11
HETATM   11  C4    D T 801       8.503  -3.056  -2.845  1.00 43.57    -0.058 C 
HETATM   12  C3    D T 801       8.204  -2.654  -3.910  1.00 44.10    -0.039 C 
BRANCH  12  13
HETATM   13  C2    D T 801       7.819  -2.106  -5.177  1.00 46.85     0.145 A 
HETATM   14  N82   D T 801       7.991  -0.842  -5.686  1.00 45.71    -0.203 N 
HETATM   15  N81   D T 801       8.559   0.328  -5.159  1.00 48.41    -0.162 NA
HETATM   16  C84   D T 801       7.460  -0.859  -6.960  1.00 48.08     0.165 A 
HETATM   17  C83   D T 801       8.587   1.424  -5.878  1.00 54.40     0.121 A 
HETATM   18  C82   D T 801       8.055   1.443  -7.181  1.00 53.21     0.026 A 
HETATM   19  C81   D T 801       7.496   0.322  -7.729  1.00 48.83     0.041 A 
HETATM   20  N1    D T 801       6.991  -2.070  -7.217  1.00 46.84    -0.223 NA
HETATM   21  C1    D T 801       7.193  -2.843  -6.163  1.00 46.95     0.128 A 
ENDBRANCH  12  13
ENDBRANCH   8  11
ENDBRANCH   1   4
BRANCH   3  22
HETATM   22  C13   D T 801       9.186  -9.233   1.019  1.00 45.13     0.085 A 
HETATM   23  C14   D T 801       9.787 -10.146   0.155  1.00 45.97     0.019 A 
HETATM   24  C15   D T 801       9.601 -11.511   0.322  1.00 43.20    -0.001 A 
HETATM   25  C16   D T 801       8.795 -12.015   1.346  1.00 40.99     0.015 A 
HETATM   26  C17   D T 801       8.159 -11.092   2.206  1.00 44.10     0.071 A 
HETATM   27  C18   D T 801       8.356  -9.720   2.027  1.00 42.25     0.023 A 
BRANCH  25  28
HETATM   28  C20   D T 801       8.614 -13.526   1.486  1.00 39.15     0.277 C 
BRANCH  28  29
HETATM   29  N3    D T 801       7.461 -14.094   0.762  1.00 38.29     0.146 N 
HETATM   30  C21   D T 801       6.644 -14.943   1.655  1.00 41.73     0.286 C 
HETATM   31  C22   D T 801       5.447 -15.542   0.907  1.00 41.71     0.286 C 
HETATM   32  N4    D T 801       5.920 -16.269  -0.280  1.00 48.22     0.143 N 
HETATM   33  C23   D T 801       6.658 -15.363  -1.180  1.00 42.74     0.286 C 
HETATM   34  C25   D T 801       4.811 -16.934  -0.976  1.00 47.13     0.285 C 
HETATM   35  C24   D T 801       7.890 -14.835  -0.436  1.00 36.93     0.286 C 
ENDBRANCH  28  29
ENDBRANCH  25  28
BRANCH  26  36
HETATM   36  C19   D T 801       7.263 -11.537   3.347  1.00 42.98     0.419 C 
HETATM   37  F1    D T 801       7.824 -12.585   4.088  1.00 48.85    -0.166 F 
HETATM   38  F2    D T 801       7.001 -10.466   4.207  1.00 43.91    -0.166 F 
HETATM   39  F3    D T 801       6.064 -11.984   2.801  1.00 45.50    -0.166 F 
ENDBRANCH  26  36
ENDBRANCH   3  22
TORSDOF 7
ENDMDL
MODEL 2
REMARK VINA RESULT:    -8.276      1.550      1.971
REMARK INTER + INTRA:         -12.742
REMARK INTER:                 -11.681
REMARK INTRA:                  -1.061
REMARK UNBOUND:                -1.080
REMARK  7 active torsions:
REMARK  status: ('A' for Active; 'I' for Inactive)
REMARK    1  A    between atoms: N3_2  and  C20_12 
REMARK    2  A    between atoms: C4_3  and  C5_4 
REMARK    3  A    between atoms: C13_9  and  N2_29 
REMARK    4  A    between atoms: C17_11  and  C19_33 
REMARK    5  A    between atoms: C20_12  and  C16_31 
REMARK    6  A    between atoms: C2_23  and  C3_24 
REMARK    7  A    between atoms: C9_25  and  C12_27 
REMARK       I    between atoms: C12_27  and  N2_29 
ROOT
HETATM    1  C12   D T 801       8.516  -7.372   0.122  1.00 44.92     0.279 C 
HETATM    2  O1    D T 801       7.914  -7.870  -0.812  1.00 47.76    -0.265 OA
HETATM    3  N2    D T 801       8.886  -8.150   1.180  1.00 46.59    -0.208 NA
ENDROOT
BRANCH   1   4
HETATM    4  C9    D T 801       8.869  -5.917   0.066  1.00 40.68     0.059 A 
HETATM    5  C8    D T 801       9.519  -5.241   1.120  1.00 40.60     0.004 A 
HETATM    6  C7    D T 801       9.852  -3.898   1.018  1.00 42.33    -0.004 A 
HETATM    7  C6    D T 801       9.565  -3.170  -0.124  1.00 44.57    -0.014 A 
HETATM    8  C5    D T 801       8.921  -3.814  -1.196  1.00 44.90     0.038 A 
HETATM    9  C11   D T 801       9.944  -1.713  -0.188  1.00 40.34     0.032 C 
HETATM   10  C10   D T 801       8.583  -5.176  -1.092  1.00 44.55     0.013 A 
BRANCH   8  11
HETATM   11  C4    D T 801       8.571  -3.164  -2.426  1.00 43.57    -0.058 C 
HETATM   12  C3    D T 801       8.307  -2.596  -3.423  1.00 44.10    -0.039 C 
BRANCH  12  13
HETATM   13  C2    D T 801       7.973  -1.966  -4.666  1.00 46.85     0.145 A 
HETATM   14  N82   D T 801       8.231  -0.693  -5.112  1.00 45.71    -0.203 N 
HETATM   15  N81   D T 801       8.865   0.413  -4.526  1.00 48.41    -0.162 NA
HETATM   16  C84   D T 801       7.715  -0.616  -6.391  1.00 48.08     0.165 A 
HETATM   17  C83   D T 801       8.971   1.537  -5.192  1.00 54.40     0.121 A 
HETATM   18  C82   D T 801       8.456   1.651  -6.497  1.00 53.21     0.026 A 
HETATM   19  C81   D T 801       7.835   0.594  -7.103  1.00 48.83     0.041 A 
HETATM   20  N1    D T 801       7.174  -1.783  -6.709  1.00 46.84    -0.223 NA
HETATM   21  C1    D T 801       7.315  -2.615  -5.691  1.00 46.95     0.128 A 
ENDBRANCH  12  13
ENDBRANCH   8  11
ENDBRANCH   1   4
BRANCH   3  22
HETATM   22  C13   D T 801       8.652  -9.532   1.326  1.00 45.13     0.085 A 
HETATM   23  C14   D T 801       7.529  -9.991   2.012  1.00 45.97     0.019 A 
HETATM   24  C15   D T 801       7.316 -11.350   2.197  1.00 43.20    -0.001 A 
HETATM   25  C16   D T 801       8.222 -12.301   1.718  1.00 40.99     0.015 A 
HETATM   26  C17   D T 801       9.377 -11.839   1.049  1.00 44.10     0.071 A 
HETATM   27  C18   D T 801       9.580 -10.467   0.870  1.00 42.25     0.023 A 
BRANCH  25  28
HETATM   28  C20   D T 801       7.948 -13.785   1.952  1.00 39.15     0.277 C 
BRANCH  28  29
HETATM   29  N3    D T 801       6.931 -14.387   1.069  1.00 38.29     0.146 N 
HETATM   30  C21   D T 801       5.878 -15.060   1.860  1.00 41.73     0.286 C 
HETATM   31  C22   D T 801       4.820 -15.693   0.949  1.00 41.71     0.286 C 
HETATM   32  N4    D T 801       5.471 -16.601  -0.006  1.00 48.22     0.143 N 
HETATM   33  C23   D T 801       6.452 -15.869  -0.829  1.00 42.74     0.286 C 
HETATM   34  C25   D T 801       4.482 -17.297  -0.840  1.00 47.13     0.285 C 
HETATM   35  C24   D T 801       7.539 -15.308   0.095  1.00 36.93     0.286 C 
ENDBRANCH  28  29
ENDBRANCH  25  28
BRANCH  26  36
HETATM   36  C19   D T 801      10.422 -12.789   0.494  1.00 42.98     0.419 C 
HETATM   37  F1    D T 801      10.763 -13.796   1.406  1.00 48.85    -0.166 F 
HETATM   38  F2    D T 801       9.963 -13.384  -0.685  1.00 43.91    -0.166 F 
HETATM   39  F3    D T 801      11.567 -12.050   0.214  1.00 45.50    -0.166 F 
ENDBRANCH  26  36
ENDBRANCH   3  22
TORSDOF 7
ENDMDL
MODEL 3
REMARK VINA RESULT:    -8.082      2.099      2.820
REMARK INTER + INTRA:         -12.469
REMARK INTER:                 -11.532
REMARK INTRA:                  -0.937
REMARK UNBOUND:                -1.080
REMARK  7 active torsions:
REMARK  status: ('A' for Active; 'I' for Inactive)
REMARK    1  A    between atoms: N3_2  and  C20_12 
REMARK    2  A    between atoms: C4_3  and  C5_4 
REMARK    3  A    between atoms: C13_9  and  N2_29 
REMARK    4  A    between atoms: C17_11  and  C19_33 
REMARK    5  A    between atoms: C20_12  and  C16_31 
REMARK    6  A    between atoms: C2_23  and  C3_24 
REMARK    7  A    between atoms: C9_25  and  C12_27 
REMARK       I    between atoms: C12_27  and  N2_29 
ROOT
HETATM    1  C12   D T 801       8.431  -7.221   0.156  1.00 44.92     0.279 C 
HETATM    2  O1    D T 801       7.799  -7.713  -0.762  1.00 47.76    -0.265 OA
HETATM    3  N2    D T 801       8.804  -8.000   1.214  1.00 46.59    -0.208 NA
ENDROOT
BRANCH   1   4
HETATM    4  C9    D T 801       8.815  -5.775   0.081  1.00 40.68     0.059 A 
HETATM    5  C8    D T 801       9.468  -5.097   1.132  1.00 40.60     0.004 A 
HETATM    6  C7    D T 801       9.830  -3.763   1.014  1.00 42.33    -0.004 A 
HETATM    7  C6    D T 801       9.571  -3.047  -0.143  1.00 44.57    -0.014 A 
HETATM    8  C5    D T 801       8.926  -3.694  -1.213  1.00 44.90     0.038 A 
HETATM    9  C11   D T 801       9.982  -1.599  -0.226  1.00 40.34     0.032 C 
HETATM   10  C10   D T 801       8.558  -5.047  -1.091  1.00 44.55     0.013 A 
BRANCH   8  11
HETATM   11  C4    D T 801       8.604  -3.056  -2.456  1.00 43.57    -0.058 C 
HETATM   12  C3    D T 801       8.302  -2.553  -3.477  1.00 44.10    -0.039 C 
BRANCH  12  13
HETATM   13  C2    D T 801       7.979  -1.890  -4.706  1.00 46.85     0.145 A 
HETATM   14  N82   D T 801       8.259  -0.612  -5.124  1.00 45.71    -0.203 N 
HETATM   15  N81   D T 801       8.914   0.469  -4.513  1.00 48.41    -0.162 NA
HETATM   16  C84   D T 801       7.745  -0.498  -6.401  1.00 48.08     0.165 A 
HETATM   17  C83   D T 801       9.040   1.606  -5.154  1.00 54.40     0.121 A 
HETATM   18  C82   D T 801       8.527   1.757  -6.457  1.00 53.21     0.026 A 
HETATM   19  C81   D T 801       7.886   0.725  -7.086  1.00 48.83     0.041 A 
HETATM   20  N1    D T 801       7.183  -1.647  -6.744  1.00 46.84    -0.223 NA
HETATM   21  C1    D T 801       7.309  -2.504  -5.745  1.00 46.95     0.128 A 
ENDBRANCH  12  13
ENDBRANCH   8  11
ENDBRANCH   1   4
BRANCH   3  22
HETATM   22  C13   D T 801       8.542  -9.374   1.375  1.00 45.13     0.085 A 
HETATM   23  C14   D T 801       7.390  -9.803   2.032  1.00 45.97     0.019 A 
HETATM   24  C15   D T 801       7.148 -11.155   2.233  1.00 43.20    -0.001 A 
HETATM   25  C16   D T 801       8.052 -12.128   1.800  1.00 40.99     0.015 A 
HETATM   26  C17   D T 801       9.236 -11.698   1.160  1.00 44.10     0.071 A 
HETATM   27  C18   D T 801       9.468 -10.333   0.964  1.00 42.25     0.023 A 
BRANCH  25  28
HETATM   28  C20   D T 801       7.745 -13.604   2.050  1.00 39.15     0.277 C 
BRANCH  28  29
HETATM   29  N3    D T 801       6.849 -13.879   3.188  1.00 38.29     0.146 N 
HETATM   30  C21   D T 801       7.622 -14.063   4.436  1.00 41.73     0.286 C 
HETATM   31  C22   D T 801       6.697 -14.355   5.622  1.00 41.71     0.286 C 
HETATM   32  N4    D T 801       5.849 -15.514   5.313  1.00 48.22     0.143 N 
HETATM   33  C23   D T 801       5.036 -15.254   4.110  1.00 42.74     0.286 C 
HETATM   34  C25   D T 801       5.009 -15.883   6.461  1.00 47.13     0.285 C 
HETATM   35  C24   D T 801       5.980 -15.038   2.923  1.00 36.93     0.286 C 
ENDBRANCH  28  29
ENDBRANCH  25  28
BRANCH  26  36
HETATM   36  C19   D T 801      10.281 -12.674   0.655  1.00 42.98     0.419 C 
HETATM   37  F1    D T 801      11.452 -12.030   0.233  1.00 48.85    -0.166 F 
HETATM   38  F2    D T 801      10.609 -13.597   1.654  1.00 43.91    -0.166 F 
HETATM   39  F3    D T 801       9.743 -13.355  -0.432  1.00 45.50    -0.166 F 
ENDBRANCH  26  36
ENDBRANCH   3  22
TORSDOF 7
ENDMDL
MODEL 4
REMARK VINA RESULT:    -7.954      4.442     12.432
REMARK INTER + INTRA:         -12.290
REMARK INTER:                 -11.788
REMARK INTRA:                  -0.502
REMARK UNBOUND:                -1.080
REMARK  7 active torsions:
REMARK  status: ('A' for Active; 'I' for Inactive)
REMARK    1  A    between atoms: N3_2  and  C20_12 
REMARK    2  A    between atoms: C4_3  and  C5_4 
REMARK    3  A    between atoms: C13_9  and  N2_29 
REMARK    4  A    between atoms: C17_11  and  C19_33 
REMARK    5  A    between atoms: C20_12  and  C16_31 
REMARK    6  A    between atoms: C2_23  and  C3_24 
REMARK    7  A    between atoms: C9_25  and  C12_27 
REMARK       I    between atoms: C12_27  and  N2_29 
ROOT
HETATM    1  C12   D T 801      10.956  -2.169   0.238  1.00 44.92     0.279 C 
HETATM    2  O1    D T 801      11.877  -1.720  -0.418  1.00 47.76    -0.265 OA
HETATM    3  N2    D T 801       9.738  -2.360  -0.347  1.00 46.59    -0.208 NA
ENDROOT
BRANCH   1   4
HETATM    4  C9    D T 801      11.196  -2.536   1.671  1.00 40.68     0.059 A 
HETATM    5  C8    D T 801      11.895  -1.705   2.572  1.00 40.60     0.004 A 
HETATM    6  C7    D T 801      12.074  -2.070   3.898  1.00 42.33    -0.004 A 
HETATM    7  C6    D T 801      11.567  -3.261   4.392  1.00 44.57    -0.014 A 
HETATM    8  C5    D T 801      10.860  -4.111   3.521  1.00 44.90     0.038 A 
HETATM    9  C11   D T 801      11.787  -3.617   5.840  1.00 40.34     0.032 C 
HETATM   10  C10   D T 801      10.680  -3.740   2.176  1.00 44.55     0.013 A 
BRANCH   8  11
HETATM   11  C4    D T 801      10.293  -5.368   3.917  1.00 43.57    -0.058 C 
HETATM   12  C3    D T 801       9.789  -6.382   4.236  1.00 44.10    -0.039 C 
BRANCH  12  13
HETATM   13  C2    D T 801       9.234  -7.650   4.607  1.00 46.85     0.145 A 
HETATM   14  N82   D T 801       8.648  -8.623   3.833  1.00 45.71    -0.203 N 
HETATM   15  N81   D T 801       8.370  -8.709   2.460  1.00 48.41    -0.162 NA
HETATM   16  C84   D T 801       8.313  -9.654   4.689  1.00 48.08     0.165 A 
HETATM   17  C83   D T 801       7.783  -9.777   1.976  1.00 54.40     0.121 A 
HETATM   18  C82   D T 801       7.428 -10.846   2.820  1.00 53.21     0.026 A 
HETATM   19  C81   D T 801       7.685 -10.800   4.162  1.00 48.83     0.041 A 
HETATM   20  N1    D T 801       8.678  -9.329   5.920  1.00 46.84    -0.223 NA
HETATM   21  C1    D T 801       9.236  -8.129   5.902  1.00 46.95     0.128 A 
ENDBRANCH  12  13
ENDBRANCH   8  11
ENDBRANCH   1   4
BRANCH   3  22
HETATM   22  C13   D T 801       9.404  -2.098  -1.690  1.00 45.13     0.085 A 
HETATM   23  C14   D T 801       8.908  -0.850  -2.065  1.00 45.97     0.019 A 
HETATM   24  C15   D T 801       8.536  -0.598  -3.378  1.00 43.20    -0.001 A 
HETATM   25  C16   D T 801       8.630  -1.585  -4.363  1.00 40.99     0.015 A 
HETATM   26  C17   D T 801       9.103  -2.861  -3.982  1.00 44.10     0.071 A 
HETATM   27  C18   D T 801       9.474  -3.101  -2.656  1.00 42.25     0.023 A 
BRANCH  25  28
HETATM   28  C20   D T 801       8.202  -1.263  -5.793  1.00 39.15     0.277 C 
BRANCH  28  29
HETATM   29  N3    D T 801       8.074   0.173  -6.107  1.00 38.29     0.146 N 
HETATM   30  C21   D T 801       7.443   0.370  -7.430  1.00 41.73     0.286 C 
HETATM   31  C22   D T 801       7.312   1.859  -7.765  1.00 41.71     0.286 C 
HETATM   32  N4    D T 801       8.630   2.503  -7.672  1.00 48.22     0.143 N 
HETATM   33  C23   D T 801       9.183   2.353  -6.314  1.00 42.74     0.286 C 
HETATM   34  C25   D T 801       8.563   3.915  -8.074  1.00 47.13     0.285 C 
HETATM   35  C24   D T 801       9.374   0.860  -6.029  1.00 36.93     0.286 C 
ENDBRANCH  28  29
ENDBRANCH  25  28
BRANCH  26  36
HETATM   36  C19   D T 801       9.240  -4.000  -4.974  1.00 42.98     0.419 C 
HETATM   37  F1    D T 801      10.368  -3.861  -5.793  1.00 48.85    -0.166 F 
HETATM   38  F2    D T 801       9.318  -5.225  -4.303  1.00 43.91    -0.166 F 
HETATM   39  F3    D T 801       8.110  -3.999  -5.786  1.00 45.50    -0.166 F 
ENDBRANCH  26  36
ENDBRANCH   3  22
TORSDOF 7
ENDMDL
MODEL 5
REMARK VINA RESULT:    -7.910      1.492      2.287
REMARK INTER + INTRA:         -12.227
REMARK INTER:                 -11.334
REMARK INTRA:                  -0.893
REMARK UNBOUND:                -1.080
REMARK  7 active torsions:
REMARK  status: ('A' for Active; 'I' for Inactive)
REMARK    1  A    between atoms: N3_2  and  C20_12 
REMARK    2  A    between atoms: C4_3  and  C5_4 
REMARK    3  A    between atoms: C13_9  and  N2_29 
REMARK    4  A    between atoms: C17_11  and  C19_33 
REMARK    5  A    between atoms: C20_12  and  C16_31 
REMARK    6  A    between atoms: C2_23  and  C3_24 
REMARK    7  A    between atoms: C9_25  and  C12_27 
REMARK       I    between atoms: C12_27  and  N2_29 
ROOT
HETATM    1  C12   D T 801       8.642  -6.900   0.232  1.00 44.92     0.279 C 
HETATM    2  O1    D T 801       7.671  -7.124  -0.467  1.00 47.76    -0.265 OA
HETATM    3  N2    D T 801       9.269  -7.932   0.869  1.00 46.59    -0.208 NA
ENDROOT
BRANCH   1   4
HETATM    4  C9    D T 801       9.148  -5.495   0.344  1.00 40.68     0.059 A 
HETATM    5  C8    D T 801       9.886  -5.028   1.453  1.00 40.60     0.004 A 
HETATM    6  C7    D T 801      10.359  -3.725   1.507  1.00 42.33    -0.004 A 
HETATM    7  C6    D T 801      10.132  -2.833   0.473  1.00 44.57    -0.014 A 
HETATM    8  C5    D T 801       9.404  -3.267  -0.650  1.00 44.90     0.038 A 
HETATM    9  C11   D T 801      10.664  -1.427   0.576  1.00 40.34     0.032 C 
HETATM   10  C10   D T 801       8.923  -4.589  -0.705  1.00 44.55     0.013 A 
BRANCH   8  11
HETATM   11  C4    D T 801       9.104  -2.434  -1.779  1.00 43.57    -0.058 C 
HETATM   12  C3    D T 801       8.846  -1.720  -2.679  1.00 44.10    -0.039 C 
BRANCH  12  13
HETATM   13  C2    D T 801       8.575  -0.887  -3.813  1.00 46.85     0.145 A 
HETATM   14  N82   D T 801       8.067  -1.208  -5.048  1.00 45.71    -0.203 N 
HETATM   15  N81   D T 801       7.671  -2.423  -5.629  1.00 48.41    -0.162 NA
HETATM   16  C84   D T 801       7.981  -0.025  -5.755  1.00 48.08     0.165 A 
HETATM   17  C83   D T 801       7.216  -2.444  -6.859  1.00 54.40     0.121 A 
HETATM   18  C82   D T 801       7.116  -1.256  -7.608  1.00 53.21     0.026 A 
HETATM   19  C81   D T 801       7.489  -0.053  -7.075  1.00 48.83     0.041 A 
HETATM   20  N1    D T 801       8.412   0.967  -4.990  1.00 46.84    -0.223 NA
HETATM   21  C1    D T 801       8.775   0.479  -3.816  1.00 46.95     0.128 A 
ENDBRANCH  12  13
ENDBRANCH   8  11
ENDBRANCH   1   4
BRANCH   3  22
HETATM   22  C13   D T 801       8.916  -9.294   0.804  1.00 45.13     0.085 A 
HETATM   23  C14   D T 801       9.090 -10.015  -0.376  1.00 45.97     0.019 A 
HETATM   24  C15   D T 801       8.705 -11.345  -0.460  1.00 43.20    -0.001 A 
HETATM   25  C16   D T 801       8.117 -12.002   0.624  1.00 40.99     0.015 A 
HETATM   26  C17   D T 801       7.911 -11.268   1.813  1.00 44.10     0.071 A 
HETATM   27  C18   D T 801       8.304  -9.928   1.884  1.00 42.25     0.023 A 
BRANCH  25  28
HETATM   28  C20   D T 801       7.703 -13.465   0.482  1.00 39.15     0.277 C 
BRANCH  28  29
HETATM   29  N3    D T 801       8.725 -14.359  -0.094  1.00 38.29     0.146 N 
HETATM   30  C21   D T 801       8.192 -15.081  -1.270  1.00 41.73     0.286 C 
HETATM   31  C22   D T 801       9.247 -16.016  -1.871  1.00 41.71     0.286 C 
HETATM   32  N4    D T 801       9.747 -16.928  -0.832  1.00 48.22     0.143 N 
HETATM   33  C23   D T 801      10.344 -16.166   0.281  1.00 42.74     0.286 C 
HETATM   34  C25   D T 801      10.697 -17.901  -1.388  1.00 47.13     0.285 C 
HETATM   35  C24   D T 801       9.253 -15.294   0.913  1.00 36.93     0.286 C 
ENDBRANCH  28  29
ENDBRANCH  25  28
BRANCH  26  36
HETATM   36  C19   D T 801       7.279 -11.887   3.045  1.00 42.98     0.419 C 
HETATM   37  F1    D T 801       8.023 -12.967   3.539  1.00 48.85    -0.166 F 
HETATM   38  F2    D T 801       7.145 -10.932   4.058  1.00 43.91    -0.166 F 
HETATM   39  F3    D T 801       6.017 -12.354   2.692  1.00 45.50    -0.166 F 
ENDBRANCH  26  36
ENDBRANCH   3  22
TORSDOF 7
ENDMDL
MODEL 6
REMARK VINA RESULT:    -7.562      4.120     12.680
REMARK INTER + INTRA:         -11.737
REMARK INTER:                 -11.478
REMARK INTRA:                  -0.260
REMARK UNBOUND:                -1.080
REMARK  7 active torsions:
REMARK  status: ('A' for Active; 'I' for Inactive)
REMARK    1  A    between atoms: N3_2  and  C20_12 
REMARK    2  A    between atoms: C4_3  and  C5_4 
REMARK    3  A    between atoms: C13_9  and  N2_29 
REMARK    4  A    between atoms: C17_11  and  C19_33 
REMARK    5  A    between atoms: C20_12  and  C16_31 
REMARK    6  A    between atoms: C2_23  and  C3_24 
REMARK    7  A    between atoms: C9_25  and  C12_27 
REMARK       I    between atoms: C12_27  and  N2_29 
ROOT
HETATM    1  C12   D T 801       9.081  -4.777   0.386  1.00 44.92     0.279 C 
HETATM    2  O1    D T 801       8.380  -5.585  -0.195  1.00 47.76    -0.265 OA
HETATM    3  N2    D T 801       9.434  -3.615  -0.236  1.00 46.59    -0.208 NA
ENDROOT
BRANCH   1   4
HETATM    4  C9    D T 801       9.512  -5.068   1.791  1.00 40.68     0.059 A 
HETATM    5  C8    D T 801      10.093  -4.097   2.635  1.00 40.60     0.004 A 
HETATM    6  C7    D T 801      10.455  -4.400   3.940  1.00 42.33    -0.004 A 
HETATM    7  C6    D T 801      10.252  -5.664   4.468  1.00 44.57    -0.014 A 
HETATM    8  C5    D T 801       9.669  -6.654   3.656  1.00 44.90     0.038 A 
HETATM    9  C11   D T 801      10.662  -5.947   5.890  1.00 40.34     0.032 C 
HETATM   10  C10   D T 801       9.304  -6.347   2.332  1.00 44.55     0.013 A 
BRANCH   8  11
HETATM   11  C4    D T 801       9.414  -7.997   4.091  1.00 43.57    -0.058 C 
HETATM   12  C3    D T 801       9.175  -9.102   4.418  1.00 44.10    -0.039 C 
BRANCH  12  13
HETATM   13  C2    D T 801       8.946 -10.451   4.844  1.00 46.85     0.145 A 
HETATM   14  N82   D T 801       8.185 -11.444   4.276  1.00 45.71    -0.203 N 
HETATM   15  N81   D T 801       7.369 -11.484   3.135  1.00 48.41    -0.162 NA
HETATM   16  C84   D T 801       8.336 -12.558   5.077  1.00 48.08     0.165 A 
HETATM   17  C83   D T 801       6.736 -12.589   2.821  1.00 54.40     0.121 A 
HETATM   18  C82   D T 801       6.867 -13.743   3.615  1.00 53.21     0.026 A 
HETATM   19  C81   D T 801       7.657 -13.743   4.732  1.00 48.83     0.041 A 
HETATM   20  N1    D T 801       9.150 -12.262   6.079  1.00 46.84    -0.223 NA
HETATM   21  C1    D T 801       9.534 -11.002   5.965  1.00 46.95     0.128 A 
ENDBRANCH  12  13
ENDBRANCH   8  11
ENDBRANCH   1   4
BRANCH   3  22
HETATM   22  C13   D T 801       9.056  -3.211  -1.532  1.00 45.13     0.085 A 
HETATM   23  C14   D T 801       8.126  -2.188  -1.712  1.00 45.97     0.019 A 
HETATM   24  C15   D T 801       7.717  -1.815  -2.984  1.00 43.20    -0.001 A 
HETATM   25  C16   D T 801       8.206  -2.458  -4.124  1.00 40.99     0.015 A 
HETATM   26  C17   D T 801       9.126  -3.516  -3.946  1.00 44.10     0.071 A 
HETATM   27  C18   D T 801       9.530  -3.882  -2.658  1.00 42.25     0.023 A 
BRANCH  25  28
HETATM   28  C20   D T 801       7.721  -2.016  -5.503  1.00 39.15     0.277 C 
BRANCH  28  29
HETATM   29  N3    D T 801       7.788  -0.566  -5.763  1.00 38.29     0.146 N 
HETATM   30  C21   D T 801       7.427  -0.264  -7.165  1.00 41.73     0.286 C 
HETATM   31  C22   D T 801       7.500   1.241  -7.444  1.00 41.71     0.286 C 
HETATM   32  N4    D T 801       8.834   1.745  -7.087  1.00 48.22     0.143 N 
HETATM   33  C23   D T 801       9.115   1.496  -5.661  1.00 42.74     0.286 C 
HETATM   34  C25   D T 801       8.974   3.168  -7.424  1.00 47.13     0.285 C 
HETATM   35  C24   D T 801       9.111  -0.017  -5.422  1.00 36.93     0.286 C 
ENDBRANCH  28  29
ENDBRANCH  25  28
BRANCH  26  36
HETATM   36  C19   D T 801       9.715  -4.278  -5.118  1.00 42.98     0.419 C 
HETATM   37  F1    D T 801       9.759  -5.659  -4.886  1.00 48.85    -0.166 F 
HETATM   38  F2    D T 801       8.972  -4.039  -6.278  1.00 43.91    -0.166 F 
HETATM   39  F3    D T 801      11.017  -3.829  -5.312  1.00 45.50    -0.166 F 
ENDBRANCH  26  36
ENDBRANCH   3  22
TORSDOF 7
ENDMDL
MODEL 7
REMARK VINA RESULT:    -7.396      3.881     13.073
REMARK INTER + INTRA:         -11.503
REMARK INTER:                 -10.546
REMARK INTRA:                  -0.957
REMARK UNBOUND:                -1.080
REMARK  7 active torsions:
REMARK  status: ('A' for Active; 'I' for Inactive)
REMARK    1  A    between atoms: N3_2  and  C20_12 
REMARK    2  A    between atoms: C4_3  and  C5_4 
REMARK    3  A    between atoms: C13_9  and  N2_29 
REMARK    4  A    between atoms: C17_11  and  C19_33 
REMARK    5  A    between atoms: C20_12  and  C16_31 
REMARK    6  A    between atoms: C2_23  and  C3_24 
REMARK    7  A    between atoms: C9_25  and  C12_27 
REMARK       I    between atoms: C12_27  and  N2_29 
ROOT
HETATM    1  C12   D T 801       8.211  -6.943  -0.946  1.00 44.92     0.279 C 
HETATM    2  O1    D T 801       7.252  -6.291  -0.576  1.00 47.76    -0.265 OA
HETATM    3  N2    D T 801       9.285  -6.310  -1.503  1.00 46.59    -0.208 NA
ENDROOT
BRANCH   1   4
HETATM    4  C9    D T 801       8.203  -8.427  -0.744  1.00 40.68     0.059 A 
HETATM    5  C8    D T 801       7.922  -9.344  -1.780  1.00 40.60     0.004 A 
HETATM    6  C7    D T 801       7.950 -10.713  -1.558  1.00 42.33    -0.004 A 
HETATM    7  C6    D T 801       8.261 -11.234  -0.313  1.00 44.57    -0.014 A 
HETATM    8  C5    D T 801       8.551 -10.348   0.741  1.00 44.90     0.038 A 
HETATM    9  C11   D T 801       8.277 -12.728  -0.118  1.00 40.34     0.032 C 
HETATM   10  C10   D T 801       8.522  -8.960   0.515  1.00 44.55     0.013 A 
BRANCH   8  11
HETATM   11  C4    D T 801       8.883 -10.770   2.071  1.00 43.57    -0.058 C 
HETATM   12  C3    D T 801       9.131 -11.151   3.157  1.00 44.10    -0.039 C 
BRANCH  12  13
HETATM   13  C2    D T 801       9.490 -11.576   4.478  1.00 46.85     0.145 A 
HETATM   14  N82   D T 801       9.017 -12.622   5.232  1.00 45.71    -0.203 N 
HETATM   15  N81   D T 801       8.033 -13.595   5.001  1.00 48.41    -0.162 NA
HETATM   16  C84   D T 801       9.724 -12.599   6.418  1.00 48.08     0.165 A 
HETATM   17  C83   D T 801       7.773 -14.496   5.918  1.00 54.40     0.121 A 
HETATM   18  C82   D T 801       8.474 -14.501   7.139  1.00 53.21     0.026 A 
HETATM   19  C81   D T 801       9.443 -13.571   7.399  1.00 48.83     0.041 A 
HETATM   20  N1    D T 801      10.586 -11.593   6.388  1.00 46.84    -0.223 NA
HETATM   21  C1    D T 801      10.469 -10.960   5.232  1.00 46.95     0.128 A 
ENDBRANCH  12  13
ENDBRANCH   8  11
ENDBRANCH   1   4
BRANCH   3  22
HETATM   22  C13   D T 801       9.428  -4.923  -1.703  1.00 45.13     0.085 A 
HETATM   23  C14   D T 801       9.167  -4.357  -2.950  1.00 45.97     0.019 A 
HETATM   24  C15   D T 801       9.348  -2.998  -3.165  1.00 43.20    -0.001 A 
HETATM   25  C16   D T 801       9.811  -2.156  -2.151  1.00 40.99     0.015 A 
HETATM   26  C17   D T 801      10.106  -2.730  -0.894  1.00 44.10     0.071 A 
HETATM   27  C18   D T 801       9.919  -4.101  -0.690  1.00 42.25     0.023 A 
BRANCH  25  28
HETATM   28  C20   D T 801      10.001  -0.667  -2.437  1.00 39.15     0.277 C 
BRANCH  28  29
HETATM   29  N3    D T 801       9.663  -0.239  -3.808  1.00 38.29     0.146 N 
HETATM   30  C21   D T 801      10.733   0.610  -4.374  1.00 41.73     0.286 C 
HETATM   31  C22   D T 801      10.387   1.063  -5.796  1.00 41.71     0.286 C 
HETATM   32  N4    D T 801       9.080   1.736  -5.795  1.00 48.22     0.143 N 
HETATM   33  C23   D T 801       8.031   0.824  -5.301  1.00 42.74     0.286 C 
HETATM   34  C25   D T 801       8.750   2.266  -7.125  1.00 47.13     0.285 C 
HETATM   35  C24   D T 801       8.360   0.443  -3.854  1.00 36.93     0.286 C 
ENDBRANCH  28  29
ENDBRANCH  25  28
BRANCH  26  36
HETATM   36  C19   D T 801      10.616  -1.903   0.271  1.00 42.98     0.419 C 
HETATM   37  F1    D T 801      11.917  -1.428   0.059  1.00 48.85    -0.166 F 
HETATM   38  F2    D T 801       9.771  -0.813   0.502  1.00 43.91    -0.166 F 
HETATM   39  F3    D T 801      10.628  -2.715   1.401  1.00 45.50    -0.166 F 
ENDBRANCH  26  36
ENDBRANCH   3  22
TORSDOF 7
ENDMDL
MODEL 8
REMARK VINA RESULT:    -7.261      4.119     12.575
REMARK INTER + INTRA:         -11.312
REMARK INTER:                 -10.694
REMARK INTRA:                  -0.618
REMARK UNBOUND:                -1.080
REMARK  7 active torsions:
REMARK  status: ('A' for Active; 'I' for Inactive)
REMARK    1  A    between atoms: N3_2  and  C20_12 
REMARK    2  A    between atoms: C4_3  and  C5_4 
REMARK    3  A    between atoms: C13_9  and  N2_29 
REMARK    4  A    between atoms: C17_11  and  C19_33 
REMARK    5  A    between atoms: C20_12  and  C16_31 
REMARK    6  A    between atoms: C2_23  and  C3_24 
REMARK    7  A    between atoms: C9_25  and  C12_27 
REMARK       I    between atoms: C12_27  and  N2_29 
ROOT
HETATM    1  C12   D T 801       8.430  -7.126  -0.890  1.00 44.92     0.279 C 
HETATM    2  O1    D T 801       7.456  -6.435  -0.652  1.00 47.76    -0.265 OA
HETATM    3  N2    D T 801       9.537  -6.563  -1.455  1.00 46.59    -0.208 NA
ENDROOT
BRANCH   1   4
HETATM    4  C9    D T 801       8.398  -8.577  -0.521  1.00 40.68     0.059 A 
HETATM    5  C8    D T 801       8.093  -9.601  -1.443  1.00 40.60     0.004 A 
HETATM    6  C7    D T 801       8.100 -10.936  -1.066  1.00 42.33    -0.004 A 
HETATM    7  C6    D T 801       8.413 -11.317   0.228  1.00 44.57    -0.014 A 
HETATM    8  C5    D T 801       8.727 -10.322   1.172  1.00 44.90     0.038 A 
HETATM    9  C11   D T 801       8.406 -12.780   0.592  1.00 40.34     0.032 C 
HETATM   10  C10   D T 801       8.719  -8.968   0.789  1.00 44.55     0.013 A 
BRANCH   8  11
HETATM   11  C4    D T 801       9.063 -10.595   2.539  1.00 43.57    -0.058 C 
HETATM   12  C3    D T 801       9.374 -10.796   3.657  1.00 44.10    -0.039 C 
BRANCH  12  13
HETATM   13  C2    D T 801       9.686 -11.053   5.031  1.00 46.85     0.145 A 
HETATM   14  N82   D T 801       9.964 -10.182   6.056  1.00 45.71    -0.203 N 
HETATM   15  N81   D T 801      10.064  -8.783   6.118  1.00 48.41    -0.162 NA
HETATM   16  C84   D T 801      10.166 -10.955   7.183  1.00 48.08     0.165 A 
HETATM   17  C83   D T 801      10.354  -8.196   7.253  1.00 54.40     0.121 A 
HETATM   18  C82   D T 801      10.567  -8.954   8.420  1.00 53.21     0.026 A 
HETATM   19  C81   D T 801      10.475 -10.318   8.401  1.00 48.83     0.041 A 
HETATM   20  N1    D T 801      10.016 -12.232   6.862  1.00 46.84    -0.223 NA
HETATM   21  C1    D T 801       9.726 -12.322   5.575  1.00 46.95     0.128 A 
ENDBRANCH  12  13
ENDBRANCH   8  11
ENDBRANCH   1   4
BRANCH   3  22
HETATM   22  C13   D T 801       9.703  -5.208  -1.804  1.00 45.13     0.085 A 
HETATM   23  C14   D T 801       9.647  -4.809  -3.139  1.00 45.97     0.019 A 
HETATM   24  C15   D T 801       9.853  -3.484  -3.494  1.00 43.20    -0.001 A 
HETATM   25  C16   D T 801      10.136  -2.509  -2.533  1.00 40.99     0.015 A 
HETATM   26  C17   D T 801      10.223  -2.913  -1.182  1.00 44.10     0.071 A 
HETATM   27  C18   D T 801      10.014  -4.252  -0.839  1.00 42.25     0.023 A 
BRANCH  25  28
HETATM   28  C20   D T 801      10.361  -1.063  -2.973  1.00 39.15     0.277 C 
BRANCH  28  29
HETATM   29  N3    D T 801       9.799  -0.708  -4.289  1.00 38.29     0.146 N 
HETATM   30  C21   D T 801      10.215   0.654  -4.690  1.00 41.73     0.286 C 
HETATM   31  C22   D T 801       9.630   1.032  -6.055  1.00 41.71     0.286 C 
HETATM   32  N4    D T 801       8.169   0.880  -6.025  1.00 48.22     0.143 N 
HETATM   33  C23   D T 801       7.802  -0.512  -5.703  1.00 42.74     0.286 C 
HETATM   34  C25   D T 801       7.560   1.319  -7.287  1.00 47.13     0.285 C 
HETATM   35  C24   D T 801       8.333  -0.844  -4.304  1.00 36.93     0.286 C 
ENDBRANCH  28  29
ENDBRANCH  25  28
BRANCH  26  36
HETATM   36  C19   D T 801      10.528  -1.934  -0.065  1.00 42.98     0.419 C 
HETATM   37  F1    D T 801       9.645  -0.846  -0.054  1.00 48.85    -0.166 F 
HETATM   38  F2    D T 801      10.468  -2.575   1.176  1.00 43.91    -0.166 F 
HETATM   39  F3    D T 801      11.816  -1.446  -0.261  1.00 45.50    -0.166 F 
ENDBRANCH  26  36
ENDBRANCH   3  22
TORSDOF 7
ENDMDL
MODEL 9
REMARK VINA RESULT:    -7.154      3.373     12.337
REMARK INTER + INTRA:         -11.162
REMARK INTER:                 -10.214
REMARK INTRA:                  -0.949
REMARK UNBOUND:                -1.080
REMARK  7 active torsions:
REMARK  status: ('A' for Active; 'I' for Inactive)
REMARK    1  A    between atoms: N3_2  and  C20_12 
REMARK    2  A    between atoms: C4_3  and  C5_4 
REMARK    3  A    between atoms: C13_9  and  N2_29 
REMARK    4  A    between atoms: C17_11  and  C19_33 
REMARK    5  A    between atoms: C20_12  and  C16_31 
REMARK    6  A    between atoms: C2_23  and  C3_24 
REMARK    7  A    between atoms: C9_25  and  C12_27 
REMARK       I    between atoms: C12_27  and  N2_29 
ROOT
HETATM    1  C12   D T 801       9.879  -7.233   1.041  1.00 44.92     0.279 C 
HETATM    2  O1    D T 801      11.086  -7.108   0.946  1.00 47.76    -0.265 OA
HETATM    3  N2    D T 801       9.055  -6.407   0.333  1.00 46.59    -0.208 NA
ENDROOT
BRANCH   1   4
HETATM    4  C9    D T 801       9.327  -8.322   1.910  1.00 40.68     0.059 A 
HETATM    5  C8    D T 801       9.054  -8.148   3.283  1.00 40.60     0.004 A 
HETATM    6  C7    D T 801       8.519  -9.175   4.047  1.00 42.33    -0.004 A 
HETATM    7  C6    D T 801       8.227 -10.409   3.491  1.00 44.57    -0.014 A 
HETATM    8  C5    D T 801       8.482 -10.615   2.123  1.00 44.90     0.038 A 
HETATM    9  C11   D T 801       7.648 -11.495   4.360  1.00 40.34     0.032 C 
HETATM   10  C10   D T 801       9.025  -9.573   1.348  1.00 44.55     0.013 A 
BRANCH   8  11
HETATM   11  C4    D T 801       8.223 -11.849   1.438  1.00 43.57    -0.058 C 
HETATM   12  C3    D T 801       7.997 -12.839   0.843  1.00 44.10    -0.039 C 
BRANCH  12  13
HETATM   13  C2    D T 801       7.767 -14.076   0.158  1.00 46.85     0.145 A 
HETATM   14  N82   D T 801       6.781 -15.017   0.333  1.00 45.71    -0.203 N 
HETATM   15  N81   D T 801       5.702 -15.112   1.225  1.00 48.41    -0.162 NA
HETATM   16  C84   D T 801       7.010 -16.001  -0.608  1.00 48.08     0.165 A 
HETATM   17  C83   D T 801       4.899 -16.147   1.174  1.00 54.40     0.121 A 
HETATM   18  C82   D T 801       5.103 -17.169   0.228  1.00 53.21     0.026 A 
HETATM   19  C81   D T 801       6.141 -17.110  -0.660  1.00 48.83     0.041 A 
HETATM   20  N1    D T 801       8.077 -15.677  -1.321  1.00 46.84    -0.223 NA
HETATM   21  C1    D T 801       8.555 -14.524  -0.884  1.00 46.95     0.128 A 
ENDBRANCH  12  13
ENDBRANCH   8  11
ENDBRANCH   1   4
BRANCH   3  22
HETATM   22  C13   D T 801       9.453  -5.381  -0.547  1.00 45.13     0.085 A 
HETATM   23  C14   D T 801       9.571  -5.627  -1.914  1.00 45.97     0.019 A 
HETATM   24  C15   D T 801      10.004  -4.634  -2.780  1.00 43.20    -0.001 A 
HETATM   25  C16   D T 801      10.351  -3.363  -2.315  1.00 40.99     0.015 A 
HETATM   26  C17   D T 801      10.261  -3.117  -0.926  1.00 44.10     0.071 A 
HETATM   27  C18   D T 801       9.823  -4.127  -0.064  1.00 42.25     0.023 A 
BRANCH  25  28
HETATM   28  C20   D T 801      10.829  -2.303  -3.306  1.00 39.15     0.277 C 
BRANCH  28  29
HETATM   29  N3    D T 801       9.780  -1.408  -3.829  1.00 38.29     0.146 N 
HETATM   30  C21   D T 801       8.966  -2.094  -4.856  1.00 41.73     0.286 C 
HETATM   31  C22   D T 801       7.877  -1.168  -5.409  1.00 41.71     0.286 C 
HETATM   32  N4    D T 801       8.490   0.068  -5.914  1.00 48.22     0.143 N 
HETATM   33  C23   D T 801       9.222   0.760  -4.836  1.00 42.74     0.286 C 
HETATM   34  C25   D T 801       7.489   0.946  -6.535  1.00 47.13     0.285 C 
HETATM   35  C24   D T 801      10.351  -0.155  -4.350  1.00 36.93     0.286 C 
ENDBRANCH  28  29
ENDBRANCH  25  28
BRANCH  26  36
HETATM   36  C19   D T 801      10.616  -1.772  -0.320  1.00 42.98     0.419 C 
HETATM   37  F1    D T 801      11.888  -1.332  -0.709  1.00 48.85    -0.166 F 
HETATM   38  F2    D T 801       9.673  -0.807  -0.689  1.00 43.91    -0.166 F 
HETATM   39  F3    D T 801      10.607  -1.910   1.064  1.00 45.50    -0.166 F 
ENDBRANCH  26  36
ENDBRANCH   3  22
TORSDOF 7
ENDMDL
