MODEL 1
REMARK VINA RESULT:    -9.102      0.000      0.000
REMARK INTER + INTRA:         -13.720
REMARK INTER:                 -12.826
REMARK INTRA:                  -0.893
REMARK UNBOUND:                -0.893
REMARK  7 active torsions:
REMARK  status: ('A' for Active; 'I' for Inactive)
REMARK    1  A    between atoms: N3_2  and  C20_12 
REMARK    2  A    between atoms: C4_3  and  C5_4 
REMARK    3  A    between atoms: C13_9  and  N2_29 
REMARK    4  A    between atoms: C17_11  and  C19_33 
REMARK    5  A    between atoms: C20_12  and  C16_31 
REMARK    6  A    between atoms: C2_23  and  C3_24 
REMARK    7  A    between atoms: C9_25  and  C12_27 
REMARK       I    between atoms: C12_27  and  N2_29 
ROOT
HETATM    1  C12   D T 801       1.483   9.064   5.109  1.00 44.92     0.279 C 
HETATM    2  O1    D T 801       1.065  10.195   5.272  1.00 47.76    -0.265 OA
HETATM    3  N2    D T 801       2.479   8.833   4.205  1.00 46.59    -0.208 NA
ENDROOT
BRANCH   1   4
HETATM    4  C9    D T 801       0.914   7.952   5.939  1.00 40.68     0.059 A 
HETATM    5  C8    D T 801      -0.421   7.510   5.823  1.00 40.60     0.004 A 
HETATM    6  C7    D T 801      -0.901   6.461   6.593  1.00 42.33    -0.004 A 
HETATM    7  C6    D T 801      -0.089   5.802   7.500  1.00 44.57    -0.014 A 
HETATM    8  C5    D T 801       1.248   6.216   7.638  1.00 44.90     0.038 A 
HETATM    9  C11   D T 801      -0.655   4.669   8.316  1.00 40.34     0.032 C 
HETATM   10  C10   D T 801       1.736   7.281   6.858  1.00 44.55     0.013 A 
BRANCH   8  11
HETATM   11  C4    D T 801       2.183   5.613   8.546  1.00 43.57    -0.058 C 
HETATM   12  C3    D T 801       2.955   5.088   9.262  1.00 44.10    -0.039 C 
BRANCH  12  13
HETATM   13  C2    D T 801       3.905   4.509  10.164  1.00 46.85     0.145 A 
HETATM   14  N82   D T 801       5.279   4.505  10.124  1.00 45.71    -0.203 N 
HETATM   15  N81   D T 801       6.207   5.022   9.207  1.00 48.41    -0.162 NA
HETATM   16  C84   D T 801       5.701   3.831  11.252  1.00 48.08     0.165 A 
HETATM   17  C83   D T 801       7.492   4.866   9.417  1.00 54.40     0.121 A 
HETATM   18  C82   D T 801       7.956   4.184  10.557  1.00 53.21     0.026 A 
HETATM   19  C81   D T 801       7.083   3.669  11.474  1.00 48.83     0.041 A 
HETATM   20  N1    D T 801       4.641   3.447  11.947  1.00 46.84    -0.223 NA
HETATM   21  C1    D T 801       3.546   3.841  11.318  1.00 46.95     0.128 A 
ENDBRANCH  12  13
ENDBRANCH   8  11
ENDBRANCH   1   4
BRANCH   3  22
HETATM   22  C13   D T 801       3.122   9.798   3.404  1.00 45.13     0.085 A 
HETATM   23  C14   D T 801       4.202  10.524   3.901  1.00 45.97     0.019 A 
HETATM   24  C15   D T 801       4.813  11.507   3.134  1.00 43.20    -0.001 A 
HETATM   25  C16   D T 801       4.359  11.813   1.850  1.00 40.99     0.015 A 
HETATM   26  C17   D T 801       3.244  11.101   1.351  1.00 44.10     0.071 A 
HETATM   27  C18   D T 801       2.638  10.114   2.135  1.00 42.25     0.023 A 
BRANCH  25  28
HETATM   28  C20   D T 801       5.058  12.907   1.046  1.00 39.15     0.277 C 
BRANCH  28  29
HETATM   29  N3    D T 801       6.488  12.672   0.767  1.00 38.29     0.146 N 
HETATM   30  C21   D T 801       7.045  13.751  -0.076  1.00 41.73     0.286 C 
HETATM   31  C22   D T 801       8.529  13.510  -0.373  1.00 41.71     0.286 C 
HETATM   32  N4    D T 801       8.701  12.181  -0.978  1.00 48.22     0.143 N 
HETATM   33  C23   D T 801       8.208  11.132  -0.068  1.00 42.74     0.286 C 
HETATM   34  C25   D T 801      10.100  11.947  -1.362  1.00 47.13     0.285 C 
HETATM   35  C24   D T 801       6.707  11.350   0.156  1.00 36.93     0.286 C 
ENDBRANCH  28  29
ENDBRANCH  25  28
BRANCH  26  36
HETATM   36  C19   D T 801       2.672  11.360  -0.029  1.00 42.98     0.419 C 
HETATM   37  F1    D T 801       3.670  11.600  -0.983  1.00 48.85    -0.166 F 
HETATM   38  F2    D T 801       1.898  10.275  -0.449  1.00 43.91    -0.166 F 
HETATM   39  F3    D T 801       1.864  12.490   0.048  1.00 45.50    -0.166 F 
ENDBRANCH  26  36
ENDBRANCH   3  22
TORSDOF 7
ENDMDL
MODEL 2
REMARK VINA RESULT:    -9.095      3.701      5.325
REMARK INTER + INTRA:         -13.710
REMARK INTER:                 -12.785
REMARK INTRA:                  -0.926
REMARK UNBOUND:                -0.893
REMARK  7 active torsions:
REMARK  status: ('A' for Active; 'I' for Inactive)
REMARK    1  A    between atoms: N3_2  and  C20_12 
REMARK    2  A    between atoms: C4_3  and  C5_4 
REMARK    3  A    between atoms: C13_9  and  N2_29 
REMARK    4  A    between atoms: C17_11  and  C19_33 
REMARK    5  A    between atoms: C20_12  and  C16_31 
REMARK    6  A    between atoms: C2_23  and  C3_24 
REMARK    7  A    between atoms: C9_25  and  C12_27 
REMARK       I    between atoms: C12_27  and  N2_29 
ROOT
HETATM    1  C12   D T 801       3.947  10.343   2.328  1.00 44.92     0.279 C 
HETATM    2  O1    D T 801       3.076  11.072   2.766  1.00 47.76    -0.265 OA
HETATM    3  N2    D T 801       4.255  10.378   0.999  1.00 46.59    -0.208 NA
ENDROOT
BRANCH   1   4
HETATM    4  C9    D T 801       4.690   9.449   3.274  1.00 40.68     0.059 A 
HETATM    5  C8    D T 801       6.093   9.300   3.251  1.00 40.60     0.004 A 
HETATM    6  C7    D T 801       6.746   8.481   4.161  1.00 42.33    -0.004 A 
HETATM    7  C6    D T 801       6.048   7.782   5.130  1.00 44.57    -0.014 A 
HETATM    8  C5    D T 801       4.648   7.910   5.183  1.00 44.90     0.038 A 
HETATM    9  C11   D T 801       6.799   6.903   6.097  1.00 40.34     0.032 C 
HETATM   10  C10   D T 801       3.985   8.741   4.260  1.00 44.55     0.013 A 
BRANCH   8  11
HETATM   11  C4    D T 801       3.818   7.234   6.139  1.00 43.57    -0.058 C 
HETATM   12  C3    D T 801       3.111   6.714   6.923  1.00 44.10    -0.039 C 
BRANCH  12  13
HETATM   13  C2    D T 801       2.275   6.020   7.858  1.00 46.85     0.145 A 
HETATM   14  N82   D T 801       2.605   5.135   8.856  1.00 45.71    -0.203 N 
HETATM   15  N81   D T 801       3.827   4.595   9.286  1.00 48.41    -0.162 NA
HETATM   16  C84   D T 801       1.422   4.787   9.475  1.00 48.08     0.165 A 
HETATM   17  C83   D T 801       3.853   3.746  10.285  1.00 54.40     0.121 A 
HETATM   18  C82   D T 801       2.665   3.369  10.938  1.00 53.21     0.026 A 
HETATM   19  C81   D T 801       1.456   3.877  10.551  1.00 48.83     0.041 A 
HETATM   20  N1    D T 801       0.422   5.427   8.889  1.00 46.84    -0.223 NA
HETATM   21  C1    D T 801       0.905   6.178   7.911  1.00 46.95     0.128 A 
ENDBRANCH  12  13
ENDBRANCH   8  11
ENDBRANCH   1   4
BRANCH   3  22
HETATM   22  C13   D T 801       3.662  11.205   0.024  1.00 45.13     0.085 A 
HETATM   23  C14   D T 801       4.237  12.429  -0.310  1.00 45.97     0.019 A 
HETATM   24  C15   D T 801       3.636  13.269  -1.237  1.00 43.20    -0.001 A 
HETATM   25  C16   D T 801       2.430  12.927  -1.854  1.00 40.99     0.015 A 
HETATM   26  C17   D T 801       1.825  11.700  -1.495  1.00 44.10     0.071 A 
HETATM   27  C18   D T 801       2.442  10.864  -0.560  1.00 42.25     0.023 A 
BRANCH  25  28
HETATM   28  C20   D T 801       1.802  13.886  -2.862  1.00 39.15     0.277 C 
BRANCH  28  29
HETATM   29  N3    D T 801       2.730  14.451  -3.860  1.00 38.29     0.146 N 
HETATM   30  C21   D T 801       2.076  15.524  -4.639  1.00 41.73     0.286 C 
HETATM   31  C22   D T 801       3.034  16.112  -5.682  1.00 41.71     0.286 C 
HETATM   32  N4    D T 801       3.553  15.035  -6.538  1.00 48.22     0.143 N 
HETATM   33  C23   D T 801       4.266  14.032  -5.728  1.00 42.74     0.286 C 
HETATM   34  C25   D T 801       4.404  15.568  -7.609  1.00 47.13     0.285 C 
HETATM   35  C24   D T 801       3.272  13.405  -4.743  1.00 36.93     0.286 C 
ENDBRANCH  28  29
ENDBRANCH  25  28
BRANCH  26  36
HETATM   36  C19   D T 801       0.515  11.239  -2.104  1.00 42.98     0.419 C 
HETATM   37  F1    D T 801      -0.588  11.927  -1.581  1.00 48.85    -0.166 F 
HETATM   38  F2    D T 801       0.535  11.406  -3.492  1.00 43.91    -0.166 F 
HETATM   39  F3    D T 801       0.361   9.887  -1.813  1.00 45.50    -0.166 F 
ENDBRANCH  26  36
ENDBRANCH   3  22
TORSDOF 7
ENDMDL
MODEL 3
REMARK VINA RESULT:    -9.065      2.647      3.765
REMARK INTER + INTRA:         -13.668
REMARK INTER:                 -13.021
REMARK INTRA:                  -0.647
REMARK UNBOUND:                -0.893
REMARK  7 active torsions:
REMARK  status: ('A' for Active; 'I' for Inactive)
REMARK    1  A    between atoms: N3_2  and  C20_12 
REMARK    2  A    between atoms: C4_3  and  C5_4 
REMARK    3  A    between atoms: C13_9  and  N2_29 
REMARK    4  A    between atoms: C17_11  and  C19_33 
REMARK    5  A    between atoms: C20_12  and  C16_31 
REMARK    6  A    between atoms: C2_23  and  C3_24 
REMARK    7  A    between atoms: C9_25  and  C12_27 
REMARK       I    between atoms: C12_27  and  N2_29 
ROOT
HETATM    1  C12   D T 801       2.838   8.009   6.984  1.00 44.92     0.279 C 
HETATM    2  O1    D T 801       3.412   8.960   7.482  1.00 47.76    -0.265 OA
HETATM    3  N2    D T 801       2.643   7.965   5.634  1.00 46.59    -0.208 NA
ENDROOT
BRANCH   1   4
HETATM    4  C9    D T 801       2.393   6.884   7.870  1.00 40.68     0.059 A 
HETATM    5  C8    D T 801       1.061   6.422   7.917  1.00 40.60     0.004 A 
HETATM    6  C7    D T 801       0.694   5.361   8.732  1.00 42.33    -0.004 A 
HETATM    7  C6    D T 801       1.621   4.711   9.528  1.00 44.57    -0.014 A 
HETATM    8  C5    D T 801       2.959   5.144   9.503  1.00 44.90     0.038 A 
HETATM    9  C11   D T 801       1.177   3.564  10.399  1.00 40.34     0.032 C 
HETATM   10  C10   D T 801       3.332   6.221   8.676  1.00 44.55     0.013 A 
BRANCH   8  11
HETATM   11  C4    D T 801       4.007   4.552  10.284  1.00 43.57    -0.058 C 
HETATM   12  C3    D T 801       4.847   4.027  10.921  1.00 44.10    -0.039 C 
BRANCH  12  13
HETATM   13  C2    D T 801       5.912   3.442  11.680  1.00 46.85     0.145 A 
HETATM   14  N82   D T 801       7.272   3.511  11.500  1.00 45.71    -0.203 N 
HETATM   15  N81   D T 801       8.075   4.133  10.532  1.00 48.41    -0.162 NA
HETATM   16  C84   D T 801       7.840   2.789  12.531  1.00 48.08     0.165 A 
HETATM   17  C83   D T 801       9.381   4.030  10.598  1.00 54.40     0.121 A 
HETATM   18  C82   D T 801       9.992   3.301  11.636  1.00 53.21     0.026 A 
HETATM   19  C81   D T 801       9.243   2.684  12.599  1.00 48.83     0.041 A 
HETATM   20  N1    D T 801       6.877   2.307  13.302  1.00 46.84    -0.223 NA
HETATM   21  C1    D T 801       5.705   2.684  12.815  1.00 46.95     0.128 A 
ENDBRANCH  12  13
ENDBRANCH   8  11
ENDBRANCH   1   4
BRANCH   3  22
HETATM   22  C13   D T 801       3.055   8.934   4.698  1.00 45.13     0.085 A 
HETATM   23  C14   D T 801       2.235  10.018   4.393  1.00 45.97     0.019 A 
HETATM   24  C15   D T 801       2.615  10.953   3.440  1.00 43.20    -0.001 A 
HETATM   25  C16   D T 801       3.820  10.834   2.745  1.00 40.99     0.015 A 
HETATM   26  C17   D T 801       4.643   9.719   3.028  1.00 44.10     0.071 A 
HETATM   27  C18   D T 801       4.247   8.785   3.990  1.00 42.25     0.023 A 
BRANCH  25  28
HETATM   28  C20   D T 801       4.192  11.882   1.700  1.00 39.15     0.277 C 
BRANCH  28  29
HETATM   29  N3    D T 801       3.474  11.778   0.415  1.00 38.29     0.146 N 
HETATM   30  C21   D T 801       4.018  12.735  -0.573  1.00 41.73     0.286 C 
HETATM   31  C22   D T 801       3.272  12.635  -1.908  1.00 41.71     0.286 C 
HETATM   32  N4    D T 801       1.831  12.822  -1.683  1.00 48.22     0.143 N 
HETATM   33  C23   D T 801       1.317  11.797  -0.757  1.00 42.74     0.286 C 
HETATM   34  C25   D T 801       1.090  12.824  -2.951  1.00 47.13     0.285 C 
HETATM   35  C24   D T 801       2.024  11.963   0.593  1.00 36.93     0.286 C 
ENDBRANCH  28  29
ENDBRANCH  25  28
BRANCH  26  36
HETATM   36  C19   D T 801       5.969   9.497   2.326  1.00 42.98     0.419 C 
HETATM   37  F1    D T 801       5.826   9.396   0.935  1.00 48.85    -0.166 F 
HETATM   38  F2    D T 801       6.855  10.538   2.614  1.00 43.91    -0.166 F 
HETATM   39  F3    D T 801       6.506   8.302   2.794  1.00 45.50    -0.166 F 
ENDBRANCH  26  36
ENDBRANCH   3  22
TORSDOF 7
ENDMDL
MODEL 4
REMARK VINA RESULT:    -8.939      4.046     12.400
REMARK INTER + INTRA:         -13.490
REMARK INTER:                 -13.412
REMARK INTRA:                  -0.077
REMARK UNBOUND:                -0.893
REMARK  7 active torsions:
REMARK  status: ('A' for Active; 'I' for Inactive)
REMARK    1  A    between atoms: N3_2  and  C20_12 
REMARK    2  A    between atoms: C4_3  and  C5_4 
REMARK    3  A    between atoms: C13_9  and  N2_29 
REMARK    4  A    between atoms: C17_11  and  C19_33 
REMARK    5  A    between atoms: C20_12  and  C16_31 
REMARK    6  A    between atoms: C2_23  and  C3_24 
REMARK    7  A    between atoms: C9_25  and  C12_27 
REMARK       I    between atoms: C12_27  and  N2_29 
ROOT
HETATM    1  C12   D T 801       3.683   9.166   3.132  1.00 44.92     0.279 C 
HETATM    2  O1    D T 801       4.059   8.009   3.089  1.00 47.76    -0.265 OA
HETATM    3  N2    D T 801       2.841   9.568   4.129  1.00 46.59    -0.208 NA
ENDROOT
BRANCH   1   4
HETATM    4  C9    D T 801       4.188  10.133   2.105  1.00 40.68     0.059 A 
HETATM    5  C8    D T 801       5.560  10.350   1.861  1.00 40.60     0.004 A 
HETATM    6  C7    D T 801       5.986  11.236   0.882  1.00 42.33    -0.004 A 
HETATM    7  C6    D T 801       5.083  11.939   0.104  1.00 44.57    -0.014 A 
HETATM    8  C5    D T 801       3.707  11.744   0.319  1.00 44.90     0.038 A 
HETATM    9  C11   D T 801       5.592  12.893  -0.946  1.00 40.34     0.032 C 
HETATM   10  C10   D T 801       3.274  10.845   1.312  1.00 44.55     0.013 A 
BRANCH   8  11
HETATM   11  C4    D T 801       2.677  12.416  -0.422  1.00 43.57    -0.058 C 
HETATM   12  C3    D T 801       1.804  12.946  -1.006  1.00 44.10    -0.039 C 
BRANCH  12  13
HETATM   13  C2    D T 801       0.785  13.642  -1.733  1.00 46.85     0.145 A 
HETATM   14  N82   D T 801       0.784  14.906  -2.272  1.00 45.71    -0.203 N 
HETATM   15  N81   D T 801       1.735  15.938  -2.280  1.00 48.41    -0.162 NA
HETATM   16  C84   D T 801      -0.439  15.067  -2.891  1.00 48.08     0.165 A 
HETATM   17  C83   D T 801       1.465  17.073  -2.878  1.00 54.40     0.121 A 
HETATM   18  C82   D T 801       0.227  17.271  -3.519  1.00 53.21     0.026 A 
HETATM   19  C81   D T 801      -0.723  16.287  -3.535  1.00 48.83     0.041 A 
HETATM   20  N1    D T 801      -1.147  13.959  -2.742  1.00 46.84    -0.223 NA
HETATM   21  C1    D T 801      -0.437  13.082  -2.049  1.00 46.95     0.128 A 
ENDBRANCH  12  13
ENDBRANCH   8  11
ENDBRANCH   1   4
BRANCH   3  22
HETATM   22  C13   D T 801       2.338   8.766   5.173  1.00 45.13     0.085 A 
HETATM   23  C14   D T 801       3.193   8.253   6.146  1.00 45.97     0.019 A 
HETATM   24  C15   D T 801       2.712   7.427   7.153  1.00 43.20    -0.001 A 
HETATM   25  C16   D T 801       1.364   7.070   7.218  1.00 40.99     0.015 A 
HETATM   26  C17   D T 801       0.497   7.562   6.215  1.00 44.10     0.071 A 
HETATM   27  C18   D T 801       0.995   8.393   5.207  1.00 42.25     0.023 A 
BRANCH  25  28
HETATM   28  C20   D T 801       0.882   6.153   8.339  1.00 39.15     0.277 C 
BRANCH  28  29
HETATM   29  N3    D T 801       1.921   5.304   8.953  1.00 38.29     0.146 N 
HETATM   30  C21   D T 801       1.316   4.288   9.840  1.00 41.73     0.286 C 
HETATM   31  C22   D T 801       2.391   3.406  10.485  1.00 41.71     0.286 C 
HETATM   32  N4    D T 801       3.367   4.253  11.187  1.00 48.22     0.143 N 
HETATM   33  C23   D T 801       4.004   5.193  10.248  1.00 42.74     0.286 C 
HETATM   34  C25   D T 801       4.365   3.440  11.896  1.00 47.13     0.285 C 
HETATM   35  C24   D T 801       2.921   6.112   9.671  1.00 36.93     0.286 C 
ENDBRANCH  28  29
ENDBRANCH  25  28
BRANCH  26  36
HETATM   36  C19   D T 801      -0.983   7.230   6.194  1.00 42.98     0.419 C 
HETATM   37  F1    D T 801      -1.644   7.812   5.104  1.00 48.85    -0.166 F 
HETATM   38  F2    D T 801      -1.172   5.846   6.150  1.00 43.91    -0.166 F 
HETATM   39  F3    D T 801      -1.550   7.728   7.363  1.00 45.50    -0.166 F 
ENDBRANCH  26  36
ENDBRANCH   3  22
TORSDOF 7
ENDMDL
MODEL 5
REMARK VINA RESULT:    -8.879      1.240      1.784
REMARK INTER + INTRA:         -13.406
REMARK INTER:                 -12.558
REMARK INTRA:                  -0.848
REMARK UNBOUND:                -0.893
REMARK  7 active torsions:
REMARK  status: ('A' for Active; 'I' for Inactive)
REMARK    1  A    between atoms: N3_2  and  C20_12 
REMARK    2  A    between atoms: C4_3  and  C5_4 
REMARK    3  A    between atoms: C13_9  and  N2_29 
REMARK    4  A    between atoms: C17_11  and  C19_33 
REMARK    5  A    between atoms: C20_12  and  C16_31 
REMARK    6  A    between atoms: C2_23  and  C3_24 
REMARK    7  A    between atoms: C9_25  and  C12_27 
REMARK       I    between atoms: C12_27  and  N2_29 
ROOT
HETATM    1  C12   D T 801       1.491   9.037   5.139  1.00 44.92     0.279 C 
HETATM    2  O1    D T 801       1.074  10.164   5.329  1.00 47.76    -0.265 OA
HETATM    3  N2    D T 801       2.478   8.824   4.220  1.00 46.59    -0.208 NA
ENDROOT
BRANCH   1   4
HETATM    4  C9    D T 801       0.932   7.909   5.953  1.00 40.68     0.059 A 
HETATM    5  C8    D T 801      -0.395   7.448   5.822  1.00 40.60     0.004 A 
HETATM    6  C7    D T 801      -0.866   6.384   6.577  1.00 42.33    -0.004 A 
HETATM    7  C6    D T 801      -0.052   5.729   7.485  1.00 44.57    -0.014 A 
HETATM    8  C5    D T 801       1.278   6.160   7.638  1.00 44.90     0.038 A 
HETATM    9  C11   D T 801      -0.608   4.579   8.285  1.00 40.34     0.032 C 
HETATM   10  C10   D T 801       1.756   7.240   6.872  1.00 44.55     0.013 A 
BRANCH   8  11
HETATM   11  C4    D T 801       2.214   5.563   8.548  1.00 43.57    -0.058 C 
HETATM   12  C3    D T 801       2.999   5.111   9.298  1.00 44.10    -0.039 C 
BRANCH  12  13
HETATM   13  C2    D T 801       3.912   4.510  10.225  1.00 46.85     0.145 A 
HETATM   14  N82   D T 801       5.285   4.461  10.212  1.00 45.71    -0.203 N 
HETATM   15  N81   D T 801       6.248   4.940   9.310  1.00 48.41    -0.162 NA
HETATM   16  C84   D T 801       5.662   3.785  11.355  1.00 48.08     0.165 A 
HETATM   17  C83   D T 801       7.523   4.744   9.546  1.00 54.40     0.121 A 
HETATM   18  C82   D T 801       7.942   4.058  10.702  1.00 53.21     0.026 A 
HETATM   19  C81   D T 801       7.034   3.580  11.606  1.00 48.83     0.041 A 
HETATM   20  N1    D T 801       4.578   3.442  12.032  1.00 46.84    -0.223 NA
HETATM   21  C1    D T 801       3.508   3.865  11.377  1.00 46.95     0.128 A 
ENDBRANCH  12  13
ENDBRANCH   8  11
ENDBRANCH   1   4
BRANCH   3  22
HETATM   22  C13   D T 801       3.111   9.805   3.432  1.00 45.13     0.085 A 
HETATM   23  C14   D T 801       4.165  10.556   3.948  1.00 45.97     0.019 A 
HETATM   24  C15   D T 801       4.766  11.554   3.192  1.00 43.20    -0.001 A 
HETATM   25  C16   D T 801       4.327  11.851   1.900  1.00 40.99     0.015 A 
HETATM   26  C17   D T 801       3.238  11.113   1.382  1.00 44.10     0.071 A 
HETATM   27  C18   D T 801       2.643  10.111   2.154  1.00 42.25     0.023 A 
BRANCH  25  28
HETATM   28  C20   D T 801       5.013  12.962   1.109  1.00 39.15     0.277 C 
BRANCH  28  29
HETATM   29  N3    D T 801       6.114  13.650   1.811  1.00 38.29     0.146 N 
HETATM   30  C21   D T 801       5.739  15.041   2.143  1.00 41.73     0.286 C 
HETATM   31  C22   D T 801       6.881  15.763   2.867  1.00 41.71     0.286 C 
HETATM   32  N4    D T 801       8.105  15.691   2.056  1.00 48.22     0.143 N 
HETATM   33  C23   D T 801       8.485  14.287   1.820  1.00 42.74     0.286 C 
HETATM   34  C25   D T 801       9.200  16.450   2.674  1.00 47.13     0.285 C 
HETATM   35  C24   D T 801       7.362  13.605   1.031  1.00 36.93     0.286 C 
ENDBRANCH  28  29
ENDBRANCH  25  28
BRANCH  26  36
HETATM   36  C19   D T 801       2.685  11.360  -0.009  1.00 42.98     0.419 C 
HETATM   37  F1    D T 801       1.874  10.308  -0.454  1.00 48.85    -0.166 F 
HETATM   38  F2    D T 801       1.943  12.545  -0.035  1.00 43.91    -0.166 F 
HETATM   39  F3    D T 801       3.761  11.479  -0.882  1.00 45.50    -0.166 F 
ENDBRANCH  26  36
ENDBRANCH   3  22
TORSDOF 7
ENDMDL
MODEL 6
REMARK VINA RESULT:    -8.711      4.692     11.528
REMARK INTER + INTRA:         -13.169
REMARK INTER:                 -12.488
REMARK INTRA:                  -0.681
REMARK UNBOUND:                -0.893
REMARK  7 active torsions:
REMARK  status: ('A' for Active; 'I' for Inactive)
REMARK    1  A    between atoms: N3_2  and  C20_12 
REMARK    2  A    between atoms: C4_3  and  C5_4 
REMARK    3  A    between atoms: C13_9  and  N2_29 
REMARK    4  A    between atoms: C17_11  and  C19_33 
REMARK    5  A    between atoms: C20_12  and  C16_31 
REMARK    6  A    between atoms: C2_23  and  C3_24 
REMARK    7  A    between atoms: C9_25  and  C12_27 
REMARK       I    between atoms: C12_27  and  N2_29 
ROOT
HETATM    1  C12   D T 801       2.707   6.064   9.112  1.00 44.92     0.279 C 
HETATM    2  O1    D T 801       2.664   6.633  10.187  1.00 47.76    -0.265 OA
HETATM    3  N2    D T 801       3.595   5.045   8.920  1.00 46.59    -0.208 NA
ENDROOT
BRANCH   1   4
HETATM    4  C9    D T 801       1.750   6.474   8.034  1.00 40.68     0.059 A 
HETATM    5  C8    D T 801       0.414   6.025   7.979  1.00 40.60     0.004 A 
HETATM    6  C7    D T 801      -0.448   6.448   6.978  1.00 42.33    -0.004 A 
HETATM    7  C6    D T 801      -0.033   7.331   5.996  1.00 44.57    -0.014 A 
HETATM    8  C5    D T 801       1.293   7.800   6.023  1.00 44.90     0.038 A 
HETATM    9  C11   D T 801      -1.003   7.761   4.926  1.00 40.34     0.032 C 
HETATM   10  C10   D T 801       2.168   7.371   7.038  1.00 44.55     0.013 A 
BRANCH   8  11
HETATM   11  C4    D T 801       1.838   8.714   5.059  1.00 43.57    -0.058 C 
HETATM   12  C3    D T 801       2.325   9.448   4.278  1.00 44.10    -0.039 C 
BRANCH  12  13
HETATM   13  C2    D T 801       2.856  10.344   3.295  1.00 46.85     0.145 A 
HETATM   14  N82   D T 801       3.986  10.242   2.520  1.00 45.71    -0.203 N 
HETATM   15  N81   D T 801       4.999   9.275   2.434  1.00 48.41    -0.162 NA
HETATM   16  C84   D T 801       4.015  11.368   1.722  1.00 48.08     0.165 A 
HETATM   17  C83   D T 801       5.989   9.436   1.590  1.00 54.40     0.121 A 
HETATM   18  C82   D T 801       6.050  10.572   0.761  1.00 53.21     0.026 A 
HETATM   19  C81   D T 801       5.079  11.534   0.813  1.00 48.83     0.041 A 
HETATM   20  N1    D T 801       2.957  12.116   1.992  1.00 46.84    -0.223 NA
HETATM   21  C1    D T 801       2.240  11.526   2.935  1.00 46.95     0.128 A 
ENDBRANCH  12  13
ENDBRANCH   8  11
ENDBRANCH   1   4
BRANCH   3  22
HETATM   22  C13   D T 801       4.508   4.541   9.868  1.00 45.13     0.085 A 
HETATM   23  C14   D T 801       4.054   3.987  11.063  1.00 45.97     0.019 A 
HETATM   24  C15   D T 801       4.948   3.528  12.020  1.00 43.20    -0.001 A 
HETATM   25  C16   D T 801       6.328   3.620  11.829  1.00 40.99     0.015 A 
HETATM   26  C17   D T 801       6.796   4.209  10.632  1.00 44.10     0.071 A 
HETATM   27  C18   D T 801       5.883   4.668   9.677  1.00 42.25     0.023 A 
BRANCH  25  28
HETATM   28  C20   D T 801       7.274   3.109  12.913  1.00 39.15     0.277 C 
BRANCH  28  29
HETATM   29  N3    D T 801       8.004   4.152  13.659  1.00 38.29     0.146 N 
HETATM   30  C21   D T 801       9.258   3.613  14.228  1.00 41.73     0.286 C 
HETATM   31  C22   D T 801      10.018   4.691  15.008  1.00 41.71     0.286 C 
HETATM   32  N4    D T 801       9.140   5.270  16.035  1.00 48.22     0.143 N 
HETATM   33  C23   D T 801       7.944   5.867  15.414  1.00 42.74     0.286 C 
HETATM   34  C25   D T 801       9.859   6.244  16.866  1.00 47.13     0.285 C 
HETATM   35  C24   D T 801       7.161   4.758  14.702  1.00 36.93     0.286 C 
ENDBRANCH  28  29
ENDBRANCH  25  28
BRANCH  26  36
HETATM   36  C19   D T 801       8.275   4.359  10.330  1.00 42.98     0.419 C 
HETATM   37  F1    D T 801       8.843   5.460  10.983  1.00 48.85    -0.166 F 
HETATM   38  F2    D T 801       8.968   3.204  10.704  1.00 43.91    -0.166 F 
HETATM   39  F3    D T 801       8.414   4.547   8.958  1.00 45.50    -0.166 F 
ENDBRANCH  26  36
ENDBRANCH   3  22
TORSDOF 7
ENDMDL
MODEL 7
REMARK VINA RESULT:    -8.593      3.916     12.181
REMARK INTER + INTRA:         -13.002
REMARK INTER:                 -12.183
REMARK INTRA:                  -0.819
REMARK UNBOUND:                -0.893
REMARK  7 active torsions:
REMARK  status: ('A' for Active; 'I' for Inactive)
REMARK    1  A    between atoms: N3_2  and  C20_12 
REMARK    2  A    between atoms: C4_3  and  C5_4 
REMARK    3  A    between atoms: C13_9  and  N2_29 
REMARK    4  A    between atoms: C17_11  and  C19_33 
REMARK    5  A    between atoms: C20_12  and  C16_31 
REMARK    6  A    between atoms: C2_23  and  C3_24 
REMARK    7  A    between atoms: C9_25  and  C12_27 
REMARK       I    between atoms: C12_27  and  N2_29 
ROOT
HETATM    1  C12   D T 801       6.480   8.526   5.209  1.00 44.92     0.279 C 
HETATM    2  O1    D T 801       6.558   9.170   6.239  1.00 47.76    -0.265 OA
HETATM    3  N2    D T 801       6.024   7.240   5.247  1.00 46.59    -0.208 NA
ENDROOT
BRANCH   1   4
HETATM    4  C9    D T 801       6.855   9.180   3.914  1.00 40.68     0.059 A 
HETATM    5  C8    D T 801       8.192   9.368   3.504  1.00 40.60     0.004 A 
HETATM    6  C7    D T 801       8.496   9.955   2.284  1.00 42.33    -0.004 A 
HETATM    7  C6    D T 801       7.500  10.376   1.420  1.00 44.57    -0.014 A 
HETATM    8  C5    D T 801       6.156  10.200   1.796  1.00 44.90     0.038 A 
HETATM    9  C11   D T 801       7.878  11.011   0.106  1.00 40.34     0.032 C 
HETATM   10  C10   D T 801       5.847   9.605   3.033  1.00 44.55     0.013 A 
BRANCH   8  11
HETATM   11  C4    D T 801       5.040  10.598   0.986  1.00 43.57    -0.058 C 
HETATM   12  C3    D T 801       4.128  10.964   0.338  1.00 44.10    -0.039 C 
BRANCH  12  13
HETATM   13  C2    D T 801       3.030  11.357  -0.494  1.00 46.85     0.145 A 
HETATM   14  N82   D T 801       2.860  12.481  -1.266  1.00 45.71    -0.203 N 
HETATM   15  N81   D T 801       3.656  13.615  -1.487  1.00 48.41    -0.162 NA
HETATM   16  C84   D T 801       1.633  12.347  -1.885  1.00 48.08     0.165 A 
HETATM   17  C83   D T 801       3.237  14.565  -2.289  1.00 54.40     0.121 A 
HETATM   18  C82   D T 801       1.992  14.460  -2.936  1.00 53.21     0.026 A 
HETATM   19  C81   D T 801       1.189  13.369  -2.749  1.00 48.83     0.041 A 
HETATM   20  N1    D T 801       1.085  11.201  -1.515  1.00 46.84    -0.223 NA
HETATM   21  C1    D T 801       1.903  10.582  -0.678  1.00 46.95     0.128 A 
ENDBRANCH  12  13
ENDBRANCH   8  11
ENDBRANCH   1   4
BRANCH   3  22
HETATM   22  C13   D T 801       5.601   6.536   6.391  1.00 45.13     0.085 A 
HETATM   23  C14   D T 801       6.432   5.592   6.989  1.00 45.97     0.019 A 
HETATM   24  C15   D T 801       6.006   4.863   8.091  1.00 43.20    -0.001 A 
HETATM   25  C16   D T 801       4.728   5.037   8.627  1.00 40.99     0.015 A 
HETATM   26  C17   D T 801       3.868   5.972   8.006  1.00 44.10     0.071 A 
HETATM   27  C18   D T 801       4.311   6.699   6.897  1.00 42.25     0.023 A 
BRANCH  25  28
HETATM   28  C20   D T 801       4.300   4.207   9.835  1.00 39.15     0.277 C 
BRANCH  28  29
HETATM   29  N3    D T 801       5.343   3.991  10.856  1.00 38.29     0.146 N 
HETATM   30  C21   D T 801       5.980   2.668  10.687  1.00 41.73     0.286 C 
HETATM   31  C22   D T 801       7.062   2.435  11.749  1.00 41.71     0.286 C 
HETATM   32  N4    D T 801       6.484   2.612  13.089  1.00 48.22     0.143 N 
HETATM   33  C23   D T 801       5.936   3.972  13.238  1.00 42.74     0.286 C 
HETATM   34  C25   D T 801       7.467   2.309  14.137  1.00 47.13     0.285 C 
HETATM   35  C24   D T 801       4.807   4.156  12.217  1.00 36.93     0.286 C 
ENDBRANCH  28  29
ENDBRANCH  25  28
BRANCH  26  36
HETATM   36  C19   D T 801       2.462   6.232   8.510  1.00 42.98     0.419 C 
HETATM   37  F1    D T 801       2.442   6.645   9.848  1.00 48.85    -0.166 F 
HETATM   38  F2    D T 801       1.836   7.207   7.727  1.00 43.91    -0.166 F 
HETATM   39  F3    D T 801       1.745   5.044   8.411  1.00 45.50    -0.166 F 
ENDBRANCH  26  36
ENDBRANCH   3  22
TORSDOF 7
ENDMDL
MODEL 8
REMARK VINA RESULT:    -8.511      2.043      2.857
REMARK INTER + INTRA:         -12.887
REMARK INTER:                 -12.405
REMARK INTRA:                  -0.481
REMARK UNBOUND:                -0.893
REMARK  7 active torsions:
REMARK  status: ('A' for Active; 'I' for Inactive)
REMARK    1  A    between atoms: N3_2  and  C20_12 
REMARK    2  A    between atoms: C4_3  and  C5_4 
REMARK    3  A    between atoms: C13_9  and  N2_29 
REMARK    4  A    between atoms: C17_11  and  C19_33 
REMARK    5  A    between atoms: C20_12  and  C16_31 
REMARK    6  A    between atoms: C2_23  and  C3_24 
REMARK    7  A    between atoms: C9_25  and  C12_27 
REMARK       I    between atoms: C12_27  and  N2_29 
ROOT
HETATM    1  C12   D T 801       1.936   9.338   4.601  1.00 44.92     0.279 C 
HETATM    2  O1    D T 801       1.818  10.527   4.829  1.00 47.76    -0.265 OA
HETATM    3  N2    D T 801       2.732   8.920   3.574  1.00 46.59    -0.208 NA
ENDROOT
BRANCH   1   4
HETATM    4  C9    D T 801       1.228   8.355   5.484  1.00 40.68     0.059 A 
HETATM    5  C8    D T 801      -0.159   8.107   5.404  1.00 40.60     0.004 A 
HETATM    6  C7    D T 801      -0.772   7.170   6.223  1.00 42.33    -0.004 A 
HETATM    7  C6    D T 801      -0.047   6.438   7.147  1.00 44.57    -0.014 A 
HETATM    8  C5    D T 801       1.338   6.658   7.251  1.00 44.90     0.038 A 
HETATM    9  C11   D T 801      -0.756   5.432   8.017  1.00 40.34     0.032 C 
HETATM   10  C10   D T 801       1.961   7.609   6.420  1.00 44.55     0.013 A 
BRANCH   8  11
HETATM   11  C4    D T 801       2.192   5.963   8.172  1.00 43.57    -0.058 C 
HETATM   12  C3    D T 801       2.915   5.430   8.932  1.00 44.10    -0.039 C 
BRANCH  12  13
HETATM   13  C2    D T 801       3.746   4.735   9.870  1.00 46.85     0.145 A 
HETATM   14  N82   D T 801       5.115   4.640   9.943  1.00 45.71    -0.203 N 
HETATM   15  N81   D T 801       6.149   5.149   9.143  1.00 48.41    -0.162 NA
HETATM   16  C84   D T 801       5.395   3.873  11.055  1.00 48.08     0.165 A 
HETATM   17  C83   D T 801       7.399   4.895   9.447  1.00 54.40     0.121 A 
HETATM   18  C82   D T 801       7.720   4.115  10.574  1.00 53.21     0.026 A 
HETATM   19  C81   D T 801       6.740   3.605  11.380  1.00 48.83     0.041 A 
HETATM   20  N1    D T 801       4.258   3.519  11.633  1.00 46.84    -0.223 NA
HETATM   21  C1    D T 801       3.247   4.023  10.943  1.00 46.95     0.128 A 
ENDBRANCH  12  13
ENDBRANCH   8  11
ENDBRANCH   1   4
BRANCH   3  22
HETATM   22  C13   D T 801       3.481   9.743   2.709  1.00 45.13     0.085 A 
HETATM   23  C14   D T 801       2.840  10.583   1.801  1.00 45.97     0.019 A 
HETATM   24  C15   D T 801       3.571  11.364   0.915  1.00 43.20    -0.001 A 
HETATM   25  C16   D T 801       4.966  11.323   0.891  1.00 40.99     0.015 A 
HETATM   26  C17   D T 801       5.622  10.449   1.789  1.00 44.10     0.071 A 
HETATM   27  C18   D T 801       4.873   9.668   2.675  1.00 42.25     0.023 A 
BRANCH  25  28
HETATM   28  C20   D T 801       5.727  12.194  -0.106  1.00 39.15     0.277 C 
BRANCH  28  29
HETATM   29  N3    D T 801       6.139  13.518   0.398  1.00 38.29     0.146 N 
HETATM   30  C21   D T 801       5.536  13.791   1.720  1.00 41.73     0.286 C 
HETATM   31  C22   D T 801       5.956  15.168   2.246  1.00 41.71     0.286 C 
HETATM   32  N4    D T 801       5.620  16.199   1.254  1.00 48.22     0.143 N 
HETATM   33  C23   D T 801       6.309  15.931  -0.021  1.00 42.74     0.286 C 
HETATM   34  C25   D T 801       5.925  17.545   1.759  1.00 47.13     0.285 C 
HETATM   35  C24   D T 801       5.818  14.585  -0.565  1.00 36.93     0.286 C 
ENDBRANCH  28  29
ENDBRANCH  25  28
BRANCH  26  36
HETATM   36  C19   D T 801       7.132  10.328   1.840  1.00 42.98     0.419 C 
HETATM   37  F1    D T 801       7.555   9.251   2.629  1.00 48.85    -0.166 F 
HETATM   38  F2    D T 801       7.654  10.176   0.551  1.00 43.91    -0.166 F 
HETATM   39  F3    D T 801       7.637  11.499   2.397  1.00 45.50    -0.166 F 
ENDBRANCH  26  36
ENDBRANCH   3  22
TORSDOF 7
ENDMDL
MODEL 9
REMARK VINA RESULT:    -8.458      3.303      4.327
REMARK INTER + INTRA:         -12.813
REMARK INTER:                 -11.761
REMARK INTRA:                  -1.052
REMARK UNBOUND:                -0.893
REMARK  7 active torsions:
REMARK  status: ('A' for Active; 'I' for Inactive)
REMARK    1  A    between atoms: N3_2  and  C20_12 
REMARK    2  A    between atoms: C4_3  and  C5_4 
REMARK    3  A    between atoms: C13_9  and  N2_29 
REMARK    4  A    between atoms: C17_11  and  C19_33 
REMARK    5  A    between atoms: C20_12  and  C16_31 
REMARK    6  A    between atoms: C2_23  and  C3_24 
REMARK    7  A    between atoms: C9_25  and  C12_27 
REMARK       I    between atoms: C12_27  and  N2_29 
ROOT
HETATM    1  C12   D T 801       3.499   7.282   6.994  1.00 44.92     0.279 C 
HETATM    2  O1    D T 801       3.313   8.475   7.147  1.00 47.76    -0.265 OA
HETATM    3  N2    D T 801       4.260   6.843   5.950  1.00 46.59    -0.208 NA
ENDROOT
BRANCH   1   4
HETATM    4  C9    D T 801       2.914   6.323   7.986  1.00 40.68     0.059 A 
HETATM    5  C8    D T 801       1.560   5.925   7.968  1.00 40.60     0.004 A 
HETATM    6  C7    D T 801       1.064   5.015   8.889  1.00 42.33    -0.004 A 
HETATM    7  C6    D T 801       1.878   4.457   9.860  1.00 44.57    -0.014 A 
HETATM    8  C5    D T 801       3.233   4.829   9.905  1.00 44.90     0.038 A 
HETATM    9  C11   D T 801       1.294   3.473  10.842  1.00 40.34     0.032 C 
HETATM   10  C10   D T 801       3.737   5.753   8.971  1.00 44.55     0.013 A 
BRANCH   8  11
HETATM   11  C4    D T 801       4.171   4.322  10.866  1.00 43.57    -0.058 C 
HETATM   12  C3    D T 801       4.938   3.867  11.634  1.00 44.10    -0.039 C 
BRANCH  12  13
HETATM   13  C2    D T 801       5.894   3.377  12.582  1.00 46.85     0.145 A 
HETATM   14  N82   D T 801       6.820   4.054  13.339  1.00 45.71    -0.203 N 
HETATM   15  N81   D T 801       7.165   5.411  13.433  1.00 48.41    -0.162 NA
HETATM   16  C84   D T 801       7.466   3.105  14.106  1.00 48.08     0.165 A 
HETATM   17  C83   D T 801       8.114   5.790  14.255  1.00 54.40     0.121 A 
HETATM   18  C82   D T 801       8.794   4.849  15.050  1.00 53.21     0.026 A 
HETATM   19  C81   D T 801       8.483   3.519  14.989  1.00 48.83     0.041 A 
HETATM   20  N1    D T 801       6.960   1.913  13.834  1.00 46.84    -0.223 NA
HETATM   21  C1    D T 801       6.011   2.044  12.920  1.00 46.95     0.128 A 
ENDBRANCH  12  13
ENDBRANCH   8  11
ENDBRANCH   1   4
BRANCH   3  22
HETATM   22  C13   D T 801       4.898   7.647   4.984  1.00 45.13     0.085 A 
HETATM   23  C14   D T 801       4.196   8.107   3.872  1.00 45.97     0.019 A 
HETATM   24  C15   D T 801       4.829   8.862   2.893  1.00 43.20    -0.001 A 
HETATM   25  C16   D T 801       6.187   9.173   2.980  1.00 40.99     0.015 A 
HETATM   26  C17   D T 801       6.912   8.684   4.091  1.00 44.10     0.071 A 
HETATM   27  C18   D T 801       6.262   7.923   5.068  1.00 42.25     0.023 A 
BRANCH  25  28
HETATM   28  C20   D T 801       6.841  10.001   1.877  1.00 39.15     0.277 C 
BRANCH  28  29
HETATM   29  N3    D T 801       6.313  11.369   1.715  1.00 38.29     0.146 N 
HETATM   30  C21   D T 801       5.885  11.607   0.319  1.00 41.73     0.286 C 
HETATM   31  C22   D T 801       5.340  13.029   0.143  1.00 41.71     0.286 C 
HETATM   32  N4    D T 801       6.345  14.002   0.595  1.00 48.22     0.143 N 
HETATM   33  C23   D T 801       6.679  13.778   2.013  1.00 42.74     0.286 C 
HETATM   34  C25   D T 801       5.896  15.381   0.358  1.00 47.13     0.285 C 
HETATM   35  C24   D T 801       7.290  12.379   2.153  1.00 36.93     0.286 C 
ENDBRANCH  28  29
ENDBRANCH  25  28
BRANCH  26  36
HETATM   36  C19   D T 801       8.391   8.963   4.277  1.00 42.98     0.419 C 
HETATM   37  F1    D T 801       8.670  10.334   4.341  1.00 48.85    -0.166 F 
HETATM   38  F2    D T 801       8.861   8.351   5.443  1.00 43.91    -0.166 F 
HETATM   39  F3    D T 801       9.067   8.433   3.183  1.00 45.50    -0.166 F 
ENDBRANCH  26  36
ENDBRANCH   3  22
TORSDOF 7
ENDMDL
