MODEL 1
REMARK VINA RESULT:    -8.961      0.000      0.000
REMARK INTER + INTRA:         -13.615
REMARK INTER:                 -12.628
REMARK INTRA:                  -0.987
REMARK UNBOUND:                -0.987
REMARK  7 active torsions:
REMARK  status: ('A' for Active; 'I' for Inactive)
REMARK    1  A    between atoms: N3_2  and  C20_12 
REMARK    2  A    between atoms: C4_3  and  C5_4 
REMARK    3  A    between atoms: C13_9  and  N2_29 
REMARK    4  A    between atoms: C17_11  and  C19_33 
REMARK    5  A    between atoms: C20_12  and  C16_31 
REMARK    6  A    between atoms: C2_23  and  C3_24 
REMARK    7  A    between atoms: C9_25  and  C12_27 
REMARK       I    between atoms: C12_27  and  N2_29 
ROOT
HETATM    1  C12   D T 801      10.394   4.154  -1.074  1.00 44.92     0.279 C 
HETATM    2  O1    D T 801      11.553   4.515  -0.964  1.00 47.76    -0.265 OA
HETATM    3  N2    D T 801       9.459   4.605  -0.188  1.00 46.59    -0.208 NA
ENDROOT
BRANCH   1   4
HETATM    4  C9    D T 801      10.018   3.253  -2.210  1.00 40.68     0.059 A 
HETATM    5  C8    D T 801      10.495   1.931  -2.334  1.00 40.60     0.004 A 
HETATM    6  C7    D T 801      10.103   1.120  -3.389  1.00 42.33    -0.004 A 
HETATM    7  C6    D T 801       9.223   1.572  -4.357  1.00 44.57    -0.014 A 
HETATM    8  C5    D T 801       8.726   2.885  -4.261  1.00 44.90     0.038 A 
HETATM    9  C11   D T 801       8.827   0.656  -5.485  1.00 40.34     0.032 C 
HETATM   10  C10   D T 801       9.123   3.708  -3.192  1.00 44.55     0.013 A 
BRANCH   8  11
HETATM   11  C4    D T 801       7.812   3.464  -5.204  1.00 43.57    -0.058 C 
HETATM   12  C3    D T 801       7.060   3.974  -5.953  1.00 44.10    -0.039 C 
BRANCH  12  13
HETATM   13  C2    D T 801       6.168   4.553  -6.913  1.00 46.85     0.145 A 
HETATM   14  N82   D T 801       5.577   3.997  -8.023  1.00 45.71    -0.203 N 
HETATM   15  N81   D T 801       5.652   2.724  -8.605  1.00 48.41    -0.162 NA
HETATM   16  C84   D T 801       4.789   4.985  -8.580  1.00 48.08     0.165 A 
HETATM   17  C83   D T 801       4.970   2.459  -9.693  1.00 54.40     0.121 A 
HETATM   18  C82   D T 801       4.156   3.442 -10.288  1.00 53.21     0.026 A 
HETATM   19  C81   D T 801       4.056   4.694  -9.748  1.00 48.83     0.041 A 
HETATM   20  N1    D T 801       4.891   6.084  -7.847  1.00 46.84    -0.223 NA
HETATM   21  C1    D T 801       5.713   5.854  -6.837  1.00 46.95     0.128 A 
ENDBRANCH  12  13
ENDBRANCH   8  11
ENDBRANCH   1   4
BRANCH   3  22
HETATM   22  C13   D T 801       9.681   5.487   0.888  1.00 45.13     0.085 A 
HETATM   23  C14   D T 801      10.096   5.003   2.127  1.00 45.97     0.019 A 
HETATM   24  C15   D T 801      10.275   5.861   3.204  1.00 43.20    -0.001 A 
HETATM   25  C16   D T 801      10.033   7.232   3.088  1.00 40.99     0.015 A 
HETATM   26  C17   D T 801       9.582   7.725   1.842  1.00 44.10     0.071 A 
HETATM   27  C18   D T 801       9.406   6.849   0.767  1.00 42.25     0.023 A 
BRANCH  25  28
HETATM   28  C20   D T 801      10.236   8.136   4.302  1.00 39.15     0.277 C 
BRANCH  28  29
HETATM   29  N3    D T 801       9.312   7.901   5.427  1.00 38.29     0.146 N 
HETATM   30  C21   D T 801       8.756   9.176   5.927  1.00 41.73     0.286 C 
HETATM   31  C22   D T 801       7.797   8.940   7.101  1.00 41.71     0.286 C 
HETATM   32  N4    D T 801       8.485   8.177   8.153  1.00 48.22     0.143 N 
HETATM   33  C23   D T 801       8.949   6.879   7.629  1.00 42.74     0.286 C 
HETATM   34  C25   D T 801       7.629   8.007   9.334  1.00 47.13     0.285 C 
HETATM   35  C24   D T 801       9.961   7.141   6.508  1.00 36.93     0.286 C 
ENDBRANCH  28  29
ENDBRANCH  25  28
BRANCH  26  36
HETATM   36  C19   D T 801       9.288   9.195   1.615  1.00 42.98     0.419 C 
HETATM   37  F1    D T 801      10.430   9.994   1.760  1.00 48.85    -0.166 F 
HETATM   38  F2    D T 801       8.755   9.395   0.339  1.00 43.91    -0.166 F 
HETATM   39  F3    D T 801       8.355   9.597   2.565  1.00 45.50    -0.166 F 
ENDBRANCH  26  36
ENDBRANCH   3  22
TORSDOF 7
ENDMDL
MODEL 2
REMARK VINA RESULT:    -8.767      2.960     12.450
REMARK INTER + INTRA:         -13.341
REMARK INTER:                 -12.473
REMARK INTRA:                  -0.869
REMARK UNBOUND:                -0.987
REMARK  7 active torsions:
REMARK  status: ('A' for Active; 'I' for Inactive)
REMARK    1  A    between atoms: N3_2  and  C20_12 
REMARK    2  A    between atoms: C4_3  and  C5_4 
REMARK    3  A    between atoms: C13_9  and  N2_29 
REMARK    4  A    between atoms: C17_11  and  C19_33 
REMARK    5  A    between atoms: C20_12  and  C16_31 
REMARK    6  A    between atoms: C2_23  and  C3_24 
REMARK    7  A    between atoms: C9_25  and  C12_27 
REMARK       I    between atoms: C12_27  and  N2_29 
ROOT
HETATM    1  C12   D T 801       9.290   8.799  -0.797  1.00 44.92     0.279 C 
HETATM    2  O1    D T 801       8.794   9.258  -1.811  1.00 47.76    -0.265 OA
HETATM    3  N2    D T 801       9.686   7.493  -0.769  1.00 46.59    -0.208 NA
ENDROOT
BRANCH   1   4
HETATM    4  C9    D T 801       9.490   9.697   0.385  1.00 40.68     0.059 A 
HETATM    5  C8    D T 801       9.796  11.069   0.266  1.00 40.60     0.004 A 
HETATM    6  C7    D T 801       9.948  11.872   1.387  1.00 42.33    -0.004 A 
HETATM    7  C6    D T 801       9.802  11.362   2.665  1.00 44.57    -0.014 A 
HETATM    8  C5    D T 801       9.494   9.998   2.819  1.00 44.90     0.038 A 
HETATM    9  C11   D T 801       9.979  12.272   3.852  1.00 40.34     0.032 C 
HETATM   10  C10   D T 801       9.338   9.182   1.683  1.00 44.55     0.013 A 
BRANCH   8  11
HETATM   11  C4    D T 801       9.320   9.356   4.090  1.00 43.57    -0.058 C 
HETATM   12  C3    D T 801       9.216   8.844   5.146  1.00 44.10    -0.039 C 
BRANCH  12  13
HETATM   13  C2    D T 801       9.021   8.220   6.421  1.00 46.85     0.145 A 
HETATM   14  N82   D T 801       7.875   8.055   7.162  1.00 45.71    -0.203 N 
HETATM   15  N81   D T 801       6.544   8.445   6.957  1.00 48.41    -0.162 NA
HETATM   16  C84   D T 801       8.242   7.361   8.298  1.00 48.08     0.165 A 
HETATM   17  C83   D T 801       5.630   8.154   7.851  1.00 54.40     0.121 A 
HETATM   18  C82   D T 801       5.969   7.448   9.021  1.00 53.21     0.026 A 
HETATM   19  C81   D T 801       7.256   7.049   9.254  1.00 48.83     0.041 A 
HETATM   20  N1    D T 801       9.542   7.114   8.251  1.00 46.84    -0.223 NA
HETATM   21  C1    D T 801      10.038   7.617   7.134  1.00 46.95     0.128 A 
ENDBRANCH  12  13
ENDBRANCH   8  11
ENDBRANCH   1   4
BRANCH   3  22
HETATM   22  C13   D T 801       9.593   6.567  -1.827  1.00 45.13     0.085 A 
HETATM   23  C14   D T 801      10.199   6.831  -3.054  1.00 45.97     0.019 A 
HETATM   24  C15   D T 801      10.075   5.944  -4.115  1.00 43.20    -0.001 A 
HETATM   25  C16   D T 801       9.331   4.768  -3.996  1.00 40.99     0.015 A 
HETATM   26  C17   D T 801       8.688   4.510  -2.763  1.00 44.10     0.071 A 
HETATM   27  C18   D T 801       8.821   5.413  -1.704  1.00 42.25     0.023 A 
BRANCH  25  28
HETATM   28  C20   D T 801       9.217   3.826  -5.193  1.00 39.15     0.277 C 
BRANCH  28  29
HETATM   29  N3    D T 801       8.018   4.012  -6.032  1.00 38.29     0.146 N 
HETATM   30  C21   D T 801       7.413   2.709  -6.380  1.00 41.73     0.286 C 
HETATM   31  C22   D T 801       6.167   2.893  -7.255  1.00 41.71     0.286 C 
HETATM   32  N4    D T 801       6.514   3.687  -8.444  1.00 48.22     0.143 N 
HETATM   33  C23   D T 801       7.037   5.007  -8.049  1.00 42.74     0.286 C 
HETATM   34  C25   D T 801       5.370   3.809  -9.356  1.00 47.13     0.285 C 
HETATM   35  C24   D T 801       8.320   4.799  -7.238  1.00 36.93     0.286 C 
ENDBRANCH  28  29
ENDBRANCH  25  28
BRANCH  26  36
HETATM   36  C19   D T 801       7.855   3.264  -2.534  1.00 42.98     0.419 C 
HETATM   37  F1    D T 801       6.678   3.264  -3.293  1.00 48.85    -0.166 F 
HETATM   38  F2    D T 801       8.593   2.119  -2.846  1.00 43.91    -0.166 F 
HETATM   39  F3    D T 801       7.504   3.224  -1.189  1.00 45.50    -0.166 F 
ENDBRANCH  26  36
ENDBRANCH   3  22
TORSDOF 7
ENDMDL
MODEL 3
REMARK VINA RESULT:    -8.750      2.121      3.014
REMARK INTER + INTRA:         -13.317
REMARK INTER:                 -12.600
REMARK INTRA:                  -0.717
REMARK UNBOUND:                -0.987
REMARK  7 active torsions:
REMARK  status: ('A' for Active; 'I' for Inactive)
REMARK    1  A    between atoms: N3_2  and  C20_12 
REMARK    2  A    between atoms: C4_3  and  C5_4 
REMARK    3  A    between atoms: C13_9  and  N2_29 
REMARK    4  A    between atoms: C17_11  and  C19_33 
REMARK    5  A    between atoms: C20_12  and  C16_31 
REMARK    6  A    between atoms: C2_23  and  C3_24 
REMARK    7  A    between atoms: C9_25  and  C12_27 
REMARK       I    between atoms: C12_27  and  N2_29 
ROOT
HETATM    1  C12   D T 801       9.034   5.036  -1.950  1.00 44.92     0.279 C 
HETATM    2  O1    D T 801       7.947   5.189  -1.421  1.00 47.76    -0.265 OA
HETATM    3  N2    D T 801      10.023   5.954  -1.744  1.00 46.59    -0.208 NA
ENDROOT
BRANCH   1   4
HETATM    4  C9    D T 801       9.270   3.815  -2.785  1.00 40.68     0.059 A 
HETATM    5  C8    D T 801      10.273   2.866  -2.496  1.00 40.60     0.004 A 
HETATM    6  C7    D T 801      10.442   1.735  -3.281  1.00 42.33    -0.004 A 
HETATM    7  C6    D T 801       9.631   1.489  -4.374  1.00 44.57    -0.014 A 
HETATM    8  C5    D T 801       8.618   2.413  -4.690  1.00 44.90     0.038 A 
HETATM    9  C11   D T 801       9.854   0.248  -5.199  1.00 40.34     0.032 C 
HETATM   10  C10   D T 801       8.446   3.561  -3.894  1.00 44.55     0.013 A 
BRANCH   8  11
HETATM   11  C4    D T 801       7.719   2.267  -5.798  1.00 43.57    -0.058 C 
HETATM   12  C3    D T 801       7.014   2.134  -6.732  1.00 44.10    -0.039 C 
BRANCH  12  13
HETATM   13  C2    D T 801       6.102   1.968  -7.824  1.00 46.85     0.145 A 
HETATM   14  N82   D T 801       5.444   2.908  -8.582  1.00 45.71    -0.203 N 
HETATM   15  N81   D T 801       5.410   4.309  -8.542  1.00 48.41    -0.162 NA
HETATM   16  C84   D T 801       4.712   2.208  -9.521  1.00 48.08     0.165 A 
HETATM   17  C83   D T 801       4.674   4.972  -9.401  1.00 54.40     0.121 A 
HETATM   18  C82   D T 801       3.915   4.291 -10.372  1.00 53.21     0.026 A 
HETATM   19  C81   D T 801       3.926   2.926 -10.444  1.00 48.83     0.041 A 
HETATM   20  N1    D T 801       4.916   0.911  -9.348  1.00 46.84    -0.223 NA
HETATM   21  C1    D T 801       5.748   0.735  -8.335  1.00 46.95     0.128 A 
ENDBRANCH  12  13
ENDBRANCH   8  11
ENDBRANCH   1   4
BRANCH   3  22
HETATM   22  C13   D T 801       9.937   7.112  -0.947  1.00 45.13     0.085 A 
HETATM   23  C14   D T 801      10.232   7.058   0.414  1.00 45.97     0.019 A 
HETATM   24  C15   D T 801      10.107   8.185   1.216  1.00 43.20    -0.001 A 
HETATM   25  C16   D T 801       9.669   9.404   0.692  1.00 40.99     0.015 A 
HETATM   26  C17   D T 801       9.338   9.457  -0.681  1.00 44.10     0.071 A 
HETATM   27  C18   D T 801       9.468   8.314  -1.476  1.00 42.25     0.023 A 
BRANCH  25  28
HETATM   28  C20   D T 801       9.541  10.615   1.615  1.00 39.15     0.277 C 
BRANCH  28  29
HETATM   29  N3    D T 801       9.830  10.359   3.038  1.00 38.29     0.146 N 
HETATM   30  C21   D T 801       8.689   9.684   3.693  1.00 41.73     0.286 C 
HETATM   31  C22   D T 801       8.981   9.418   5.176  1.00 41.71     0.286 C 
HETATM   32  N4    D T 801       9.345  10.679   5.840  1.00 48.22     0.143 N 
HETATM   33  C23   D T 801      10.535  11.272   5.204  1.00 42.74     0.286 C 
HETATM   34  C25   D T 801       9.544  10.484   7.281  1.00 47.13     0.285 C 
HETATM   35  C24   D T 801      10.196  11.596   3.745  1.00 36.93     0.286 C 
ENDBRANCH  28  29
ENDBRANCH  25  28
BRANCH  26  36
HETATM   36  C19   D T 801       8.851  10.731  -1.344  1.00 42.98     0.419 C 
HETATM   37  F1    D T 801       7.605  11.143  -0.853  1.00 48.85    -0.166 F 
HETATM   38  F2    D T 801       9.774  11.763  -1.156  1.00 43.91    -0.166 F 
HETATM   39  F3    D T 801       8.719  10.482  -2.706  1.00 45.50    -0.166 F 
ENDBRANCH  26  36
ENDBRANCH   3  22
TORSDOF 7
ENDMDL
MODEL 4
REMARK VINA RESULT:    -8.732      1.513      2.211
REMARK INTER + INTRA:         -13.292
REMARK INTER:                 -12.265
REMARK INTRA:                  -1.027
REMARK UNBOUND:                -0.987
REMARK  7 active torsions:
REMARK  status: ('A' for Active; 'I' for Inactive)
REMARK    1  A    between atoms: N3_2  and  C20_12 
REMARK    2  A    between atoms: C4_3  and  C5_4 
REMARK    3  A    between atoms: C13_9  and  N2_29 
REMARK    4  A    between atoms: C17_11  and  C19_33 
REMARK    5  A    between atoms: C20_12  and  C16_31 
REMARK    6  A    between atoms: C2_23  and  C3_24 
REMARK    7  A    between atoms: C9_25  and  C12_27 
REMARK       I    between atoms: C12_27  and  N2_29 
ROOT
HETATM    1  C12   D T 801       9.165   4.813  -1.330  1.00 44.92     0.279 C 
HETATM    2  O1    D T 801       8.022   5.209  -1.193  1.00 47.76    -0.265 OA
HETATM    3  N2    D T 801      10.175   5.405  -0.629  1.00 46.59    -0.208 NA
ENDROOT
BRANCH   1   4
HETATM    4  C9    D T 801       9.428   3.653  -2.242  1.00 40.68     0.059 A 
HETATM    5  C8    D T 801      10.405   2.671  -1.975  1.00 40.60     0.004 A 
HETATM    6  C7    D T 801      10.600   1.598  -2.833  1.00 42.33    -0.004 A 
HETATM    7  C6    D T 801       9.841   1.445  -3.980  1.00 44.57    -0.014 A 
HETATM    8  C5    D T 801       8.856   2.405  -4.274  1.00 44.90     0.038 A 
HETATM    9  C11   D T 801      10.090   0.265  -4.883  1.00 40.34     0.032 C 
HETATM   10  C10   D T 801       8.657   3.494  -3.404  1.00 44.55     0.013 A 
BRANCH   8  11
HETATM   11  C4    D T 801       8.011   2.355  -5.432  1.00 43.57    -0.058 C 
HETATM   12  C3    D T 801       7.321   2.356  -6.387  1.00 44.10    -0.039 C 
BRANCH  12  13
HETATM   13  C2    D T 801       6.497   2.290  -7.557  1.00 46.85     0.145 A 
HETATM   14  N82   D T 801       5.735   3.261  -8.162  1.00 45.71    -0.203 N 
HETATM   15  N81   D T 801       5.480   4.603  -7.849  1.00 48.41    -0.162 NA
HETATM   16  C84   D T 801       5.165   2.672  -9.274  1.00 48.08     0.165 A 
HETATM   17  C83   D T 801       4.689   5.316  -8.614  1.00 54.40     0.121 A 
HETATM   18  C82   D T 801       4.091   4.748  -9.755  1.00 53.21     0.026 A 
HETATM   19  C81   D T 801       4.318   3.444 -10.094  1.00 48.83     0.041 A 
HETATM   20  N1    D T 801       5.561   1.411  -9.345  1.00 46.84    -0.223 NA
HETATM   21  C1    D T 801       6.364   1.151  -8.327  1.00 46.95     0.128 A 
ENDBRANCH  12  13
ENDBRANCH   8  11
ENDBRANCH   1   4
BRANCH   3  22
HETATM   22  C13   D T 801      10.047   6.466   0.288  1.00 45.13     0.085 A 
HETATM   23  C14   D T 801       9.829   6.211   1.641  1.00 45.97     0.019 A 
HETATM   24  C15   D T 801       9.658   7.252   2.544  1.00 43.20    -0.001 A 
HETATM   25  C16   D T 801       9.684   8.586   2.128  1.00 40.99     0.015 A 
HETATM   26  C17   D T 801       9.875   8.850   0.752  1.00 44.10     0.071 A 
HETATM   27  C18   D T 801      10.045   7.791  -0.145  1.00 42.25     0.023 A 
BRANCH  25  28
HETATM   28  C20   D T 801       9.484   9.697   3.157  1.00 39.15     0.277 C 
BRANCH  28  29
HETATM   29  N3    D T 801       9.543   9.271   4.567  1.00 38.29     0.146 N 
HETATM   30  C21   D T 801       8.313   9.664   5.287  1.00 41.73     0.286 C 
HETATM   31  C22   D T 801       8.368   9.228   6.757  1.00 41.71     0.286 C 
HETATM   32  N4    D T 801       9.583   9.768   7.385  1.00 48.22     0.143 N 
HETATM   33  C23   D T 801      10.786   9.284   6.683  1.00 42.74     0.286 C 
HETATM   34  C25   D T 801       9.629   9.449   8.818  1.00 47.13     0.285 C 
HETATM   35  C24   D T 801      10.744   9.793   5.239  1.00 36.93     0.286 C 
ENDBRANCH  28  29
ENDBRANCH  25  28
BRANCH  26  36
HETATM   36  C19   D T 801       9.916  10.262   0.201  1.00 42.98     0.419 C 
HETATM   37  F1    D T 801       8.706  10.943   0.392  1.00 48.85    -0.166 F 
HETATM   38  F2    D T 801      10.944  10.991   0.803  1.00 43.91    -0.166 F 
HETATM   39  F3    D T 801      10.156  10.182  -1.166  1.00 45.50    -0.166 F 
ENDBRANCH  26  36
ENDBRANCH   3  22
TORSDOF 7
ENDMDL
MODEL 5
REMARK VINA RESULT:    -8.328      1.555      2.174
REMARK INTER + INTRA:         -12.723
REMARK INTER:                 -11.938
REMARK INTRA:                  -0.785
REMARK UNBOUND:                -0.987
REMARK  7 active torsions:
REMARK  status: ('A' for Active; 'I' for Inactive)
REMARK    1  A    between atoms: N3_2  and  C20_12 
REMARK    2  A    between atoms: C4_3  and  C5_4 
REMARK    3  A    between atoms: C13_9  and  N2_29 
REMARK    4  A    between atoms: C17_11  and  C19_33 
REMARK    5  A    between atoms: C20_12  and  C16_31 
REMARK    6  A    between atoms: C2_23  and  C3_24 
REMARK    7  A    between atoms: C9_25  and  C12_27 
REMARK       I    between atoms: C12_27  and  N2_29 
ROOT
HETATM    1  C12   D T 801       9.807   5.148   0.334  1.00 44.92     0.279 C 
HETATM    2  O1    D T 801       9.051   6.085   0.149  1.00 47.76    -0.265 OA
HETATM    3  N2    D T 801      10.456   5.028   1.529  1.00 46.59    -0.208 NA
ENDROOT
BRANCH   1   4
HETATM    4  C9    D T 801       9.974   4.125  -0.747  1.00 40.68     0.059 A 
HETATM    5  C8    D T 801      10.699   2.928  -0.569  1.00 40.60     0.004 A 
HETATM    6  C7    D T 801      10.809   1.994  -1.589  1.00 42.33    -0.004 A 
HETATM    7  C6    D T 801      10.208   2.196  -2.819  1.00 44.57    -0.014 A 
HETATM    8  C5    D T 801       9.475   3.378  -3.030  1.00 44.90     0.038 A 
HETATM    9  C11   D T 801      10.358   1.154  -3.897  1.00 40.34     0.032 C 
HETATM   10  C10   D T 801       9.363   4.326  -1.995  1.00 44.55     0.013 A 
BRANCH   8  11
HETATM   11  C4    D T 801       8.812   3.698  -4.260  1.00 43.57    -0.058 C 
HETATM   12  C3    D T 801       8.297   3.991  -5.278  1.00 44.10    -0.039 C 
BRANCH  12  13
HETATM   13  C2    D T 801       7.640   4.285  -6.517  1.00 46.85     0.145 A 
HETATM   14  N82   D T 801       6.914   3.470  -7.353  1.00 45.71    -0.203 N 
HETATM   15  N81   D T 801       6.592   2.107  -7.308  1.00 48.41    -0.162 NA
HETATM   16  C84   D T 801       6.480   4.266  -8.394  1.00 48.08     0.165 A 
HETATM   17  C83   D T 801       5.871   1.571  -8.264  1.00 54.40     0.121 A 
HETATM   18  C82   D T 801       5.412   2.354  -9.340  1.00 53.21     0.026 A 
HETATM   19  C81   D T 801       5.704   3.687  -9.417  1.00 48.83     0.041 A 
HETATM   20  N1    D T 801       6.915   5.503  -8.202  1.00 46.84    -0.223 NA
HETATM   21  C1    D T 801       7.615   5.546  -7.081  1.00 46.95     0.128 A 
ENDBRANCH  12  13
ENDBRANCH   8  11
ENDBRANCH   1   4
BRANCH   3  22
HETATM   22  C13   D T 801      10.344   5.896   2.632  1.00 45.13     0.085 A 
HETATM   23  C14   D T 801      10.038   5.397   3.897  1.00 45.97     0.019 A 
HETATM   24  C15   D T 801       9.883   6.251   4.981  1.00 43.20    -0.001 A 
HETATM   25  C16   D T 801      10.015   7.635   4.841  1.00 40.99     0.015 A 
HETATM   26  C17   D T 801      10.295   8.149   3.554  1.00 44.10     0.071 A 
HETATM   27  C18   D T 801      10.447   7.277   2.472  1.00 42.25     0.023 A 
BRANCH  25  28
HETATM   28  C20   D T 801       9.828   8.535   6.061  1.00 39.15     0.277 C 
BRANCH  28  29
HETATM   29  N3    D T 801       8.437   8.929   6.349  1.00 38.29     0.146 N 
HETATM   30  C21   D T 801       8.356  10.367   6.683  1.00 41.73     0.286 C 
HETATM   31  C22   D T 801       6.912  10.785   6.988  1.00 41.71     0.286 C 
HETATM   32  N4    D T 801       6.367   9.929   8.053  1.00 48.22     0.143 N 
HETATM   33  C23   D T 801       6.393   8.514   7.642  1.00 42.74     0.286 C 
HETATM   34  C25   D T 801       5.016  10.355   8.439  1.00 47.13     0.285 C 
HETATM   35  C24   D T 801       7.851   8.100   7.414  1.00 36.93     0.286 C 
ENDBRANCH  28  29
ENDBRANCH  25  28
BRANCH  26  36
HETATM   36  C19   D T 801      10.453   9.635   3.297  1.00 42.98     0.419 C 
HETATM   37  F1    D T 801       9.252  10.335   3.467  1.00 48.85    -0.166 F 
HETATM   38  F2    D T 801      11.417  10.178   4.150  1.00 43.91    -0.166 F 
HETATM   39  F3    D T 801      10.868   9.801   1.980  1.00 45.50    -0.166 F 
ENDBRANCH  26  36
ENDBRANCH   3  22
TORSDOF 7
ENDMDL
MODEL 6
REMARK VINA RESULT:    -8.326      3.720      4.816
REMARK INTER + INTRA:         -12.720
REMARK INTER:                 -12.847
REMARK INTRA:                   0.127
REMARK UNBOUND:                -0.987
REMARK  7 active torsions:
REMARK  status: ('A' for Active; 'I' for Inactive)
REMARK    1  A    between atoms: N3_2  and  C20_12 
REMARK    2  A    between atoms: C4_3  and  C5_4 
REMARK    3  A    between atoms: C13_9  and  N2_29 
REMARK    4  A    between atoms: C17_11  and  C19_33 
REMARK    5  A    between atoms: C20_12  and  C16_31 
REMARK    6  A    between atoms: C2_23  and  C3_24 
REMARK    7  A    between atoms: C9_25  and  C12_27 
REMARK       I    between atoms: C12_27  and  N2_29 
ROOT
HETATM    1  C12   D T 801      10.204   5.489  -3.074  1.00 44.92     0.279 C 
HETATM    2  O1    D T 801      10.145   6.350  -3.934  1.00 47.76    -0.265 OA
HETATM    3  N2    D T 801      10.486   5.838  -1.785  1.00 46.59    -0.208 NA
ENDROOT
BRANCH   1   4
HETATM    4  C9    D T 801       9.925   4.066  -3.450  1.00 40.68     0.059 A 
HETATM    5  C8    D T 801      10.507   2.966  -2.786  1.00 40.60     0.004 A 
HETATM    6  C7    D T 801      10.203   1.662  -3.149  1.00 42.33    -0.004 A 
HETATM    7  C6    D T 801       9.313   1.388  -4.173  1.00 44.57    -0.014 A 
HETATM    8  C5    D T 801       8.713   2.462  -4.854  1.00 44.90     0.038 A 
HETATM    9  C11   D T 801       9.016  -0.044  -4.534  1.00 40.34     0.032 C 
HETATM   10  C10   D T 801       9.020   3.785  -4.486  1.00 44.55     0.013 A 
BRANCH   8  11
HETATM   11  C4    D T 801       7.779   2.303  -5.932  1.00 43.57    -0.058 C 
HETATM   12  C3    D T 801       7.040   2.192  -6.842  1.00 44.10    -0.039 C 
BRANCH  12  13
HETATM   13  C2    D T 801       6.110   2.005  -7.916  1.00 46.85     0.145 A 
HETATM   14  N82   D T 801       5.453   2.930  -8.693  1.00 45.71    -0.203 N 
HETATM   15  N81   D T 801       5.439   4.331  -8.696  1.00 48.41    -0.162 NA
HETATM   16  C84   D T 801       4.698   2.212  -9.599  1.00 48.08     0.165 A 
HETATM   17  C83   D T 801       4.699   4.978  -9.565  1.00 54.40     0.121 A 
HETATM   18  C82   D T 801       3.917   4.277 -10.503  1.00 53.21     0.026 A 
HETATM   19  C81   D T 801       3.908   2.911 -10.532  1.00 48.83     0.041 A 
HETATM   20  N1    D T 801       4.887   0.918  -9.388  1.00 46.84    -0.223 NA
HETATM   21  C1    D T 801       5.731   0.762  -8.383  1.00 46.95     0.128 A 
ENDBRANCH  12  13
ENDBRANCH   8  11
ENDBRANCH   1   4
BRANCH   3  22
HETATM   22  C13   D T 801      10.720   7.141  -1.303  1.00 45.13     0.085 A 
HETATM   23  C14   D T 801      11.992   7.705  -1.375  1.00 45.97     0.019 A 
HETATM   24  C15   D T 801      12.240   8.972  -0.863  1.00 43.20    -0.001 A 
HETATM   25  C16   D T 801      11.231   9.716  -0.245  1.00 40.99     0.015 A 
HETATM   26  C17   D T 801       9.946   9.136  -0.141  1.00 44.10     0.071 A 
HETATM   27  C18   D T 801       9.712   7.860  -0.662  1.00 42.25     0.023 A 
BRANCH  25  28
HETATM   28  C20   D T 801      11.553  11.102   0.311  1.00 39.15     0.277 C 
BRANCH  28  29
HETATM   29  N3    D T 801      12.931  11.279   0.806  1.00 38.29     0.146 N 
HETATM   30  C21   D T 801      13.793  11.873  -0.238  1.00 41.73     0.286 C 
HETATM   31  C22   D T 801      15.229  12.057   0.268  1.00 41.71     0.286 C 
HETATM   32  N4    D T 801      15.747  10.771   0.759  1.00 48.22     0.143 N 
HETATM   33  C23   D T 801      14.902  10.259   1.853  1.00 42.74     0.286 C 
HETATM   34  C25   D T 801      17.152  10.884   1.169  1.00 47.13     0.285 C 
HETATM   35  C24   D T 801      13.492  10.014   1.305  1.00 36.93     0.286 C 
ENDBRANCH  28  29
ENDBRANCH  25  28
BRANCH  26  36
HETATM   36  C19   D T 801       8.786   9.860   0.513  1.00 42.98     0.419 C 
HETATM   37  F1    D T 801       7.582   9.154   0.393  1.00 48.85    -0.166 F 
HETATM   38  F2    D T 801       9.049  10.078   1.868  1.00 43.91    -0.166 F 
HETATM   39  F3    D T 801       8.633  11.088  -0.122  1.00 45.50    -0.166 F 
ENDBRANCH  26  36
ENDBRANCH   3  22
TORSDOF 7
ENDMDL
MODEL 7
REMARK VINA RESULT:    -8.324      2.282      2.734
REMARK INTER + INTRA:         -12.717
REMARK INTER:                 -11.561
REMARK INTRA:                  -1.156
REMARK UNBOUND:                -0.987
REMARK  7 active torsions:
REMARK  status: ('A' for Active; 'I' for Inactive)
REMARK    1  A    between atoms: N3_2  and  C20_12 
REMARK    2  A    between atoms: C4_3  and  C5_4 
REMARK    3  A    between atoms: C13_9  and  N2_29 
REMARK    4  A    between atoms: C17_11  and  C19_33 
REMARK    5  A    between atoms: C20_12  and  C16_31 
REMARK    6  A    between atoms: C2_23  and  C3_24 
REMARK    7  A    between atoms: C9_25  and  C12_27 
REMARK       I    between atoms: C12_27  and  N2_29 
ROOT
HETATM    1  C12   D T 801      10.551   4.897  -0.072  1.00 44.92     0.279 C 
HETATM    2  O1    D T 801      10.638   4.579   1.100  1.00 47.76    -0.265 OA
HETATM    3  N2    D T 801      10.535   6.219  -0.415  1.00 46.59    -0.208 NA
ENDROOT
BRANCH   1   4
HETATM    4  C9    D T 801      10.503   3.823  -1.115  1.00 40.68     0.059 A 
HETATM    5  C8    D T 801      11.069   2.545  -0.930  1.00 40.60     0.004 A 
HETATM    6  C7    D T 801      10.981   1.569  -1.912  1.00 42.33    -0.004 A 
HETATM    7  C6    D T 801      10.330   1.808  -3.109  1.00 44.57    -0.014 A 
HETATM    8  C5    D T 801       9.752   3.072  -3.326  1.00 44.90     0.038 A 
HETATM    9  C11   D T 801      10.263   0.719  -4.147  1.00 40.34     0.032 C 
HETATM   10  C10   D T 801       9.840   4.062  -2.330  1.00 44.55     0.013 A 
BRANCH   8  11
HETATM   11  C4    D T 801       9.055   3.437  -4.525  1.00 43.57    -0.058 C 
HETATM   12  C3    D T 801       8.507   3.710  -5.532  1.00 44.10    -0.039 C 
BRANCH  12  13
HETATM   13  C2    D T 801       7.788   4.064  -6.719  1.00 46.85     0.145 A 
HETATM   14  N82   D T 801       6.961   3.307  -7.515  1.00 45.71    -0.203 N 
HETATM   15  N81   D T 801       6.563   1.964  -7.468  1.00 48.41    -0.162 NA
HETATM   16  C84   D T 801       6.505   4.146  -8.513  1.00 48.08     0.165 A 
HETATM   17  C83   D T 801       5.750   1.488  -8.381  1.00 54.40     0.121 A 
HETATM   18  C82   D T 801       5.266   2.316  -9.412  1.00 53.21     0.026 A 
HETATM   19  C81   D T 801       5.630   3.631  -9.489  1.00 48.83     0.041 A 
HETATM   20  N1    D T 801       7.024   5.352  -8.333  1.00 46.84    -0.223 NA
HETATM   21  C1    D T 801       7.798   5.334  -7.261  1.00 46.95     0.128 A 
ENDBRANCH  12  13
ENDBRANCH   8  11
ENDBRANCH   1   4
BRANCH   3  22
HETATM   22  C13   D T 801      10.621   7.313   0.467  1.00 45.13     0.085 A 
HETATM   23  C14   D T 801       9.466   7.895   0.987  1.00 45.97     0.019 A 
HETATM   24  C15   D T 801       9.541   9.002   1.823  1.00 43.20    -0.001 A 
HETATM   25  C16   D T 801      10.769   9.578   2.158  1.00 40.99     0.015 A 
HETATM   26  C17   D T 801      11.941   9.011   1.608  1.00 44.10     0.071 A 
HETATM   27  C18   D T 801      11.851   7.897   0.768  1.00 42.25     0.023 A 
BRANCH  25  28
HETATM   28  C20   D T 801      10.800  10.800   3.074  1.00 39.15     0.277 C 
BRANCH  28  29
HETATM   29  N3    D T 801      10.175  10.613   4.397  1.00 38.29     0.146 N 
HETATM   30  C21   D T 801       9.683  11.901   4.932  1.00 41.73     0.286 C 
HETATM   31  C22   D T 801       9.035  11.716   6.310  1.00 41.71     0.286 C 
HETATM   32  N4    D T 801       9.988  11.059   7.218  1.00 48.22     0.143 N 
HETATM   33  C23   D T 801      10.387   9.744   6.682  1.00 42.74     0.286 C 
HETATM   34  C25   D T 801       9.438  10.946   8.575  1.00 47.13     0.285 C 
HETATM   35  C24   D T 801      11.096   9.961   5.341  1.00 36.93     0.286 C 
ENDBRANCH  28  29
ENDBRANCH  25  28
BRANCH  26  36
HETATM   36  C19   D T 801      13.321   9.565   1.908  1.00 42.98     0.419 C 
HETATM   37  F1    D T 801      13.464  10.893   1.485  1.00 48.85    -0.166 F 
HETATM   38  F2    D T 801      13.588   9.495   3.277  1.00 43.91    -0.166 F 
HETATM   39  F3    D T 801      14.251   8.789   1.224  1.00 45.50    -0.166 F 
ENDBRANCH  26  36
ENDBRANCH   3  22
TORSDOF 7
ENDMDL
MODEL 8
REMARK VINA RESULT:    -8.174      2.880     12.513
REMARK INTER + INTRA:         -12.506
REMARK INTER:                 -11.704
REMARK INTRA:                  -0.802
REMARK UNBOUND:                -0.987
REMARK  7 active torsions:
REMARK  status: ('A' for Active; 'I' for Inactive)
REMARK    1  A    between atoms: N3_2  and  C20_12 
REMARK    2  A    between atoms: C4_3  and  C5_4 
REMARK    3  A    between atoms: C13_9  and  N2_29 
REMARK    4  A    between atoms: C17_11  and  C19_33 
REMARK    5  A    between atoms: C20_12  and  C16_31 
REMARK    6  A    between atoms: C2_23  and  C3_24 
REMARK    7  A    between atoms: C9_25  and  C12_27 
REMARK       I    between atoms: C12_27  and  N2_29 
ROOT
HETATM    1  C12   D T 801      10.748   6.117  -1.285  1.00 44.92     0.279 C 
HETATM    2  O1    D T 801      11.339   5.059  -1.166  1.00 47.76    -0.265 OA
HETATM    3  N2    D T 801       9.818   6.265  -2.273  1.00 46.59    -0.208 NA
ENDROOT
BRANCH   1   4
HETATM    4  C9    D T 801      11.031   7.221  -0.312  1.00 40.68     0.059 A 
HETATM    5  C8    D T 801      11.632   8.441  -0.687  1.00 40.60     0.004 A 
HETATM    6  C7    D T 801      11.855   9.449   0.240  1.00 42.33    -0.004 A 
HETATM    7  C6    D T 801      11.491   9.300   1.567  1.00 44.57    -0.014 A 
HETATM    8  C5    D T 801      10.886   8.097   1.974  1.00 44.90     0.038 A 
HETATM    9  C11   D T 801      11.755  10.421   2.539  1.00 40.34     0.032 C 
HETATM   10  C10   D T 801      10.660   7.074   1.034  1.00 44.55     0.013 A 
BRANCH   8  11
HETATM   11  C4    D T 801      10.468   7.827   3.319  1.00 43.57    -0.058 C 
HETATM   12  C3    D T 801      10.143   7.566   4.421  1.00 44.10    -0.039 C 
BRANCH  12  13
HETATM   13  C2    D T 801       9.743   7.317   5.774  1.00 46.85     0.145 A 
HETATM   14  N82   D T 801       8.878   8.011   6.586  1.00 45.71    -0.203 N 
HETATM   15  N81   D T 801       8.126   9.180   6.398  1.00 48.41    -0.162 NA
HETATM   16  C84   D T 801       8.830   7.324   7.783  1.00 48.08     0.165 A 
HETATM   17  C83   D T 801       7.369   9.636   7.367  1.00 54.40     0.121 A 
HETATM   18  C82   D T 801       7.297   8.960   8.600  1.00 53.21     0.026 A 
HETATM   19  C81   D T 801       8.013   7.816   8.819  1.00 48.83     0.041 A 
HETATM   20  N1    D T 801       9.622   6.265   7.704  1.00 46.84    -0.223 NA
HETATM   21  C1    D T 801      10.184   6.234   6.508  1.00 46.95     0.128 A 
ENDBRANCH  12  13
ENDBRANCH   8  11
ENDBRANCH   1   4
BRANCH   3  22
HETATM   22  C13   D T 801       9.433   5.290  -3.213  1.00 45.13     0.085 A 
HETATM   23  C14   D T 801      10.017   5.257  -4.478  1.00 45.97     0.019 A 
HETATM   24  C15   D T 801       9.612   4.326  -5.426  1.00 43.20    -0.001 A 
HETATM   25  C16   D T 801       8.600   3.403  -5.151  1.00 40.99     0.015 A 
HETATM   26  C17   D T 801       7.983   3.451  -3.880  1.00 44.10     0.071 A 
HETATM   27  C18   D T 801       8.401   4.394  -2.936  1.00 42.25     0.023 A 
BRANCH  25  28
HETATM   28  C20   D T 801       8.183   2.403  -6.228  1.00 39.15     0.277 C 
BRANCH  28  29
HETATM   29  N3    D T 801       6.973   2.762  -6.990  1.00 38.29     0.146 N 
HETATM   30  C21   D T 801       6.641   1.712  -7.977  1.00 41.73     0.286 C 
HETATM   31  C22   D T 801       5.386   2.081  -8.777  1.00 41.71     0.286 C 
HETATM   32  N4    D T 801       5.570   3.401  -9.401  1.00 48.22     0.143 N 
HETATM   33  C23   D T 801       5.817   4.428  -8.373  1.00 42.74     0.286 C 
HETATM   34  C25   D T 801       4.426   3.751 -10.252  1.00 47.13     0.285 C 
HETATM   35  C24   D T 801       7.114   4.077  -7.637  1.00 36.93     0.286 C 
ENDBRANCH  28  29
ENDBRANCH  25  28
BRANCH  26  36
HETATM   36  C19   D T 801       6.873   2.495  -3.486  1.00 42.98     0.419 C 
HETATM   37  F1    D T 801       7.143   1.177  -3.877  1.00 48.85    -0.166 F 
HETATM   38  F2    D T 801       6.673   2.524  -2.103  1.00 43.91    -0.166 F 
HETATM   39  F3    D T 801       5.707   2.906  -4.122  1.00 45.50    -0.166 F 
ENDBRANCH  26  36
ENDBRANCH   3  22
TORSDOF 7
ENDMDL
MODEL 9
REMARK VINA RESULT:    -8.081      3.015      4.225
REMARK INTER + INTRA:         -12.375
REMARK INTER:                 -12.176
REMARK INTRA:                  -0.199
REMARK UNBOUND:                -0.987
REMARK  7 active torsions:
REMARK  status: ('A' for Active; 'I' for Inactive)
REMARK    1  A    between atoms: N3_2  and  C20_12 
REMARK    2  A    between atoms: C4_3  and  C5_4 
REMARK    3  A    between atoms: C13_9  and  N2_29 
REMARK    4  A    between atoms: C17_11  and  C19_33 
REMARK    5  A    between atoms: C20_12  and  C16_31 
REMARK    6  A    between atoms: C2_23  and  C3_24 
REMARK    7  A    between atoms: C9_25  and  C12_27 
REMARK       I    between atoms: C12_27  and  N2_29 
ROOT
HETATM    1  C12   D T 801      10.726   3.673  -1.709  1.00 44.92     0.279 C 
HETATM    2  O1    D T 801      11.420   3.192  -0.830  1.00 47.76    -0.265 OA
HETATM    3  N2    D T 801      10.453   5.010  -1.701  1.00 46.59    -0.208 NA
ENDROOT
BRANCH   1   4
HETATM    4  C9    D T 801      10.220   2.783  -2.803  1.00 40.68     0.059 A 
HETATM    5  C8    D T 801      10.593   1.429  -2.929  1.00 40.60     0.004 A 
HETATM    6  C7    D T 801      10.082   0.632  -3.943  1.00 42.33    -0.004 A 
HETATM    7  C6    D T 801       9.182   1.131  -4.867  1.00 44.57    -0.014 A 
HETATM    8  C5    D T 801       8.786   2.477  -4.769  1.00 44.90     0.038 A 
HETATM    9  C11   D T 801       8.656   0.229  -5.953  1.00 40.34     0.032 C 
HETATM   10  C10   D T 801       9.304   3.287  -3.741  1.00 44.55     0.013 A 
BRANCH   8  11
HETATM   11  C4    D T 801       7.863   3.107  -5.669  1.00 43.57    -0.058 C 
HETATM   12  C3    D T 801       7.090   3.585  -6.418  1.00 44.10    -0.039 C 
BRANCH  12  13
HETATM   13  C2    D T 801       6.155   4.226  -7.295  1.00 46.85     0.145 A 
HETATM   14  N82   D T 801       5.454   3.724  -8.365  1.00 45.71    -0.203 N 
HETATM   15  N81   D T 801       5.423   2.462  -8.975  1.00 48.41    -0.162 NA
HETATM   16  C84   D T 801       4.673   4.759  -8.840  1.00 48.08     0.165 A 
HETATM   17  C83   D T 801       4.647   2.254 -10.012  1.00 54.40     0.121 A 
HETATM   18  C82   D T 801       3.838   3.287 -10.522  1.00 53.21     0.026 A 
HETATM   19  C81   D T 801       3.839   4.529  -9.952  1.00 48.83     0.041 A 
HETATM   20  N1    D T 801       4.884   5.835  -8.096  1.00 46.84    -0.223 NA
HETATM   21  C1    D T 801       5.770   5.545  -7.158  1.00 46.95     0.128 A 
ENDBRANCH  12  13
ENDBRANCH   8  11
ENDBRANCH   1   4
BRANCH   3  22
HETATM   22  C13   D T 801      10.908   5.951  -0.757  1.00 45.13     0.085 A 
HETATM   23  C14   D T 801      12.204   5.877  -0.251  1.00 45.97     0.019 A 
HETATM   24  C15   D T 801      12.646   6.774   0.713  1.00 43.20    -0.001 A 
HETATM   25  C16   D T 801      11.806   7.770   1.218  1.00 40.99     0.015 A 
HETATM   26  C17   D T 801      10.480   7.831   0.731  1.00 44.10     0.071 A 
HETATM   27  C18   D T 801      10.049   6.920  -0.239  1.00 42.25     0.023 A 
BRANCH  25  28
HETATM   28  C20   D T 801      12.333   8.730   2.282  1.00 39.15     0.277 C 
BRANCH  28  29
HETATM   29  N3    D T 801      13.452   9.591   1.858  1.00 38.29     0.146 N 
HETATM   30  C21   D T 801      13.420   9.812   0.396  1.00 41.73     0.286 C 
HETATM   31  C22   D T 801      14.584  10.704  -0.054  1.00 41.71     0.286 C 
HETATM   32  N4    D T 801      15.856  10.120   0.398  1.00 48.22     0.143 N 
HETATM   33  C23   D T 801      15.873   9.995   1.866  1.00 42.74     0.286 C 
HETATM   34  C25   D T 801      17.002  10.896  -0.092  1.00 47.13     0.285 C 
HETATM   35  C24   D T 801      14.748   9.042   2.286  1.00 36.93     0.286 C 
ENDBRANCH  28  29
ENDBRANCH  25  28
BRANCH  26  36
HETATM   36  C19   D T 801       9.489   8.872   1.217  1.00 42.98     0.419 C 
HETATM   37  F1    D T 801       9.098   8.653   2.544  1.00 48.85    -0.166 F 
HETATM   38  F2    D T 801      10.038  10.152   1.112  1.00 43.91    -0.166 F 
HETATM   39  F3    D T 801       8.358   8.795   0.413  1.00 45.50    -0.166 F 
ENDBRANCH  26  36
ENDBRANCH   3  22
TORSDOF 7
ENDMDL
