MODEL 1
REMARK VINA RESULT:    -9.841      0.000      0.000
REMARK INTER + INTRA:         -15.150
REMARK INTER:                 -13.868
REMARK INTRA:                  -1.282
REMARK UNBOUND:                -1.282
REMARK  7 active torsions:
REMARK  status: ('A' for Active; 'I' for Inactive)
REMARK    1  A    between atoms: N3_2  and  C20_12 
REMARK    2  A    between atoms: C4_3  and  C5_4 
REMARK    3  A    between atoms: C13_9  and  N2_29 
REMARK    4  A    between atoms: C17_11  and  C19_33 
REMARK    5  A    between atoms: C20_12  and  C16_31 
REMARK    6  A    between atoms: C2_23  and  C3_24 
REMARK    7  A    between atoms: C9_25  and  C12_27 
REMARK       I    between atoms: C12_27  and  N2_29 
ROOT
HETATM    1  C12   D T1001       4.314  13.987  -0.836  1.00 21.80     0.275 C 
HETATM    2  O1    D T1001       3.764  12.911  -1.061  1.00 20.56    -0.266 OA
HETATM    3  N2    D T1001       5.330  14.159   0.048  1.00 21.64    -0.209 NA
ENDROOT
BRANCH   1   4
HETATM    4  C9    D T1001       3.874  15.191  -1.596  1.00 20.47     0.037 A 
HETATM    5  C8    D T1001       2.709  16.006  -1.234  1.00 19.32     0.036 A 
HETATM    6  C7    D T1001       2.371  17.178  -2.040  1.00 17.62     0.028 A 
HETATM    7  C6    D T1001       3.200  17.530  -3.201  1.00 19.91    -0.036 A 
HETATM    8  C5    D T1001       4.368  16.687  -3.538  1.00 19.06     0.034 A 
HETATM    9  C11   D T1001       2.831  18.776  -4.027  1.00 18.27     0.027 C 
HETATM   10  C10   D T1001       4.670  15.561  -2.744  1.00 19.95     0.008 A 
BRANCH   8  11
HETATM   11  C4    D T1001       5.275  16.938  -4.658  1.00 21.50    -0.059 C 
HETATM   12  C3    D T1001       6.115  17.029  -5.511  1.00 21.04    -0.039 C 
BRANCH  12  13
HETATM   13  C2    D T1001       7.145  17.032  -6.430  1.00 21.60     0.145 A 
HETATM   14  N82   D T1001       8.387  16.495  -6.267  1.00 22.53    -0.203 N 
HETATM   15  N81   D T1001       8.866  15.831  -5.155  1.00 22.62    -0.162 NA
HETATM   16  C84   D T1001       9.066  16.783  -7.515  1.00 22.97     0.165 A 
HETATM   17  C83   D T1001      10.140  15.417  -5.304  1.00 23.24     0.121 A 
HETATM   18  C82   D T1001      10.959  15.628  -6.490  1.00 23.56     0.026 A 
HETATM   19  C81   D T1001      10.422  16.307  -7.595  1.00 23.17     0.041 A 
HETATM   20  N1    D T1001       8.274  17.435  -8.345  1.00 21.53    -0.223 NA
HETATM   21  C1    D T1001       7.077  17.595  -7.671  1.00 23.44     0.128 A 
ENDBRANCH  12  13
ENDBRANCH   8  11
ENDBRANCH   1   4
BRANCH   3  22
HETATM   22  C13   D T1001       6.095  13.131   0.688  1.00 24.15     0.081 A 
HETATM   23  C14   D T1001       7.368  12.758   0.132  1.00 25.53    -0.003 A 
HETATM   24  C15   D T1001       8.158  11.722   0.767  1.00 24.42     0.051 A 
HETATM   25  C16   D T1001       7.699  11.042   1.971  1.00 26.01    -0.003 A 
HETATM   26  C17   D T1001       6.382  11.431   2.547  1.00 24.28     0.067 A 
HETATM   27  C18   D T1001       5.632  12.453   1.888  1.00 22.80     0.022 A 
BRANCH  25  28
HETATM   28  C20   D T1001       8.626   9.944   2.591  1.00 28.53     0.273 C 
BRANCH  28  29
HETATM   29  N3    D T1001       9.429  10.387   3.740  1.00 30.48     0.145 N 
HETATM   30  C21   D T1001       9.566   9.354   4.828  1.00 31.29     0.286 C 
HETATM   31  C22   D T1001      10.261   9.977   6.085  1.00 35.47     0.286 C 
HETATM   32  N4    D T1001      11.626  10.470   5.731  1.00 37.17     0.143 N 
HETATM   33  C23   D T1001      11.590  11.496   4.602  1.00 33.99     0.286 C 
HETATM   34  C25   D T1001      12.377  10.911   6.920  1.00 37.63     0.285 C 
HETATM   35  C24   D T1001      10.759  10.989   3.346  1.00 32.15     0.286 C 
ENDBRANCH  28  29
ENDBRANCH  25  28
BRANCH  26  36
HETATM   36  C19   D T1001       5.763  10.811   3.821  1.00 24.31     0.418 C 
HETATM   37  F1    D T1001       4.617  11.427   4.093  1.00 23.22    -0.166 F 
HETATM   38  F2    D T1001       5.497   9.513   3.692  1.00 23.17    -0.166 F 
HETATM   39  F3    D T1001       6.621  10.914   4.839  1.00 25.20    -0.166 F 
ENDBRANCH  26  36
ENDBRANCH   3  22
TORSDOF 7
ENDMDL
MODEL 2
REMARK VINA RESULT:    -9.838      3.623     10.666
REMARK INTER + INTRA:         -15.145
REMARK INTER:                 -13.937
REMARK INTRA:                  -1.208
REMARK UNBOUND:                -1.282
REMARK  7 active torsions:
REMARK  status: ('A' for Active; 'I' for Inactive)
REMARK    1  A    between atoms: N3_2  and  C20_12 
REMARK    2  A    between atoms: C4_3  and  C5_4 
REMARK    3  A    between atoms: C13_9  and  N2_29 
REMARK    4  A    between atoms: C17_11  and  C19_33 
REMARK    5  A    between atoms: C20_12  and  C16_31 
REMARK    6  A    between atoms: C2_23  and  C3_24 
REMARK    7  A    between atoms: C9_25  and  C12_27 
REMARK       I    between atoms: C12_27  and  N2_29 
ROOT
HETATM    1  C12   D T1001       5.543  14.347  -0.355  1.00 21.80     0.275 C 
HETATM    2  O1    D T1001       6.340  15.245  -0.093  1.00 20.56    -0.266 OA
HETATM    3  N2    D T1001       5.034  14.110  -1.591  1.00 21.64    -0.209 NA
ENDROOT
BRANCH   1   4
HETATM    4  C9    D T1001       5.115  13.425   0.735  1.00 20.47     0.037 A 
HETATM    5  C8    D T1001       3.719  13.062   0.998  1.00 19.32     0.036 A 
HETATM    6  C7    D T1001       3.408  12.136   2.087  1.00 17.62     0.028 A 
HETATM    7  C6    D T1001       4.494  11.578   2.904  1.00 19.91    -0.036 A 
HETATM    8  C5    D T1001       5.892  11.966   2.611  1.00 19.06     0.034 A 
HETATM    9  C11   D T1001       4.143  10.596   4.037  1.00 18.27     0.027 C 
HETATM   10  C10   D T1001       6.163  12.862   1.556  1.00 19.95     0.008 A 
BRANCH   8  11
HETATM   11  C4    D T1001       7.059  11.472   3.343  1.00 21.50    -0.059 C 
HETATM   12  C3    D T1001       8.065  11.003   3.799  1.00 21.04    -0.039 C 
BRANCH  12  13
HETATM   13  C2    D T1001       9.254  10.426   4.199  1.00 21.60     0.145 A 
HETATM   14  N82   D T1001      10.508  10.770   3.789  1.00 22.53    -0.203 N 
HETATM   15  N81   D T1001      10.847  11.772   2.901  1.00 22.62    -0.162 NA
HETATM   16  C84   D T1001      11.378   9.853   4.498  1.00 22.97     0.165 A 
HETATM   17  C83   D T1001      12.177  11.864   2.703  1.00 23.24     0.121 A 
HETATM   18  C82   D T1001      13.182  11.019   3.334  1.00 23.56     0.026 A 
HETATM   19  C81   D T1001      12.783  10.018   4.232  1.00 23.17     0.041 A 
HETATM   20  N1    D T1001      10.681   9.038   5.268  1.00 21.53    -0.223 NA
HETATM   21  C1    D T1001       9.357   9.389   5.080  1.00 23.44     0.128 A 
ENDBRANCH  12  13
ENDBRANCH   8  11
ENDBRANCH   1   4
BRANCH   3  22
HETATM   22  C13   D T1001       5.485  14.674  -2.828  1.00 24.15     0.081 A 
HETATM   23  C14   D T1001       6.542  14.019  -3.550  1.00 25.53    -0.003 A 
HETATM   24  C15   D T1001       7.011  14.571  -4.805  1.00 24.42     0.051 A 
HETATM   25  C16   D T1001       6.431  15.783  -5.369  1.00 26.01    -0.003 A 
HETATM   26  C17   D T1001       5.335  16.459  -4.622  1.00 24.28     0.067 A 
HETATM   27  C18   D T1001       4.905  15.884  -3.387  1.00 22.80     0.022 A 
BRANCH  25  28
HETATM   28  C20   D T1001       6.996  16.299  -6.735  1.00 28.53     0.273 C 
BRANCH  28  29
HETATM   29  N3    D T1001       8.460  16.418  -6.794  1.00 30.48     0.145 N 
HETATM   30  C21   D T1001       9.073  15.833  -8.039  1.00 31.29     0.286 C 
HETATM   31  C22   D T1001      10.635  15.825  -7.925  1.00 35.47     0.286 C 
HETATM   32  N4    D T1001      11.148  17.217  -7.758  1.00 37.17     0.143 N 
HETATM   33  C23   D T1001      10.547  17.909  -6.537  1.00 33.99     0.286 C 
HETATM   34  C25   D T1001      12.620  17.271  -7.814  1.00 37.63     0.285 C 
HETATM   35  C24   D T1001       8.961  17.815  -6.506  1.00 32.15     0.286 C 
ENDBRANCH  28  29
ENDBRANCH  25  28
BRANCH  26  36
HETATM   36  C19   D T1001       4.613  17.744  -5.091  1.00 24.31     0.418 C 
HETATM   37  F1    D T1001       5.503  18.721  -5.223  1.00 23.22    -0.166 F 
HETATM   38  F2    D T1001       4.004  17.598  -6.266  1.00 23.17    -0.166 F 
HETATM   39  F3    D T1001       3.658  18.073  -4.218  1.00 25.20    -0.166 F 
ENDBRANCH  26  36
ENDBRANCH   3  22
TORSDOF 7
ENDMDL
MODEL 3
REMARK VINA RESULT:    -9.743      3.979     10.186
REMARK INTER + INTRA:         -15.011
REMARK INTER:                 -13.969
REMARK INTRA:                  -1.042
REMARK UNBOUND:                -1.282
REMARK  7 active torsions:
REMARK  status: ('A' for Active; 'I' for Inactive)
REMARK    1  A    between atoms: N3_2  and  C20_12 
REMARK    2  A    between atoms: C4_3  and  C5_4 
REMARK    3  A    between atoms: C13_9  and  N2_29 
REMARK    4  A    between atoms: C17_11  and  C19_33 
REMARK    5  A    between atoms: C20_12  and  C16_31 
REMARK    6  A    between atoms: C2_23  and  C3_24 
REMARK    7  A    between atoms: C9_25  and  C12_27 
REMARK       I    between atoms: C12_27  and  N2_29 
ROOT
HETATM    1  C12   D T1001       3.607  14.746  -1.667  1.00 21.80     0.275 C 
HETATM    2  O1    D T1001       2.865  15.695  -1.909  1.00 20.56    -0.266 OA
HETATM    3  N2    D T1001       4.808  14.539  -2.264  1.00 21.64    -0.209 NA
ENDROOT
BRANCH   1   4
HETATM    4  C9    D T1001       3.196  13.759  -0.627  1.00 20.47     0.037 A 
HETATM    5  C8    D T1001       1.846  13.194  -0.525  1.00 19.32     0.036 A 
HETATM    6  C7    D T1001       1.551  12.221   0.526  1.00 17.62     0.028 A 
HETATM    7  C6    D T1001       2.605  11.819   1.467  1.00 19.91    -0.036 A 
HETATM    8  C5    D T1001       3.956  12.409   1.335  1.00 19.06     0.034 A 
HETATM    9  C11   D T1001       2.273  10.783   2.558  1.00 18.27     0.027 C 
HETATM   10  C10   D T1001       4.212  13.347   0.313  1.00 19.95     0.008 A 
BRANCH   8  11
HETATM   11  C4    D T1001       5.090  12.082   2.200  1.00 21.50    -0.059 C 
HETATM   12  C3    D T1001       6.098  11.769   2.771  1.00 21.04    -0.039 C 
BRANCH  12  13
HETATM   13  C2    D T1001       7.310  11.383   3.307  1.00 21.60     0.145 A 
HETATM   14  N82   D T1001       8.549  11.734   2.861  1.00 22.53    -0.203 N 
HETATM   15  N81   D T1001       8.846  12.555   1.791  1.00 22.62    -0.162 NA
HETATM   16  C84   D T1001       9.458  11.055   3.764  1.00 22.97     0.165 A 
HETATM   17  C83   D T1001      10.172  12.710   1.605  1.00 23.24     0.121 A 
HETATM   18  C82   D T1001      11.212  12.096   2.420  1.00 23.56     0.026 A 
HETATM   19  C81   D T1001      10.856  11.273   3.499  1.00 23.17     0.041 A 
HETATM   20  N1    D T1001       8.794  10.364   4.672  1.00 21.53    -0.223 NA
HETATM   21  C1    D T1001       7.456  10.562   4.388  1.00 23.44     0.128 A 
ENDBRANCH  12  13
ENDBRANCH   8  11
ENDBRANCH   1   4
BRANCH   3  22
HETATM   22  C13   D T1001       5.532  15.466  -3.081  1.00 24.15     0.081 A 
HETATM   23  C14   D T1001       6.648  16.174  -2.514  1.00 25.53    -0.003 A 
HETATM   24  C15   D T1001       7.395  17.114  -3.324  1.00 24.42     0.051 A 
HETATM   25  C16   D T1001       7.050  17.363  -4.718  1.00 26.01    -0.003 A 
HETATM   26  C17   D T1001       5.896  16.628  -5.305  1.00 24.28     0.067 A 
HETATM   27  C18   D T1001       5.183  15.713  -4.471  1.00 22.80     0.022 A 
BRANCH  25  28
HETATM   28  C20   D T1001       7.921  18.389  -5.517  1.00 28.53     0.273 C 
BRANCH  28  29
HETATM   29  N3    D T1001       9.202  17.862  -6.010  1.00 30.48     0.145 N 
HETATM   30  C21   D T1001       9.371  16.378  -5.818  1.00 31.29     0.286 C 
HETATM   31  C22   D T1001      10.829  15.943  -6.186  1.00 35.47     0.286 C 
HETATM   32  N4    D T1001      11.122  16.268  -7.614  1.00 37.17     0.143 N 
HETATM   33  C23   D T1001      10.936  17.753  -7.914  1.00 33.99     0.286 C 
HETATM   34  C25   D T1001      12.421  15.725  -8.046  1.00 37.63     0.285 C 
HETATM   35  C24   D T1001       9.529  18.302  -7.419  1.00 32.15     0.286 C 
ENDBRANCH  28  29
ENDBRANCH  25  28
BRANCH  26  36
HETATM   36  C19   D T1001       5.411  16.775  -6.767  1.00 24.31     0.418 C 
HETATM   37  F1    D T1001       4.737  17.913  -6.890  1.00 23.22    -0.166 F 
HETATM   38  F2    D T1001       6.411  16.806  -7.645  1.00 23.17    -0.166 F 
HETATM   39  F3    D T1001       4.657  15.726  -7.102  1.00 25.20    -0.166 F 
ENDBRANCH  26  36
ENDBRANCH   3  22
TORSDOF 7
ENDMDL
MODEL 4
REMARK VINA RESULT:    -9.697      3.781     10.302
REMARK INTER + INTRA:         -14.946
REMARK INTER:                 -13.550
REMARK INTRA:                  -1.397
REMARK UNBOUND:                -1.282
REMARK  7 active torsions:
REMARK  status: ('A' for Active; 'I' for Inactive)
REMARK    1  A    between atoms: N3_2  and  C20_12 
REMARK    2  A    between atoms: C4_3  and  C5_4 
REMARK    3  A    between atoms: C13_9  and  N2_29 
REMARK    4  A    between atoms: C17_11  and  C19_33 
REMARK    5  A    between atoms: C20_12  and  C16_31 
REMARK    6  A    between atoms: C2_23  and  C3_24 
REMARK    7  A    between atoms: C9_25  and  C12_27 
REMARK       I    between atoms: C12_27  and  N2_29 
ROOT
HETATM    1  C12   D T1001       3.963  15.617  -2.460  1.00 21.80     0.275 C 
HETATM    2  O1    D T1001       3.968  16.845  -2.469  1.00 20.56    -0.266 OA
HETATM    3  N2    D T1001       4.638  14.840  -3.346  1.00 21.64    -0.209 NA
ENDROOT
BRANCH   1   4
HETATM    4  C9    D T1001       3.197  14.909  -1.395  1.00 20.47     0.037 A 
HETATM    5  C8    D T1001       1.734  14.935  -1.285  1.00 19.32     0.036 A 
HETATM    6  C7    D T1001       1.080  14.194  -0.207  1.00 17.62     0.028 A 
HETATM    7  C6    D T1001       1.890  13.431   0.752  1.00 19.91    -0.036 A 
HETATM    8  C5    D T1001       3.363  13.426   0.612  1.00 19.06     0.034 A 
HETATM    9  C11   D T1001       1.177  12.649   1.871  1.00 18.27     0.027 C 
HETATM   10  C10   D T1001       3.968  14.152  -0.436  1.00 19.95     0.008 A 
BRANCH   8  11
HETATM   11  C4    D T1001       4.276  12.698   1.493  1.00 21.50    -0.059 C 
HETATM   12  C3    D T1001       5.145  12.186   2.144  1.00 21.04    -0.039 C 
BRANCH  12  13
HETATM   13  C2    D T1001       6.230  11.679   2.829  1.00 21.60     0.145 A 
HETATM   14  N82   D T1001       7.547  11.922   2.570  1.00 22.53    -0.203 N 
HETATM   15  N81   D T1001       8.062  12.732   1.578  1.00 22.62    -0.162 NA
HETATM   16  C84   D T1001       8.256  11.145   3.567  1.00 22.97     0.165 A 
HETATM   17  C83   D T1001       9.410  12.767   1.582  1.00 23.24     0.121 A 
HETATM   18  C82   D T1001      10.267  12.043   2.512  1.00 23.56     0.026 A 
HETATM   19  C81   D T1001       9.690  11.237   3.504  1.00 23.17     0.041 A 
HETATM   20  N1    D T1001       7.412  10.500   4.352  1.00 21.53    -0.223 NA
HETATM   21  C1    D T1001       6.150  10.828   3.893  1.00 23.44     0.128 A 
ENDBRANCH  12  13
ENDBRANCH   8  11
ENDBRANCH   1   4
BRANCH   3  22
HETATM   22  C13   D T1001       5.639  15.269  -4.276  1.00 24.15     0.081 A 
HETATM   23  C14   D T1001       5.232  15.733  -5.575  1.00 25.53    -0.003 A 
HETATM   24  C15   D T1001       6.229  16.175  -6.530  1.00 24.42     0.051 A 
HETATM   25  C16   D T1001       7.649  16.170  -6.206  1.00 26.01    -0.003 A 
HETATM   26  C17   D T1001       8.069  15.692  -4.860  1.00 24.28     0.067 A 
HETATM   27  C18   D T1001       7.056  15.261  -3.950  1.00 22.80     0.022 A 
BRANCH  25  28
HETATM   28  C20   D T1001       8.651  16.675  -7.298  1.00 28.53     0.273 C 
BRANCH  28  29
HETATM   29  N3    D T1001       9.186  18.025  -7.071  1.00 30.48     0.145 N 
HETATM   30  C21   D T1001      10.585  18.227  -7.591  1.00 31.29     0.286 C 
HETATM   31  C22   D T1001      11.142  19.616  -7.133  1.00 35.47     0.286 C 
HETATM   32  N4    D T1001      10.282  20.718  -7.659  1.00 37.17     0.143 N 
HETATM   33  C23   D T1001       8.829  20.574  -7.215  1.00 33.99     0.286 C 
HETATM   34  C25   D T1001      10.863  22.045  -7.391  1.00 37.63     0.285 C 
HETATM   35  C24   D T1001       8.245  19.125  -7.507  1.00 32.15     0.286 C 
ENDBRANCH  28  29
ENDBRANCH  25  28
BRANCH  26  36
HETATM   36  C19   D T1001       9.533  15.635  -4.364  1.00 24.31     0.418 C 
HETATM   37  F1    D T1001      10.209  14.760  -5.100  1.00 23.22    -0.166 F 
HETATM   38  F2    D T1001      10.160  16.805  -4.461  1.00 23.17    -0.166 F 
HETATM   39  F3    D T1001       9.562  15.305  -3.071  1.00 25.20    -0.166 F 
ENDBRANCH  26  36
ENDBRANCH   3  22
TORSDOF 7
ENDMDL
MODEL 5
REMARK VINA RESULT:    -9.547      4.437     10.283
REMARK INTER + INTRA:         -14.736
REMARK INTER:                 -13.880
REMARK INTRA:                  -0.856
REMARK UNBOUND:                -1.282
REMARK  7 active torsions:
REMARK  status: ('A' for Active; 'I' for Inactive)
REMARK    1  A    between atoms: N3_2  and  C20_12 
REMARK    2  A    between atoms: C4_3  and  C5_4 
REMARK    3  A    between atoms: C13_9  and  N2_29 
REMARK    4  A    between atoms: C17_11  and  C19_33 
REMARK    5  A    between atoms: C20_12  and  C16_31 
REMARK    6  A    between atoms: C2_23  and  C3_24 
REMARK    7  A    between atoms: C9_25  and  C12_27 
REMARK       I    between atoms: C12_27  and  N2_29 
ROOT
HETATM    1  C12   D T1001       4.130  15.375  -2.710  1.00 21.80     0.275 C 
HETATM    2  O1    D T1001       3.962  16.555  -3.011  1.00 20.56    -0.266 OA
HETATM    3  N2    D T1001       5.072  14.570  -3.263  1.00 21.64    -0.209 NA
ENDROOT
BRANCH   1   4
HETATM    4  C9    D T1001       3.273  14.775  -1.648  1.00 20.47     0.037 A 
HETATM    5  C8    D T1001       1.810  14.875  -1.623  1.00 19.32     0.036 A 
HETATM    6  C7    D T1001       1.063  14.238  -0.540  1.00 17.62     0.028 A 
HETATM    7  C6    D T1001       1.781  13.503   0.510  1.00 19.91    -0.036 A 
HETATM    8  C5    D T1001       3.258  13.422   0.454  1.00 19.06     0.034 A 
HETATM    9  C11   D T1001       0.971  12.829   1.633  1.00 18.27     0.027 C 
HETATM   10  C10   D T1001       3.953  14.048  -0.601  1.00 19.95     0.008 A 
BRANCH   8  11
HETATM   11  C4    D T1001       4.085  12.712   1.431  1.00 21.50    -0.059 C 
HETATM   12  C3    D T1001       4.892  12.193   2.151  1.00 21.04    -0.039 C 
BRANCH  12  13
HETATM   13  C2    D T1001       5.915  11.661   2.910  1.00 21.60     0.145 A 
HETATM   14  N82   D T1001       7.250  11.891   2.758  1.00 22.53    -0.203 N 
HETATM   15  N81   D T1001       7.851  12.712   1.823  1.00 22.62    -0.162 NA
HETATM   16  C84   D T1001       7.871  11.088   3.793  1.00 22.97     0.165 A 
HETATM   17  C83   D T1001       9.195  12.729   1.933  1.00 23.24     0.121 A 
HETATM   18  C82   D T1001       9.968  11.979   2.913  1.00 23.56     0.026 A 
HETATM   19  C81   D T1001       9.307  11.163   3.844  1.00 23.17     0.041 A 
HETATM   20  N1    D T1001       6.961  10.441   4.499  1.00 21.53    -0.223 NA
HETATM   21  C1    D T1001       5.742  10.792   3.949  1.00 23.44     0.128 A 
ENDBRANCH  12  13
ENDBRANCH   8  11
ENDBRANCH   1   4
BRANCH   3  22
HETATM   22  C13   D T1001       6.168  14.974  -4.092  1.00 24.15     0.081 A 
HETATM   23  C14   D T1001       7.487  14.483  -3.794  1.00 25.53    -0.003 A 
HETATM   24  C15   D T1001       8.609  14.877  -4.622  1.00 24.42     0.051 A 
HETATM   25  C16   D T1001       8.438  15.762  -5.767  1.00 26.01    -0.003 A 
HETATM   26  C17   D T1001       7.073  16.268  -6.075  1.00 24.28     0.067 A 
HETATM   27  C18   D T1001       5.994  15.859  -5.232  1.00 22.80     0.022 A 
BRANCH  25  28
HETATM   28  C20   D T1001       9.708  16.125  -6.608  1.00 28.53     0.273 C 
BRANCH  28  29
HETATM   29  N3    D T1001      10.288  17.444  -6.317  1.00 30.48     0.145 N 
HETATM   30  C21   D T1001      10.268  18.395  -7.485  1.00 31.29     0.286 C 
HETATM   31  C22   D T1001      11.078  19.691  -7.146  1.00 35.47     0.286 C 
HETATM   32  N4    D T1001      10.477  20.383  -5.967  1.00 37.17     0.143 N 
HETATM   33  C23   D T1001      10.417  19.478  -4.739  1.00 33.99     0.286 C 
HETATM   34  C25   D T1001      11.106  21.692  -5.719  1.00 37.63     0.285 C 
HETATM   35  C24   D T1001       9.746  18.072  -5.053  1.00 32.15     0.286 C 
ENDBRANCH  28  29
ENDBRANCH  25  28
BRANCH  26  36
HETATM   36  C19   D T1001       6.728  17.205  -7.257  1.00 24.31     0.418 C 
HETATM   37  F1    D T1001       5.433  17.098  -7.534  1.00 23.22    -0.166 F 
HETATM   38  F2    D T1001       6.975  18.486  -6.993  1.00 23.17    -0.166 F 
HETATM   39  F3    D T1001       7.477  16.893  -8.317  1.00 25.20    -0.166 F 
ENDBRANCH  26  36
ENDBRANCH   3  22
TORSDOF 7
ENDMDL
MODEL 6
REMARK VINA RESULT:    -9.489      5.188     11.653
REMARK INTER + INTRA:         -14.654
REMARK INTER:                 -13.528
REMARK INTRA:                  -1.126
REMARK UNBOUND:                -1.282
REMARK  7 active torsions:
REMARK  status: ('A' for Active; 'I' for Inactive)
REMARK    1  A    between atoms: N3_2  and  C20_12 
REMARK    2  A    between atoms: C4_3  and  C5_4 
REMARK    3  A    between atoms: C13_9  and  N2_29 
REMARK    4  A    between atoms: C17_11  and  C19_33 
REMARK    5  A    between atoms: C20_12  and  C16_31 
REMARK    6  A    between atoms: C2_23  and  C3_24 
REMARK    7  A    between atoms: C9_25  and  C12_27 
REMARK       I    between atoms: C12_27  and  N2_29 
ROOT
HETATM    1  C12   D T1001       6.401  13.866  -2.599  1.00 21.80     0.275 C 
HETATM    2  O1    D T1001       5.647  13.470  -3.485  1.00 20.56    -0.266 OA
HETATM    3  N2    D T1001       7.395  14.771  -2.785  1.00 21.64    -0.209 NA
ENDROOT
BRANCH   1   4
HETATM    4  C9    D T1001       6.210  13.355  -1.212  1.00 20.47     0.037 A 
HETATM    5  C8    D T1001       7.308  12.918  -0.342  1.00 19.32     0.036 A 
HETATM    6  C7    D T1001       7.012  12.445   1.009  1.00 17.62     0.028 A 
HETATM    7  C6    D T1001       5.622  12.413   1.484  1.00 19.91    -0.036 A 
HETATM    8  C5    D T1001       4.538  12.861   0.581  1.00 19.06     0.034 A 
HETATM    9  C11   D T1001       5.336  11.922   2.916  1.00 18.27     0.027 C 
HETATM   10  C10   D T1001       4.852  13.310  -0.718  1.00 19.95     0.008 A 
BRANCH   8  11
HETATM   11  C4    D T1001       3.120  12.888   0.940  1.00 21.50    -0.059 C 
HETATM   12  C3    D T1001       1.966  13.072   1.213  1.00 21.04    -0.039 C 
BRANCH  12  13
HETATM   13  C2    D T1001       0.660  13.415   1.500  1.00 21.60     0.145 A 
HETATM   14  N82   D T1001      -0.391  13.426   0.633  1.00 22.53    -0.203 N 
HETATM   15  N81   D T1001      -0.368  13.086  -0.706  1.00 22.62    -0.162 NA
HETATM   16  C84   D T1001      -1.513  13.867   1.437  1.00 22.97     0.165 A 
HETATM   17  C83   D T1001      -1.576  13.199  -1.293  1.00 23.24     0.121 A 
HETATM   18  C82   D T1001      -2.798  13.630  -0.627  1.00 23.56     0.026 A 
HETATM   19  C81   D T1001      -2.767  13.960   0.737  1.00 23.17     0.041 A 
HETATM   20  N1    D T1001      -1.141  14.091   2.684  1.00 21.53    -0.223 NA
HETATM   21  C1    D T1001       0.212  13.815   2.726  1.00 23.44     0.128 A 
ENDBRANCH  12  13
ENDBRANCH   8  11
ENDBRANCH   1   4
BRANCH   3  22
HETATM   22  C13   D T1001       7.604  15.592  -3.940  1.00 24.15     0.081 A 
HETATM   23  C14   D T1001       6.669  16.648  -4.224  1.00 25.53    -0.003 A 
HETATM   24  C15   D T1001       6.863  17.493  -5.386  1.00 24.42     0.051 A 
HETATM   25  C16   D T1001       7.996  17.306  -6.283  1.00 26.01    -0.003 A 
HETATM   26  C17   D T1001       8.964  16.214  -5.987  1.00 24.28     0.067 A 
HETATM   27  C18   D T1001       8.734  15.402  -4.834  1.00 22.80     0.022 A 
BRANCH  25  28
HETATM   28  C20   D T1001       8.128  18.273  -7.507  1.00 28.53     0.273 C 
BRANCH  28  29
HETATM   29  N3    D T1001       8.351  19.684  -7.160  1.00 30.48     0.145 N 
HETATM   30  C21   D T1001       9.797  20.105  -7.194  1.00 31.29     0.286 C 
HETATM   31  C22   D T1001       9.956  21.554  -6.623  1.00 35.47     0.286 C 
HETATM   32  N4    D T1001       9.166  22.522  -7.439  1.00 37.17     0.143 N 
HETATM   33  C23   D T1001       7.686  22.152  -7.497  1.00 33.99     0.286 C 
HETATM   34  C25   D T1001       9.421  23.917  -7.038  1.00 37.63     0.285 C 
HETATM   35  C24   D T1001       7.455  20.638  -7.918  1.00 32.15     0.286 C 
ENDBRANCH  28  29
ENDBRANCH  25  28
BRANCH  26  36
HETATM   36  C19   D T1001      10.217  15.895  -6.836  1.00 24.31     0.418 C 
HETATM   37  F1    D T1001      10.962  15.001  -6.195  1.00 23.22    -0.166 F 
HETATM   38  F2    D T1001       9.920  15.386  -8.029  1.00 23.17    -0.166 F 
HETATM   39  F3    D T1001      10.903  17.017  -7.071  1.00 25.20    -0.166 F 
ENDBRANCH  26  36
ENDBRANCH   3  22
TORSDOF 7
ENDMDL
MODEL 7
REMARK VINA RESULT:    -9.465      4.837     11.396
REMARK INTER + INTRA:         -14.620
REMARK INTER:                 -13.505
REMARK INTRA:                  -1.115
REMARK UNBOUND:                -1.282
REMARK  7 active torsions:
REMARK  status: ('A' for Active; 'I' for Inactive)
REMARK    1  A    between atoms: N3_2  and  C20_12 
REMARK    2  A    between atoms: C4_3  and  C5_4 
REMARK    3  A    between atoms: C13_9  and  N2_29 
REMARK    4  A    between atoms: C17_11  and  C19_33 
REMARK    5  A    between atoms: C20_12  and  C16_31 
REMARK    6  A    between atoms: C2_23  and  C3_24 
REMARK    7  A    between atoms: C9_25  and  C12_27 
REMARK       I    between atoms: C12_27  and  N2_29 
ROOT
HETATM    1  C12   D T1001       6.210  13.427  -2.354  1.00 21.80     0.275 C 
HETATM    2  O1    D T1001       5.493  12.961  -3.236  1.00 20.56    -0.266 OA
HETATM    3  N2    D T1001       7.147  14.389  -2.555  1.00 21.64    -0.209 NA
ENDROOT
BRANCH   1   4
HETATM    4  C9    D T1001       6.038  12.941  -0.955  1.00 20.47     0.037 A 
HETATM    5  C8    D T1001       7.131  12.410  -0.133  1.00 19.32     0.036 A 
HETATM    6  C7    D T1001       6.855  11.971   1.234  1.00 17.62     0.028 A 
HETATM    7  C6    D T1001       5.491  12.066   1.772  1.00 19.91    -0.036 A 
HETATM    8  C5    D T1001       4.412  12.607   0.915  1.00 19.06     0.034 A 
HETATM    9  C11   D T1001       5.229  11.610   3.219  1.00 18.27     0.027 C 
HETATM   10  C10   D T1001       4.706  13.021  -0.401  1.00 19.95     0.008 A 
BRANCH   8  11
HETATM   11  C4    D T1001       3.020  12.763   1.337  1.00 21.50    -0.059 C 
HETATM   12  C3    D T1001       1.869  13.010   1.570  1.00 21.04    -0.039 C 
BRANCH  12  13
HETATM   13  C2    D T1001       0.551  13.383   1.737  1.00 21.60     0.145 A 
HETATM   14  N82   D T1001      -0.425  13.383   0.786  1.00 22.53    -0.203 N 
HETATM   15  N81   D T1001      -0.298  13.001  -0.535  1.00 22.62    -0.162 NA
HETATM   16  C84   D T1001      -1.601  13.868   1.481  1.00 22.97     0.165 A 
HETATM   17  C83   D T1001      -1.452  13.115  -1.224  1.00 23.24     0.121 A 
HETATM   18  C82   D T1001      -2.716  13.587  -0.674  1.00 23.56     0.026 A 
HETATM   19  C81   D T1001      -2.791  13.959   0.676  1.00 23.17     0.041 A 
HETATM   20  N1    D T1001      -1.329  14.126   2.747  1.00 21.53    -0.223 NA
HETATM   21  C1    D T1001       0.011  13.829   2.909  1.00 23.44     0.128 A 
ENDBRANCH  12  13
ENDBRANCH   8  11
ENDBRANCH   1   4
BRANCH   3  22
HETATM   22  C13   D T1001       7.314  15.192  -3.729  1.00 24.15     0.081 A 
HETATM   23  C14   D T1001       8.561  15.131  -4.445  1.00 25.53    -0.003 A 
HETATM   24  C15   D T1001       8.750  15.933  -5.637  1.00 24.42     0.051 A 
HETATM   25  C16   D T1001       7.698  16.806  -6.144  1.00 26.01    -0.003 A 
HETATM   26  C17   D T1001       6.408  16.866  -5.404  1.00 24.28     0.067 A 
HETATM   27  C18   D T1001       6.264  16.063  -4.231  1.00 22.80     0.022 A 
BRANCH  25  28
HETATM   28  C20   D T1001       7.991  17.626  -7.445  1.00 28.53     0.273 C 
BRANCH  28  29
HETATM   29  N3    D T1001       8.747  18.870  -7.235  1.00 30.48     0.145 N 
HETATM   30  C21   D T1001      10.201  18.775  -7.614  1.00 31.29     0.286 C 
HETATM   31  C22   D T1001      10.964  20.070  -7.175  1.00 35.47     0.286 C 
HETATM   32  N4    D T1001      10.380  21.268  -7.849  1.00 37.17     0.143 N 
HETATM   33  C23   D T1001       8.891  21.424  -7.555  1.00 33.99     0.286 C 
HETATM   34  C25   D T1001      11.173  22.483  -7.594  1.00 37.63     0.285 C 
HETATM   35  C24   D T1001       8.075  20.088  -7.829  1.00 32.15     0.286 C 
ENDBRANCH  28  29
ENDBRANCH  25  28
BRANCH  26  36
HETATM   36  C19   D T1001       5.196  17.733  -5.818  1.00 24.31     0.418 C 
HETATM   37  F1    D T1001       5.613  18.967  -6.083  1.00 23.22    -0.166 F 
HETATM   38  F2    D T1001       4.579  17.278  -6.906  1.00 23.17    -0.166 F 
HETATM   39  F3    D T1001       4.282  17.730  -4.845  1.00 25.20    -0.166 F 
ENDBRANCH  26  36
ENDBRANCH   3  22
TORSDOF 7
ENDMDL
MODEL 8
REMARK VINA RESULT:    -9.229      4.325     11.245
REMARK INTER + INTRA:         -14.288
REMARK INTER:                 -13.148
REMARK INTRA:                  -1.140
REMARK UNBOUND:                -1.282
REMARK  7 active torsions:
REMARK  status: ('A' for Active; 'I' for Inactive)
REMARK    1  A    between atoms: N3_2  and  C20_12 
REMARK    2  A    between atoms: C4_3  and  C5_4 
REMARK    3  A    between atoms: C13_9  and  N2_29 
REMARK    4  A    between atoms: C17_11  and  C19_33 
REMARK    5  A    between atoms: C20_12  and  C16_31 
REMARK    6  A    between atoms: C2_23  and  C3_24 
REMARK    7  A    between atoms: C9_25  and  C12_27 
REMARK       I    between atoms: C12_27  and  N2_29 
ROOT
HETATM    1  C12   D T1001       4.760  15.951  -2.401  1.00 21.80     0.275 C 
HETATM    2  O1    D T1001       5.262  16.949  -1.890  1.00 20.56    -0.266 OA
HETATM    3  N2    D T1001       4.758  15.689  -3.733  1.00 21.64    -0.209 NA
ENDROOT
BRANCH   1   4
HETATM    4  C9    D T1001       4.132  14.929  -1.516  1.00 20.47     0.037 A 
HETATM    5  C8    D T1001       2.756  14.446  -1.672  1.00 19.32     0.036 A 
HETATM    6  C7    D T1001       2.241  13.430  -0.756  1.00 17.62     0.028 A 
HETATM    7  C6    D T1001       3.104  12.901   0.310  1.00 19.91    -0.036 A 
HETATM    8  C5    D T1001       4.487  13.411   0.439  1.00 19.06     0.034 A 
HETATM    9  C11   D T1001       2.543  11.822   1.255  1.00 18.27     0.027 C 
HETATM   10  C10   D T1001       4.957  14.393  -0.458  1.00 19.95     0.008 A 
BRANCH   8  11
HETATM   11  C4    D T1001       5.445  12.958   1.448  1.00 21.50    -0.059 C 
HETATM   12  C3    D T1001       6.215  12.437   2.207  1.00 21.04    -0.039 C 
BRANCH  12  13
HETATM   13  C2    D T1001       7.083  11.725   3.010  1.00 21.60     0.145 A 
HETATM   14  N82   D T1001       8.445  11.756   2.971  1.00 22.53    -0.203 N 
HETATM   15  N81   D T1001       9.235  12.514   2.128  1.00 22.62    -0.162 NA
HETATM   16  C84   D T1001       8.854  10.826   4.004  1.00 22.97     0.165 A 
HETATM   17  C83   D T1001      10.553  12.323   2.337  1.00 23.24     0.121 A 
HETATM   18  C82   D T1001      11.124  11.424   3.332  1.00 23.56     0.026 A 
HETATM   19  C81   D T1001      10.276  10.680   4.166  1.00 23.17     0.041 A 
HETATM   20  N1    D T1001       7.804  10.296   4.605  1.00 21.53    -0.223 NA
HETATM   21  C1    D T1001       6.699  10.851   3.986  1.00 23.44     0.128 A 
ENDBRANCH  12  13
ENDBRANCH   8  11
ENDBRANCH   1   4
BRANCH   3  22
HETATM   22  C13   D T1001       5.516  16.367  -4.742  1.00 24.15     0.081 A 
HETATM   23  C14   D T1001       4.972  17.555  -5.343  1.00 25.53    -0.003 A 
HETATM   24  C15   D T1001       5.724  18.258  -6.364  1.00 24.42     0.051 A 
HETATM   25  C16   D T1001       7.035  17.794  -6.801  1.00 26.01    -0.003 A 
HETATM   26  C17   D T1001       7.597  16.566  -6.176  1.00 24.28     0.067 A 
HETATM   27  C18   D T1001       6.822  15.901  -5.177  1.00 22.80     0.022 A 
BRANCH  25  28
HETATM   28  C20   D T1001       7.776  18.624  -7.902  1.00 28.53     0.273 C 
BRANCH  28  29
HETATM   29  N3    D T1001       7.995  20.039  -7.569  1.00 30.48     0.145 N 
HETATM   30  C21   D T1001       9.422  20.376  -7.226  1.00 31.29     0.286 C 
HETATM   31  C22   D T1001       9.523  21.846  -6.696  1.00 35.47     0.286 C 
HETATM   32  N4    D T1001       9.051  22.806  -7.738  1.00 37.17     0.143 N 
HETATM   33  C23   D T1001       7.619  22.515  -8.181  1.00 33.99     0.286 C 
HETATM   34  C25   D T1001       9.286  24.205  -7.344  1.00 37.63     0.285 C 
HETATM   35  C24   D T1001       7.405  20.993  -8.583  1.00 32.15     0.286 C 
ENDBRANCH  28  29
ENDBRANCH  25  28
BRANCH  26  36
HETATM   36  C19   D T1001       8.974  15.954  -6.524  1.00 24.31     0.418 C 
HETATM   37  F1    D T1001       8.898  15.352  -7.706  1.00 23.22    -0.166 F 
HETATM   38  F2    D T1001       9.942  16.864  -6.601  1.00 23.17    -0.166 F 
HETATM   39  F3    D T1001       9.346  15.099  -5.568  1.00 25.20    -0.166 F 
ENDBRANCH  26  36
ENDBRANCH   3  22
TORSDOF 7
ENDMDL
MODEL 9
REMARK VINA RESULT:    -9.139      3.397     10.330
REMARK INTER + INTRA:         -14.160
REMARK INTER:                 -13.587
REMARK INTRA:                  -0.574
REMARK UNBOUND:                -1.282
REMARK  7 active torsions:
REMARK  status: ('A' for Active; 'I' for Inactive)
REMARK    1  A    between atoms: N3_2  and  C20_12 
REMARK    2  A    between atoms: C4_3  and  C5_4 
REMARK    3  A    between atoms: C13_9  and  N2_29 
REMARK    4  A    between atoms: C17_11  and  C19_33 
REMARK    5  A    between atoms: C20_12  and  C16_31 
REMARK    6  A    between atoms: C2_23  and  C3_24 
REMARK    7  A    between atoms: C9_25  and  C12_27 
REMARK       I    between atoms: C12_27  and  N2_29 
ROOT
HETATM    1  C12   D T1001       3.277  13.224  -0.625  1.00 21.80     0.275 C 
HETATM    2  O1    D T1001       2.189  13.480  -1.135  1.00 20.56    -0.266 OA
HETATM    3  N2    D T1001       4.471  13.650  -1.111  1.00 21.64    -0.209 NA
ENDROOT
BRANCH   1   4
HETATM    4  C9    D T1001       3.311  12.420   0.629  1.00 20.47     0.037 A 
HETATM    5  C8    D T1001       2.144  11.728   1.190  1.00 19.32     0.036 A 
HETATM    6  C7    D T1001       2.290  10.953   2.421  1.00 17.62     0.028 A 
HETATM    7  C6    D T1001       3.599  10.872   3.084  1.00 19.91    -0.036 A 
HETATM    8  C5    D T1001       4.755  11.582   2.491  1.00 19.06     0.034 A 
HETATM    9  C11   D T1001       3.730  10.039   4.373  1.00 18.27     0.027 C 
HETATM   10  C10   D T1001       4.585  12.323   1.304  1.00 19.95     0.008 A 
BRANCH   8  11
HETATM   11  C4    D T1001       6.108  11.568   3.047  1.00 21.50    -0.059 C 
HETATM   12  C3    D T1001       7.237  11.415   3.422  1.00 21.04    -0.039 C 
BRANCH  12  13
HETATM   13  C2    D T1001       8.541  11.130   3.776  1.00 21.60     0.145 A 
HETATM   14  N82   D T1001       9.672  11.601   3.179  1.00 22.53    -0.203 N 
HETATM   15  N81   D T1001       9.746  12.467   2.106  1.00 22.62    -0.162 NA
HETATM   16  C84   D T1001      10.752  10.988   3.927  1.00 22.97     0.165 A 
HETATM   17  C83   D T1001      11.016  12.745   1.748  1.00 23.24     0.121 A 
HETATM   18  C82   D T1001      12.207  12.211   2.394  1.00 23.56     0.026 A 
HETATM   19  C81   D T1001      12.075  11.337   3.483  1.00 23.17     0.041 A 
HETATM   20  N1    D T1001      10.282  10.220   4.893  1.00 21.53    -0.223 NA
HETATM   21  C1    D T1001       8.905  10.303   4.800  1.00 23.44     0.128 A 
ENDBRANCH  12  13
ENDBRANCH   8  11
ENDBRANCH   1   4
BRANCH   3  22
HETATM   22  C13   D T1001       4.681  14.637  -2.126  1.00 24.15     0.081 A 
HETATM   23  C14   D T1001       5.728  14.434  -3.092  1.00 25.53    -0.003 A 
HETATM   24  C15   D T1001       5.955  15.420  -4.130  1.00 24.42     0.051 A 
HETATM   25  C16   D T1001       5.141  16.624  -4.230  1.00 26.01    -0.003 A 
HETATM   26  C17   D T1001       4.057  16.832  -3.231  1.00 24.28     0.067 A 
HETATM   27  C18   D T1001       3.868  15.839  -2.222  1.00 22.80     0.022 A 
BRANCH  25  28
HETATM   28  C20   D T1001       5.455  17.627  -5.390  1.00 28.53     0.273 C 
BRANCH  28  29
HETATM   29  N3    D T1001       6.860  17.652  -5.823  1.00 30.48     0.145 N 
HETATM   30  C21   D T1001       7.058  17.337  -7.283  1.00 31.29     0.286 C 
HETATM   31  C22   D T1001       8.584  17.192  -7.606  1.00 35.47     0.286 C 
HETATM   32  N4    D T1001       9.301  18.465  -7.298  1.00 37.17     0.143 N 
HETATM   33  C23   D T1001       9.122  18.888  -5.843  1.00 33.99     0.286 C 
HETATM   34  C25   D T1001      10.705  18.427  -7.745  1.00 37.63     0.285 C 
HETATM   35  C24   D T1001       7.596  18.903  -5.398  1.00 32.15     0.286 C 
ENDBRANCH  28  29
ENDBRANCH  25  28
BRANCH  26  36
HETATM   36  C19   D T1001       3.105  18.051  -3.208  1.00 24.31     0.418 C 
HETATM   37  F1    D T1001       3.258  18.745  -4.331  1.00 23.22    -0.166 F 
HETATM   38  F2    D T1001       1.822  17.706  -3.125  1.00 23.17    -0.166 F 
HETATM   39  F3    D T1001       3.357  18.804  -2.135  1.00 25.20    -0.166 F 
ENDBRANCH  26  36
ENDBRANCH   3  22
TORSDOF 7
ENDMDL
