MODEL 1
REMARK VINA RESULT:    -9.995      0.000      0.000
REMARK INTER + INTRA:         -15.151
REMARK INTER:                 -14.085
REMARK INTRA:                  -1.066
REMARK UNBOUND:                -1.066
REMARK  7 active torsions:
REMARK  status: ('A' for Active; 'I' for Inactive)
REMARK    1  A    between atoms: N3_2  and  C20_12 
REMARK    2  A    between atoms: C4_3  and  C5_4 
REMARK    3  A    between atoms: C13_9  and  N2_29 
REMARK    4  A    between atoms: C17_11  and  C19_33 
REMARK    5  A    between atoms: C20_12  and  C16_31 
REMARK    6  A    between atoms: C2_23  and  C3_24 
REMARK    7  A    between atoms: C9_25  and  C12_27 
REMARK       I    between atoms: C12_27  and  N2_29 
ROOT
HETATM    1  C12   D T1001      -0.874   3.471  -9.400  1.00 21.80     0.275 C 
HETATM    2  O1    D T1001      -0.768   2.773  -8.394  1.00 20.56    -0.266 OA
HETATM    3  N2    D T1001      -0.027   4.481  -9.725  1.00 21.64    -0.213 NA
ENDROOT
BRANCH   1   4
HETATM    4  C9    D T1001      -1.980   3.189 -10.357  1.00 20.47     0.037 A 
HETATM    5  C8    D T1001      -2.886   4.215 -10.886  1.00 19.32     0.036 A 
HETATM    6  C7    D T1001      -3.933   3.833 -11.834  1.00 17.62     0.028 A 
HETATM    7  C6    D T1001      -4.067   2.429 -12.247  1.00 19.91    -0.036 A 
HETATM    8  C5    D T1001      -3.137   1.420 -11.694  1.00 19.06     0.034 A 
HETATM    9  C11   D T1001      -5.170   2.053 -13.254  1.00 18.27     0.027 C 
HETATM   10  C10   D T1001      -2.138   1.816 -10.780  1.00 19.95     0.008 A 
BRANCH   8  11
HETATM   11  C4    D T1001      -3.161  -0.003 -12.034  1.00 21.50    -0.059 C 
HETATM   12  C3    D T1001      -3.041  -1.182 -12.226  1.00 21.04    -0.039 C 
BRANCH  12  13
HETATM   13  C2    D T1001      -2.794  -2.531 -12.369  1.00 21.60     0.145 A 
HETATM   14  N82   D T1001      -1.682  -3.207 -11.961  1.00 22.53    -0.203 N 
HETATM   15  N81   D T1001      -0.581  -2.682 -11.313  1.00 22.62    -0.162 NA
HETATM   16  C84   D T1001      -1.929  -4.578 -12.362  1.00 22.97     0.165 A 
HETATM   17  C83   D T1001       0.356  -3.610 -11.040  1.00 23.24     0.121 A 
HETATM   18  C82   D T1001       0.261  -5.025 -11.379  1.00 23.56     0.026 A 
HETATM   19  C81   D T1001      -0.881  -5.508 -12.035  1.00 23.17     0.041 A 
HETATM   20  N1    D T1001      -3.104  -4.692 -12.957  1.00 21.53    -0.223 NA
HETATM   21  C1    D T1001      -3.642  -3.420 -12.966  1.00 23.44     0.128 A 
ENDBRANCH  12  13
ENDBRANCH   8  11
ENDBRANCH   1   4
BRANCH   3  22
HETATM   22  C13   D T1001       1.240   4.767  -9.122  1.00 24.15     0.062 A 
HETATM   23  C14   D T1001       2.389   3.994  -9.513  1.00 25.53     0.050 A 
HETATM   24  C15   D T1001       3.682   4.269  -8.918  1.00 24.42     0.030 A 
HETATM   25  C16   D T1001       3.856   5.323  -7.926  1.00 26.01    -0.007 A 
HETATM   26  C17   D T1001       2.667   6.122  -7.525  1.00 24.28     0.067 A 
HETATM   27  C18   D T1001       1.411   5.817  -8.132  1.00 22.80     0.018 A 
BRANCH  25  28
HETATM   28  C20   D T1001       5.292   5.552  -7.347  1.00 28.53     0.273 C 
BRANCH  28  29
HETATM   29  N3    D T1001       6.280   6.054  -8.315  1.00 30.48     0.145 N 
HETATM   30  C21   D T1001       6.875   4.985  -9.193  1.00 31.29     0.286 C 
HETATM   31  C22   D T1001       8.049   5.572 -10.046  1.00 35.47     0.286 C 
HETATM   32  N4    D T1001       7.551   6.676 -10.920  1.00 37.17     0.143 N 
HETATM   33  C23   D T1001       6.889   7.793 -10.116  1.00 33.99     0.286 C 
HETATM   34  C25   D T1001       8.586   7.144 -11.858  1.00 37.63     0.285 C 
HETATM   35  C24   D T1001       5.791   7.246  -9.106  1.00 32.15     0.286 C 
ENDBRANCH  28  29
ENDBRANCH  25  28
BRANCH  26  36
HETATM   36  C19   D T1001       2.691   7.277  -6.495  1.00 24.31     0.418 C 
HETATM   37  F1    D T1001       3.068   6.798  -5.313  1.00 23.22    -0.166 F 
HETATM   38  F2    D T1001       3.542   8.247  -6.822  1.00 23.17    -0.166 F 
HETATM   39  F3    D T1001       1.486   7.848  -6.425  1.00 25.20    -0.166 F 
ENDBRANCH  26  36
ENDBRANCH   3  22
TORSDOF 7
ENDMDL
MODEL 2
REMARK VINA RESULT:    -9.905      3.713      6.156
REMARK INTER + INTRA:         -15.024
REMARK INTER:                 -13.838
REMARK INTRA:                  -1.186
REMARK UNBOUND:                -1.066
REMARK  7 active torsions:
REMARK  status: ('A' for Active; 'I' for Inactive)
REMARK    1  A    between atoms: N3_2  and  C20_12 
REMARK    2  A    between atoms: C4_3  and  C5_4 
REMARK    3  A    between atoms: C13_9  and  N2_29 
REMARK    4  A    between atoms: C17_11  and  C19_33 
REMARK    5  A    between atoms: C20_12  and  C16_31 
REMARK    6  A    between atoms: C2_23  and  C3_24 
REMARK    7  A    between atoms: C9_25  and  C12_27 
REMARK       I    between atoms: C12_27  and  N2_29 
ROOT
HETATM    1  C12   D T1001      -0.657  -1.275 -11.234  1.00 21.80     0.275 C 
HETATM    2  O1    D T1001       0.478  -1.565 -10.864  1.00 20.56    -0.266 OA
HETATM    3  N2    D T1001      -1.210  -0.040 -11.113  1.00 21.64    -0.213 NA
ENDROOT
BRANCH   1   4
HETATM    4  C9    D T1001      -1.490  -2.321 -11.890  1.00 20.47     0.037 A 
HETATM    5  C8    D T1001      -0.951  -3.567 -12.448  1.00 19.32     0.036 A 
HETATM    6  C7    D T1001      -1.861  -4.536 -13.058  1.00 17.62     0.028 A 
HETATM    7  C6    D T1001      -3.302  -4.255 -13.107  1.00 19.91    -0.036 A 
HETATM    8  C5    D T1001      -3.813  -2.989 -12.535  1.00 19.06     0.034 A 
HETATM    9  C11   D T1001      -4.242  -5.296 -13.745  1.00 18.27     0.027 C 
HETATM   10  C10   D T1001      -2.913  -2.071 -11.954  1.00 19.95     0.008 A 
BRANCH   8  11
HETATM   11  C4    D T1001      -5.223  -2.600 -12.511  1.00 21.50    -0.059 C 
HETATM   12  C3    D T1001      -6.326  -2.134 -12.440  1.00 21.04    -0.039 C 
BRANCH  12  13
HETATM   13  C2    D T1001      -7.537  -1.482 -12.321  1.00 21.60     0.145 A 
HETATM   14  N82   D T1001      -7.731  -0.156 -12.074  1.00 22.53    -0.203 N 
HETATM   15  N81   D T1001      -6.757   0.809 -11.902  1.00 22.62    -0.162 NA
HETATM   16  C84   D T1001      -9.172  -0.006 -12.036  1.00 22.97     0.165 A 
HETATM   17  C83   D T1001      -7.271   2.033 -11.674  1.00 23.24     0.121 A 
HETATM   18  C82   D T1001      -8.692   2.349 -11.602  1.00 23.56     0.026 A 
HETATM   19  C81   D T1001      -9.640   1.332 -11.787  1.00 23.17     0.041 A 
HETATM   20  N1    D T1001      -9.774  -1.163 -12.252  1.00 21.53    -0.223 NA
HETATM   21  C1    D T1001      -8.758  -2.084 -12.426  1.00 23.44     0.128 A 
ENDBRANCH  12  13
ENDBRANCH   8  11
ENDBRANCH   1   4
BRANCH   3  22
HETATM   22  C13   D T1001      -0.533   1.174 -10.772  1.00 24.15     0.062 A 
HETATM   23  C14   D T1001      -0.041   1.345  -9.431  1.00 25.53     0.050 A 
HETATM   24  C15   D T1001       0.652   2.565  -9.064  1.00 24.42     0.030 A 
HETATM   25  C16   D T1001       0.873   3.635 -10.029  1.00 26.01    -0.007 A 
HETATM   26  C17   D T1001       0.365   3.455 -11.416  1.00 24.28     0.067 A 
HETATM   27  C18   D T1001      -0.314   2.240 -11.735  1.00 22.80     0.018 A 
BRANCH  25  28
HETATM   28  C20   D T1001       1.640   4.911  -9.544  1.00 28.53     0.273 C 
BRANCH  28  29
HETATM   29  N3    D T1001       3.082   4.722  -9.323  1.00 30.48     0.145 N 
HETATM   30  C21   D T1001       3.860   4.423 -10.578  1.00 31.29     0.286 C 
HETATM   31  C22   D T1001       5.337   4.042 -10.224  1.00 35.47     0.286 C 
HETATM   32  N4    D T1001       6.006   5.172  -9.513  1.00 37.17     0.143 N 
HETATM   33  C23   D T1001       5.260   5.576  -8.243  1.00 33.99     0.286 C 
HETATM   34  C25   D T1001       7.443   4.920  -9.310  1.00 37.63     0.285 C 
HETATM   35  C24   D T1001       3.712   5.823  -8.502  1.00 32.15     0.286 C 
ENDBRANCH  28  29
ENDBRANCH  25  28
BRANCH  26  36
HETATM   36  C19   D T1001       0.528   4.491 -12.553  1.00 24.31     0.418 C 
HETATM   37  F1    D T1001       1.776   4.444 -13.010  1.00 23.22    -0.166 F 
HETATM   38  F2    D T1001      -0.282   4.263 -13.585  1.00 23.17    -0.166 F 
HETATM   39  F3    D T1001       0.221   5.710 -12.104  1.00 25.20    -0.166 F 
ENDBRANCH  26  36
ENDBRANCH   3  22
TORSDOF 7
ENDMDL
MODEL 3
REMARK VINA RESULT:    -9.682      1.442      2.213
REMARK INTER + INTRA:         -14.710
REMARK INTER:                 -13.916
REMARK INTRA:                  -0.794
REMARK UNBOUND:                -1.066
REMARK  7 active torsions:
REMARK  status: ('A' for Active; 'I' for Inactive)
REMARK    1  A    between atoms: N3_2  and  C20_12 
REMARK    2  A    between atoms: C4_3  and  C5_4 
REMARK    3  A    between atoms: C13_9  and  N2_29 
REMARK    4  A    between atoms: C17_11  and  C19_33 
REMARK    5  A    between atoms: C20_12  and  C16_31 
REMARK    6  A    between atoms: C2_23  and  C3_24 
REMARK    7  A    between atoms: C9_25  and  C12_27 
REMARK       I    between atoms: C12_27  and  N2_29 
ROOT
HETATM    1  C12   D T1001      -2.510   4.063 -11.279  1.00 21.80     0.275 C 
HETATM    2  O1    D T1001      -2.849   5.200 -10.963  1.00 20.56    -0.266 OA
HETATM    3  N2    D T1001      -1.268   3.549 -11.082  1.00 21.64    -0.213 NA
ENDROOT
BRANCH   1   4
HETATM    4  C9    D T1001      -3.520   3.157 -11.895  1.00 20.47     0.037 A 
HETATM    5  C8    D T1001      -4.750   3.623 -12.546  1.00 19.32     0.036 A 
HETATM    6  C7    D T1001      -5.669   2.648 -13.133  1.00 17.62     0.028 A 
HETATM    7  C6    D T1001      -5.353   1.215 -13.066  1.00 19.91    -0.036 A 
HETATM    8  C5    D T1001      -4.104   0.778 -12.403  1.00 19.06     0.034 A 
HETATM    9  C11   D T1001      -6.331   0.208 -13.701  1.00 18.27     0.027 C 
HETATM   10  C10   D T1001      -3.237   1.740 -11.843  1.00 19.95     0.008 A 
BRANCH   8  11
HETATM   11  C4    D T1001      -3.673  -0.615 -12.282  1.00 21.50    -0.059 C 
HETATM   12  C3    D T1001      -3.170  -1.703 -12.227  1.00 21.04    -0.039 C 
BRANCH  12  13
HETATM   13  C2    D T1001      -2.476  -2.895 -12.194  1.00 21.60     0.145 A 
HETATM   14  N82   D T1001      -1.296  -3.136 -11.556  1.00 22.53    -0.203 N 
HETATM   15  N81   D T1001      -0.559  -2.241 -10.804  1.00 22.62    -0.162 NA
HETATM   16  C84   D T1001      -1.007  -4.526 -11.850  1.00 22.97     0.165 A 
HETATM   17  C83   D T1001       0.566  -2.785 -10.301  1.00 23.24     0.121 A 
HETATM   18  C82   D T1001       0.999  -4.162 -10.506  1.00 23.56     0.026 A 
HETATM   19  C81   D T1001       0.212  -5.031 -11.276  1.00 23.17     0.041 A 
HETATM   20  N1    D T1001      -1.956  -5.057 -12.601  1.00 21.53    -0.223 NA
HETATM   21  C1    D T1001      -2.869  -4.043 -12.820  1.00 23.44     0.128 A 
ENDBRANCH  12  13
ENDBRANCH   8  11
ENDBRANCH   1   4
BRANCH   3  22
HETATM   22  C13   D T1001      -0.224   4.114 -10.282  1.00 24.15     0.062 A 
HETATM   23  C14   D T1001       1.143   3.935 -10.694  1.00 25.53     0.050 A 
HETATM   24  C15   D T1001       2.217   4.503  -9.901  1.00 24.42     0.030 A 
HETATM   25  C16   D T1001       1.949   5.264  -8.687  1.00 26.01    -0.007 A 
HETATM   26  C17   D T1001       0.534   5.449  -8.265  1.00 24.28     0.067 A 
HETATM   27  C18   D T1001      -0.494   4.871  -9.072  1.00 22.80     0.018 A 
BRANCH  25  28
HETATM   28  C20   D T1001       3.172   5.846  -7.903  1.00 28.53     0.273 C 
BRANCH  28  29
HETATM   29  N3    D T1001       4.385   6.051  -8.709  1.00 30.48     0.145 N 
HETATM   30  C21   D T1001       5.081   7.361  -8.446  1.00 31.29     0.286 C 
HETATM   31  C22   D T1001       6.236   7.581  -9.480  1.00 35.47     0.286 C 
HETATM   32  N4    D T1001       7.243   6.483  -9.372  1.00 37.17     0.143 N 
HETATM   33  C23   D T1001       6.618   5.106  -9.583  1.00 33.99     0.286 C 
HETATM   34  C25   D T1001       8.427   6.739 -10.208  1.00 37.63     0.285 C 
HETATM   35  C24   D T1001       5.335   4.876  -8.674  1.00 32.15     0.286 C 
ENDBRANCH  28  29
ENDBRANCH  25  28
BRANCH  26  36
HETATM   36  C19   D T1001       0.087   6.236  -7.011  1.00 24.31     0.418 C 
HETATM   37  F1    D T1001       0.349   7.527  -7.190  1.00 23.22    -0.166 F 
HETATM   38  F2    D T1001      -1.217   6.124  -6.764  1.00 23.17    -0.166 F 
HETATM   39  F3    D T1001       0.710   5.760  -5.930  1.00 25.20    -0.166 F 
ENDBRANCH  26  36
ENDBRANCH   3  22
TORSDOF 7
ENDMDL
MODEL 4
REMARK VINA RESULT:    -9.143      3.045     10.775
REMARK INTER + INTRA:         -13.951
REMARK INTER:                 -12.818
REMARK INTRA:                  -1.133
REMARK UNBOUND:                -1.066
REMARK  7 active torsions:
REMARK  status: ('A' for Active; 'I' for Inactive)
REMARK    1  A    between atoms: N3_2  and  C20_12 
REMARK    2  A    between atoms: C4_3  and  C5_4 
REMARK    3  A    between atoms: C13_9  and  N2_29 
REMARK    4  A    between atoms: C17_11  and  C19_33 
REMARK    5  A    between atoms: C20_12  and  C16_31 
REMARK    6  A    between atoms: C2_23  and  C3_24 
REMARK    7  A    between atoms: C9_25  and  C12_27 
REMARK       I    between atoms: C12_27  and  N2_29 
ROOT
HETATM    1  C12   D T1001      -1.409   5.842  -7.985  1.00 21.80     0.275 C 
HETATM    2  O1    D T1001      -2.397   6.445  -8.397  1.00 20.56    -0.266 OA
HETATM    3  N2    D T1001      -1.120   4.550  -8.285  1.00 21.64    -0.213 NA
ENDROOT
BRANCH   1   4
HETATM    4  C9    D T1001      -0.433   6.565  -7.122  1.00 20.47     0.037 A 
HETATM    5  C8    D T1001      -0.814   7.535  -6.090  1.00 19.32     0.036 A 
HETATM    6  C7    D T1001       0.225   8.179  -5.287  1.00 17.62     0.028 A 
HETATM    7  C6    D T1001       1.638   7.848  -5.519  1.00 19.91    -0.036 A 
HETATM    8  C5    D T1001       1.988   6.865  -6.569  1.00 19.06     0.034 A 
HETATM    9  C11   D T1001       2.714   8.530  -4.653  1.00 18.27     0.027 C 
HETATM   10  C10   D T1001       0.965   6.261  -7.330  1.00 19.95     0.008 A 
BRANCH   8  11
HETATM   11  C4    D T1001       3.352   6.444  -6.888  1.00 21.50    -0.059 C 
HETATM   12  C3    D T1001       4.412   6.058  -7.298  1.00 21.04    -0.039 C 
BRANCH  12  13
HETATM   13  C2    D T1001       5.569   5.591  -7.886  1.00 21.60     0.145 A 
HETATM   14  N82   D T1001       6.287   6.198  -8.873  1.00 22.53    -0.203 N 
HETATM   15  N81   D T1001       6.009   7.408  -9.479  1.00 22.62    -0.162 NA
HETATM   16  C84   D T1001       7.386   5.289  -9.127  1.00 22.97     0.165 A 
HETATM   17  C83   D T1001       6.912   7.739 -10.423  1.00 23.24     0.121 A 
HETATM   18  C82   D T1001       8.068   6.934 -10.798  1.00 23.56     0.026 A 
HETATM   19  C81   D T1001       8.307   5.714 -10.149  1.00 23.17     0.041 A 
HETATM   20  N1    D T1001       7.316   4.230  -8.339  1.00 21.53    -0.223 NA
HETATM   21  C1    D T1001       6.184   4.414  -7.569  1.00 23.44     0.128 A 
ENDBRANCH  12  13
ENDBRANCH   8  11
ENDBRANCH   1   4
BRANCH   3  22
HETATM   22  C13   D T1001      -1.744   3.742  -9.289  1.00 24.15     0.062 A 
HETATM   23  C14   D T1001      -2.903   2.965  -8.938  1.00 25.53     0.050 A 
HETATM   24  C15   D T1001      -3.553   2.142  -9.940  1.00 24.42     0.030 A 
HETATM   25  C16   D T1001      -3.065   2.084 -11.312  1.00 26.01    -0.007 A 
HETATM   26  C17   D T1001      -1.868   2.890 -11.673  1.00 24.28     0.067 A 
HETATM   27  C18   D T1001      -1.255   3.684 -10.657  1.00 22.80     0.018 A 
BRANCH  25  28
HETATM   28  C20   D T1001      -3.838   1.176 -12.326  1.00 28.53     0.273 C 
BRANCH  28  29
HETATM   29  N3    D T1001      -3.672  -0.270 -12.117  1.00 30.48     0.145 N 
HETATM   30  C21   D T1001      -4.280  -1.120 -13.201  1.00 31.29     0.286 C 
HETATM   31  C22   D T1001      -4.231  -2.633 -12.799  1.00 35.47     0.286 C 
HETATM   32  N4    D T1001      -2.817  -3.068 -12.597  1.00 37.17     0.143 N 
HETATM   33  C23   D T1001      -2.103  -2.231 -11.539  1.00 33.99     0.286 C 
HETATM   34  C25   D T1001      -2.716  -4.522 -12.381  1.00 37.63     0.285 C 
HETATM   35  C24   D T1001      -2.249  -0.670 -11.799  1.00 32.15     0.286 C 
ENDBRANCH  28  29
ENDBRANCH  25  28
BRANCH  26  36
HETATM   36  C19   D T1001      -1.236   2.942 -13.084  1.00 24.31     0.418 C 
HETATM   37  F1    D T1001      -0.413   1.907 -13.231  1.00 23.22    -0.166 F 
HETATM   38  F2    D T1001      -2.138   2.874 -14.061  1.00 23.17    -0.166 F 
HETATM   39  F3    D T1001      -0.593   4.100 -13.253  1.00 25.20    -0.166 F 
ENDBRANCH  26  36
ENDBRANCH   3  22
TORSDOF 7
ENDMDL
MODEL 5
REMARK VINA RESULT:    -9.128      2.637      3.676
REMARK INTER + INTRA:         -13.929
REMARK INTER:                 -13.710
REMARK INTRA:                  -0.219
REMARK UNBOUND:                -1.066
REMARK  7 active torsions:
REMARK  status: ('A' for Active; 'I' for Inactive)
REMARK    1  A    between atoms: N3_2  and  C20_12 
REMARK    2  A    between atoms: C4_3  and  C5_4 
REMARK    3  A    between atoms: C13_9  and  N2_29 
REMARK    4  A    between atoms: C17_11  and  C19_33 
REMARK    5  A    between atoms: C20_12  and  C16_31 
REMARK    6  A    between atoms: C2_23  and  C3_24 
REMARK    7  A    between atoms: C9_25  and  C12_27 
REMARK       I    between atoms: C12_27  and  N2_29 
ROOT
HETATM    1  C12   D T1001      -1.921   4.256 -11.261  1.00 21.80     0.275 C 
HETATM    2  O1    D T1001      -2.060   5.421 -10.897  1.00 20.56    -0.266 OA
HETATM    3  N2    D T1001      -0.743   3.580 -11.236  1.00 21.64    -0.213 NA
ENDROOT
BRANCH   1   4
HETATM    4  C9    D T1001      -3.116   3.504 -11.738  1.00 20.47     0.037 A 
HETATM    5  C8    D T1001      -4.369   4.140 -12.158  1.00 19.32     0.036 A 
HETATM    6  C7    D T1001      -5.479   3.308 -12.623  1.00 17.62     0.028 A 
HETATM    7  C6    D T1001      -5.328   1.847 -12.666  1.00 19.91    -0.036 A 
HETATM    8  C5    D T1001      -4.050   1.238 -12.235  1.00 19.06     0.034 A 
HETATM    9  C11   D T1001      -6.506   0.992 -13.170  1.00 18.27     0.027 C 
HETATM   10  C10   D T1001      -2.997   2.064 -11.788  1.00 19.95     0.008 A 
BRANCH   8  11
HETATM   11  C4    D T1001      -3.773  -0.199 -12.241  1.00 21.50    -0.059 C 
HETATM   12  C3    D T1001      -3.390  -1.335 -12.280  1.00 21.04    -0.039 C 
BRANCH  12  13
HETATM   13  C2    D T1001      -2.826  -2.593 -12.346  1.00 21.60     0.145 A 
HETATM   14  N82   D T1001      -1.625  -2.979 -11.829  1.00 22.53    -0.203 N 
HETATM   15  N81   D T1001      -0.732  -2.194 -11.126  1.00 22.62    -0.162 NA
HETATM   16  C84   D T1001      -1.515  -4.379 -12.188  1.00 22.97     0.165 A 
HETATM   17  C83   D T1001       0.370  -2.870 -10.746  1.00 23.24     0.121 A 
HETATM   18  C82   D T1001       0.633  -4.276 -11.029  1.00 23.56     0.026 A 
HETATM   19  C81   D T1001      -0.309  -5.029 -11.745  1.00 23.17     0.041 A 
HETATM   20  N1    D T1001      -2.579  -4.781 -12.860  1.00 21.53    -0.223 NA
HETATM   21  C1    D T1001      -3.395  -3.670 -12.963  1.00 23.44     0.128 A 
ENDBRANCH  12  13
ENDBRANCH   8  11
ENDBRANCH   1   4
BRANCH   3  22
HETATM   22  C13   D T1001       0.465   3.986 -10.584  1.00 24.15     0.062 A 
HETATM   23  C14   D T1001       0.399   4.467  -9.230  1.00 25.53     0.050 A 
HETATM   24  C15   D T1001       1.611   4.879  -8.549  1.00 24.42     0.030 A 
HETATM   25  C16   D T1001       2.913   4.814  -9.202  1.00 26.01    -0.007 A 
HETATM   26  C17   D T1001       2.978   4.313 -10.602  1.00 24.28     0.067 A 
HETATM   27  C18   D T1001       1.761   3.921 -11.238  1.00 22.80     0.018 A 
BRANCH  25  28
HETATM   28  C20   D T1001       4.166   5.271  -8.384  1.00 28.53     0.273 C 
BRANCH  28  29
HETATM   29  N3    D T1001       3.865   5.997  -7.141  1.00 30.48     0.145 N 
HETATM   30  C21   D T1001       5.084   6.508  -6.419  1.00 31.29     0.286 C 
HETATM   31  C22   D T1001       4.686   7.087  -5.020  1.00 35.47     0.286 C 
HETATM   32  N4    D T1001       3.727   8.220  -5.183  1.00 37.17     0.143 N 
HETATM   33  C23   D T1001       2.471   7.806  -5.946  1.00 33.99     0.286 C 
HETATM   34  C25   D T1001       3.456   8.899  -3.905  1.00 37.63     0.285 C 
HETATM   35  C24   D T1001       2.806   7.063  -7.310  1.00 32.15     0.286 C 
ENDBRANCH  28  29
ENDBRANCH  25  28
BRANCH  26  36
HETATM   36  C19   D T1001       4.280   4.176 -11.426  1.00 24.31     0.418 C 
HETATM   37  F1    D T1001       3.969   3.952 -12.699  1.00 23.22    -0.166 F 
HETATM   38  F2    D T1001       5.037   5.271 -11.388  1.00 23.17    -0.166 F 
HETATM   39  F3    D T1001       5.030   3.190 -10.930  1.00 25.20    -0.166 F 
ENDBRANCH  26  36
ENDBRANCH   3  22
TORSDOF 7
ENDMDL
MODEL 6
REMARK VINA RESULT:    -9.030      1.825      2.250
REMARK INTER + INTRA:         -13.791
REMARK INTER:                 -12.759
REMARK INTRA:                  -1.032
REMARK UNBOUND:                -1.066
REMARK  7 active torsions:
REMARK  status: ('A' for Active; 'I' for Inactive)
REMARK    1  A    between atoms: N3_2  and  C20_12 
REMARK    2  A    between atoms: C4_3  and  C5_4 
REMARK    3  A    between atoms: C13_9  and  N2_29 
REMARK    4  A    between atoms: C17_11  and  C19_33 
REMARK    5  A    between atoms: C20_12  and  C16_31 
REMARK    6  A    between atoms: C2_23  and  C3_24 
REMARK    7  A    between atoms: C9_25  and  C12_27 
REMARK       I    between atoms: C12_27  and  N2_29 
ROOT
HETATM    1  C12   D T1001      -1.854   4.785  -7.644  1.00 21.80     0.275 C 
HETATM    2  O1    D T1001      -1.663   4.686  -6.435  1.00 20.56    -0.266 OA
HETATM    3  N2    D T1001      -0.940   5.259  -8.529  1.00 21.64    -0.213 NA
ENDROOT
BRANCH   1   4
HETATM    4  C9    D T1001      -3.158   4.332  -8.205  1.00 20.47     0.037 A 
HETATM    5  C8    D T1001      -4.349   5.184  -8.298  1.00 19.32     0.036 A 
HETATM    6  C7    D T1001      -5.578   4.644  -8.880  1.00 17.62     0.028 A 
HETATM    7  C6    D T1001      -5.608   3.258  -9.366  1.00 19.91    -0.036 A 
HETATM    8  C5    D T1001      -4.389   2.426  -9.258  1.00 19.06     0.034 A 
HETATM    9  C11   D T1001      -6.910   2.715  -9.986  1.00 18.27     0.027 C 
HETATM   10  C10   D T1001      -3.218   2.972  -8.690  1.00 19.95     0.008 A 
BRANCH   8  11
HETATM   11  C4    D T1001      -4.289   1.040  -9.715  1.00 21.50    -0.059 C 
HETATM   12  C3    D T1001      -4.251  -0.040 -10.238  1.00 21.04    -0.039 C 
BRANCH  12  13
HETATM   13  C2    D T1001      -4.239  -1.219 -10.954  1.00 21.60     0.145 A 
HETATM   14  N82   D T1001      -3.144  -1.946 -11.314  1.00 22.53    -0.203 N 
HETATM   15  N81   D T1001      -1.824  -1.658 -11.027  1.00 22.62    -0.162 NA
HETATM   16  C84   D T1001      -3.687  -3.069 -12.052  1.00 22.97     0.165 A 
HETATM   17  C83   D T1001      -0.971  -2.575 -11.523  1.00 23.24     0.121 A 
HETATM   18  C82   D T1001      -1.355  -3.756 -12.287  1.00 23.56     0.026 A 
HETATM   19  C81   D T1001      -2.711  -4.003 -12.548  1.00 23.17     0.041 A 
HETATM   20  N1    D T1001      -5.006  -3.003 -12.113  1.00 21.53    -0.223 NA
HETATM   21  C1    D T1001      -5.351  -1.850 -11.433  1.00 23.44     0.128 A 
ENDBRANCH  12  13
ENDBRANCH   8  11
ENDBRANCH   1   4
BRANCH   3  22
HETATM   22  C13   D T1001       0.450   5.499  -8.281  1.00 24.15     0.062 A 
HETATM   23  C14   D T1001       1.429   4.787  -9.059  1.00 25.53     0.050 A 
HETATM   24  C15   D T1001       2.842   5.018  -8.827  1.00 24.42     0.030 A 
HETATM   25  C16   D T1001       3.306   5.965  -7.821  1.00 26.01    -0.007 A 
HETATM   26  C17   D T1001       2.290   6.701  -7.019  1.00 24.28     0.067 A 
HETATM   27  C18   D T1001       0.909   6.443  -7.276  1.00 22.80     0.018 A 
BRANCH  25  28
HETATM   28  C20   D T1001       4.850   6.154  -7.650  1.00 28.53     0.273 C 
BRANCH  28  29
HETATM   29  N3    D T1001       5.595   6.343  -8.904  1.00 30.48     0.145 N 
HETATM   30  C21   D T1001       6.195   7.716  -9.059  1.00 31.29     0.286 C 
HETATM   31  C22   D T1001       6.792   7.889 -10.496  1.00 35.47     0.286 C 
HETATM   32  N4    D T1001       7.864   6.878 -10.736  1.00 37.17     0.143 N 
HETATM   33  C23   D T1001       7.357   5.448 -10.558  1.00 33.99     0.286 C 
HETATM   34  C25   D T1001       8.565   7.111 -12.010  1.00 37.63     0.285 C 
HETATM   35  C24   D T1001       6.594   5.242  -9.179  1.00 32.15     0.286 C 
ENDBRANCH  28  29
ENDBRANCH  25  28
BRANCH  26  36
HETATM   36  C19   D T1001       2.621   7.742  -5.924  1.00 24.31     0.418 C 
HETATM   37  F1    D T1001       1.488   8.186  -5.389  1.00 23.22    -0.166 F 
HETATM   38  F2    D T1001       3.359   7.240  -4.936  1.00 23.17    -0.166 F 
HETATM   39  F3    D T1001       3.335   8.741  -6.448  1.00 25.20    -0.166 F 
ENDBRANCH  26  36
ENDBRANCH   3  22
TORSDOF 7
ENDMDL
MODEL 7
REMARK VINA RESULT:    -8.934      3.559     11.032
REMARK INTER + INTRA:         -13.657
REMARK INTER:                 -12.446
REMARK INTRA:                  -1.211
REMARK UNBOUND:                -1.066
REMARK  7 active torsions:
REMARK  status: ('A' for Active; 'I' for Inactive)
REMARK    1  A    between atoms: N3_2  and  C20_12 
REMARK    2  A    between atoms: C4_3  and  C5_4 
REMARK    3  A    between atoms: C13_9  and  N2_29 
REMARK    4  A    between atoms: C17_11  and  C19_33 
REMARK    5  A    between atoms: C20_12  and  C16_31 
REMARK    6  A    between atoms: C2_23  and  C3_24 
REMARK    7  A    between atoms: C9_25  and  C12_27 
REMARK       I    between atoms: C12_27  and  N2_29 
ROOT
HETATM    1  C12   D T1001      -2.717   4.566  -8.236  1.00 21.80     0.275 C 
HETATM    2  O1    D T1001      -3.918   4.822  -8.207  1.00 20.56    -0.266 OA
HETATM    3  N2    D T1001      -2.187   3.435  -8.769  1.00 21.64    -0.213 NA
ENDROOT
BRANCH   1   4
HETATM    4  C9    D T1001      -1.756   5.561  -7.683  1.00 20.47     0.037 A 
HETATM    5  C8    D T1001      -2.145   6.687  -6.826  1.00 19.32     0.036 A 
HETATM    6  C7    D T1001      -1.118   7.599  -6.325  1.00 17.62     0.028 A 
HETATM    7  C6    D T1001       0.290   7.381  -6.682  1.00 19.91    -0.036 A 
HETATM    8  C5    D T1001       0.649   6.236  -7.548  1.00 19.06     0.034 A 
HETATM    9  C11   D T1001       1.356   8.349  -6.132  1.00 18.27     0.027 C 
HETATM   10  C10   D T1001      -0.363   5.373  -8.020  1.00 19.95     0.008 A 
BRANCH   8  11
HETATM   11  C4    D T1001       2.012   5.906  -7.964  1.00 21.50    -0.059 C 
HETATM   12  C3    D T1001       3.073   5.644  -8.459  1.00 21.04    -0.039 C 
BRANCH  12  13
HETATM   13  C2    D T1001       4.234   5.357  -9.148  1.00 21.60     0.145 A 
HETATM   14  N82   D T1001       5.301   6.185  -9.331  1.00 22.53    -0.203 N 
HETATM   15  N81   D T1001       5.444   7.475  -8.858  1.00 22.62    -0.162 NA
HETATM   16  C84   D T1001       6.229   5.403 -10.124  1.00 22.97     0.165 A 
HETATM   17  C83   D T1001       6.620   8.032  -9.208  1.00 23.24     0.121 A 
HETATM   18  C82   D T1001       7.655   7.382 -10.003  1.00 23.56     0.026 A 
HETATM   19  C81   D T1001       7.460   6.069 -10.457  1.00 23.17     0.041 A 
HETATM   20  N1    D T1001       5.738   4.203 -10.379  1.00 21.53    -0.223 NA
HETATM   21  C1    D T1001       4.495   4.173  -9.776  1.00 23.44     0.128 A 
ENDBRANCH  12  13
ENDBRANCH   8  11
ENDBRANCH   1   4
BRANCH   3  22
HETATM   22  C13   D T1001      -2.863   2.471  -9.584  1.00 24.15     0.062 A 
HETATM   23  C14   D T1001      -3.226   1.203  -9.009  1.00 25.53     0.050 A 
HETATM   24  C15   D T1001      -3.916   0.215  -9.815  1.00 24.42     0.030 A 
HETATM   25  C16   D T1001      -4.261   0.473 -11.208  1.00 26.01    -0.007 A 
HETATM   26  C17   D T1001      -3.886   1.786 -11.799  1.00 24.28     0.067 A 
HETATM   27  C18   D T1001      -3.205   2.730 -10.973  1.00 22.80     0.018 A 
BRANCH  25  28
HETATM   28  C20   D T1001      -5.014  -0.651 -11.995  1.00 28.53     0.273 C 
BRANCH  28  29
HETATM   29  N3    D T1001      -4.445  -2.000 -11.849  1.00 30.48     0.145 N 
HETATM   30  C21   D T1001      -5.359  -3.104 -12.311  1.00 31.29     0.286 C 
HETATM   31  C22   D T1001      -4.758  -4.500 -11.936  1.00 35.47     0.286 C 
HETATM   32  N4    D T1001      -3.429  -4.684 -12.591  1.00 37.17     0.143 N 
HETATM   33  C23   D T1001      -2.443  -3.582 -12.214  1.00 33.99     0.286 C 
HETATM   34  C25   D T1001      -2.907  -6.048 -12.401  1.00 37.63     0.285 C 
HETATM   35  C24   D T1001      -3.051  -2.128 -12.420  1.00 32.15     0.286 C 
ENDBRANCH  28  29
ENDBRANCH  25  28
BRANCH  26  36
HETATM   36  C19   D T1001      -4.188   2.212 -13.255  1.00 24.31     0.418 C 
HETATM   37  F1    D T1001      -3.698   1.299 -14.088  1.00 23.22    -0.166 F 
HETATM   38  F2    D T1001      -5.492   2.320 -13.505  1.00 23.17    -0.166 F 
HETATM   39  F3    D T1001      -3.665   3.417 -13.494  1.00 25.20    -0.166 F 
ENDBRANCH  26  36
ENDBRANCH   3  22
TORSDOF 7
ENDMDL
MODEL 8
REMARK VINA RESULT:    -8.421      5.711     11.056
REMARK INTER + INTRA:         -12.933
REMARK INTER:                 -11.759
REMARK INTRA:                  -1.174
REMARK UNBOUND:                -1.066
REMARK  7 active torsions:
REMARK  status: ('A' for Active; 'I' for Inactive)
REMARK    1  A    between atoms: N3_2  and  C20_12 
REMARK    2  A    between atoms: C4_3  and  C5_4 
REMARK    3  A    between atoms: C13_9  and  N2_29 
REMARK    4  A    between atoms: C17_11  and  C19_33 
REMARK    5  A    between atoms: C20_12  and  C16_31 
REMARK    6  A    between atoms: C2_23  and  C3_24 
REMARK    7  A    between atoms: C9_25  and  C12_27 
REMARK       I    between atoms: C12_27  and  N2_29 
ROOT
HETATM    1  C12   D T1001      -0.144   4.978  -8.520  1.00 21.80     0.275 C 
HETATM    2  O1    D T1001       1.039   4.865  -8.830  1.00 20.56    -0.266 OA
HETATM    3  N2    D T1001      -1.125   4.125  -8.916  1.00 21.64    -0.213 NA
ENDROOT
BRANCH   1   4
HETATM    4  C9    D T1001      -0.550   6.100  -7.628  1.00 20.47     0.037 A 
HETATM    5  C8    D T1001       0.369   7.136  -7.145  1.00 19.32     0.036 A 
HETATM    6  C7    D T1001      -0.137   8.203  -6.283  1.00 17.62     0.028 A 
HETATM    7  C6    D T1001      -1.557   8.228  -5.908  1.00 19.91    -0.036 A 
HETATM    8  C5    D T1001      -2.458   7.167  -6.413  1.00 19.06     0.034 A 
HETATM    9  C11   D T1001      -2.070   9.369  -5.008  1.00 18.27     0.027 C 
HETATM   10  C10   D T1001      -1.942   6.149  -7.241  1.00 19.95     0.008 A 
BRANCH   8  11
HETATM   11  C4    D T1001      -3.890   7.088  -6.122  1.00 21.50    -0.059 C 
HETATM   12  C3    D T1001      -5.041   7.157  -5.789  1.00 21.04    -0.039 C 
BRANCH  12  13
HETATM   13  C2    D T1001      -6.330   7.346  -5.337  1.00 21.60     0.145 A 
HETATM   14  N82   D T1001      -6.848   6.934  -4.145  1.00 22.53    -0.203 N 
HETATM   15  N81   D T1001      -6.186   6.252  -3.142  1.00 22.62    -0.162 NA
HETATM   16  C84   D T1001      -8.229   7.373  -4.184  1.00 22.97     0.165 A 
HETATM   17  C83   D T1001      -6.975   5.988  -2.083  1.00 23.24     0.121 A 
HETATM   18  C82   D T1001      -8.380   6.358  -1.968  1.00 23.56     0.026 A 
HETATM   19  C81   D T1001      -9.004   7.052  -3.015  1.00 23.17     0.041 A 
HETATM   20  N1    D T1001      -8.494   8.001  -5.316  1.00 21.53    -0.223 NA
HETATM   21  C1    D T1001      -7.315   7.982  -6.037  1.00 23.44     0.128 A 
ENDBRANCH  12  13
ENDBRANCH   8  11
ENDBRANCH   1   4
BRANCH   3  22
HETATM   22  C13   D T1001      -0.952   2.848  -9.539  1.00 24.15     0.062 A 
HETATM   23  C14   D T1001      -0.993   2.761 -10.975  1.00 25.53     0.050 A 
HETATM   24  C15   D T1001      -0.816   1.478 -11.627  1.00 24.42     0.030 A 
HETATM   25  C16   D T1001      -0.589   0.259 -10.861  1.00 26.01    -0.007 A 
HETATM   26  C17   D T1001      -0.544   0.352  -9.377  1.00 24.28     0.067 A 
HETATM   27  C18   D T1001      -0.726   1.633  -8.773  1.00 22.80     0.018 A 
BRANCH  25  28
HETATM   28  C20   D T1001      -0.399  -1.078 -11.653  1.00 28.53     0.273 C 
BRANCH  28  29
HETATM   29  N3    D T1001      -1.583  -1.948 -11.697  1.00 30.48     0.145 N 
HETATM   30  C21   D T1001      -2.861  -1.228 -12.042  1.00 31.29     0.286 C 
HETATM   31  C22   D T1001      -4.088  -2.184 -11.869  1.00 35.47     0.286 C 
HETATM   32  N4    D T1001      -3.955  -3.365 -12.773  1.00 37.17     0.143 N 
HETATM   33  C23   D T1001      -2.661  -4.137 -12.525  1.00 33.99     0.286 C 
HETATM   34  C25   D T1001      -5.165  -4.203 -12.765  1.00 37.63     0.285 C 
HETATM   35  C24   D T1001      -1.382  -3.195 -12.526  1.00 32.15     0.286 C 
ENDBRANCH  28  29
ENDBRANCH  25  28
BRANCH  26  36
HETATM   36  C19   D T1001      -0.303  -0.846  -8.428  1.00 24.31     0.418 C 
HETATM   37  F1    D T1001      -1.255  -1.754  -8.623  1.00 23.22    -0.166 F 
HETATM   38  F2    D T1001       0.868  -1.446  -8.635  1.00 23.17    -0.166 F 
HETATM   39  F3    D T1001      -0.285  -0.426  -7.161  1.00 25.20    -0.166 F 
ENDBRANCH  26  36
ENDBRANCH   3  22
TORSDOF 7
ENDMDL
MODEL 9
REMARK VINA RESULT:    -8.252      4.155      6.836
REMARK INTER + INTRA:         -12.695
REMARK INTER:                 -11.619
REMARK INTRA:                  -1.076
REMARK UNBOUND:                -1.066
REMARK  7 active torsions:
REMARK  status: ('A' for Active; 'I' for Inactive)
REMARK    1  A    between atoms: N3_2  and  C20_12 
REMARK    2  A    between atoms: C4_3  and  C5_4 
REMARK    3  A    between atoms: C13_9  and  N2_29 
REMARK    4  A    between atoms: C17_11  and  C19_33 
REMARK    5  A    between atoms: C20_12  and  C16_31 
REMARK    6  A    between atoms: C2_23  and  C3_24 
REMARK    7  A    between atoms: C9_25  and  C12_27 
REMARK       I    between atoms: C12_27  and  N2_29 
ROOT
HETATM    1  C12   D T1001      -1.434   0.103 -10.797  1.00 21.80     0.275 C 
HETATM    2  O1    D T1001      -0.220   0.228 -10.658  1.00 20.56    -0.266 OA
HETATM    3  N2    D T1001      -2.348   1.039 -10.431  1.00 21.64    -0.213 NA
ENDROOT
BRANCH   1   4
HETATM    4  C9    D T1001      -1.961  -1.135 -11.436  1.00 20.47     0.037 A 
HETATM    5  C8    D T1001      -1.131  -2.294 -11.783  1.00 19.32     0.036 A 
HETATM    6  C7    D T1001      -1.753  -3.468 -12.395  1.00 17.62     0.028 A 
HETATM    7  C6    D T1001      -3.199  -3.477 -12.656  1.00 19.91    -0.036 A 
HETATM    8  C5    D T1001      -4.007  -2.291 -12.293  1.00 19.06     0.034 A 
HETATM    9  C11   D T1001      -3.833  -4.729 -13.291  1.00 18.27     0.027 C 
HETATM   10  C10   D T1001      -3.381  -1.171 -11.706  1.00 19.95     0.008 A 
BRANCH   8  11
HETATM   11  C4    D T1001      -5.453  -2.182 -12.490  1.00 21.50    -0.059 C 
HETATM   12  C3    D T1001      -6.626  -1.946 -12.576  1.00 21.04    -0.039 C 
BRANCH  12  13
HETATM   13  C2    D T1001      -7.949  -1.557 -12.617  1.00 21.60     0.145 A 
HETATM   14  N82   D T1001      -8.437  -0.297 -12.433  1.00 22.53    -0.203 N 
HETATM   15  N81   D T1001      -7.708   0.848 -12.180  1.00 22.62    -0.162 NA
HETATM   16  C84   D T1001      -9.873  -0.447 -12.567  1.00 22.97     0.165 A 
HETATM   17  C83   D T1001      -8.483   1.942 -12.048  1.00 23.24     0.121 A 
HETATM   18  C82   D T1001      -9.937   1.959 -12.151  1.00 23.56     0.026 A 
HETATM   19  C81   D T1001     -10.630   0.768 -12.413  1.00 23.17     0.041 A 
HETATM   20  N1    D T1001     -10.197  -1.703 -12.815  1.00 21.53    -0.223 NA
HETATM   21  C1    D T1001      -9.002  -2.397 -12.843  1.00 23.44     0.128 A 
ENDBRANCH  12  13
ENDBRANCH   8  11
ENDBRANCH   1   4
BRANCH   3  22
HETATM   22  C13   D T1001      -2.084   2.394 -10.053  1.00 24.15     0.062 A 
HETATM   23  C14   D T1001      -2.729   2.930  -8.884  1.00 25.53     0.050 A 
HETATM   24  C15   D T1001      -2.473   4.300  -8.481  1.00 24.42     0.030 A 
HETATM   25  C16   D T1001      -1.565   5.158  -9.231  1.00 26.01    -0.007 A 
HETATM   26  C17   D T1001      -0.898   4.601 -10.439  1.00 24.28     0.067 A 
HETATM   27  C18   D T1001      -1.180   3.249 -10.804  1.00 22.80     0.018 A 
BRANCH  25  28
HETATM   28  C20   D T1001      -1.344   6.619  -8.714  1.00 28.53     0.273 C 
BRANCH  28  29
HETATM   29  N3    D T1001      -0.630   6.722  -7.432  1.00 30.48     0.145 N 
HETATM   30  C21   D T1001       0.815   6.303  -7.500  1.00 31.29     0.286 C 
HETATM   31  C22   D T1001       1.436   6.254  -6.063  1.00 35.47     0.286 C 
HETATM   32  N4    D T1001       1.366   7.602  -5.424  1.00 37.17     0.143 N 
HETATM   33  C23   D T1001      -0.064   8.131  -5.350  1.00 33.99     0.286 C 
HETATM   34  C25   D T1001       2.088   7.640  -4.141  1.00 37.63     0.285 C 
HETATM   35  C24   D T1001      -0.812   8.058  -6.750  1.00 32.15     0.286 C 
ENDBRANCH  28  29
ENDBRANCH  25  28
BRANCH  26  36
HETATM   36  C19   D T1001       0.095   5.380 -11.333  1.00 24.31     0.418 C 
HETATM   37  F1    D T1001      -0.320   6.637 -11.452  1.00 23.22    -0.166 F 
HETATM   38  F2    D T1001       1.329   5.413 -10.832  1.00 23.17    -0.166 F 
HETATM   39  F3    D T1001       0.195   4.787 -12.525  1.00 25.20    -0.166 F 
ENDBRANCH  26  36
ENDBRANCH   3  22
TORSDOF 7
ENDMDL
