MODEL 1
REMARK VINA RESULT:    -9.179      0.000      0.000
REMARK INTER + INTRA:         -14.019
REMARK INTER:                 -12.935
REMARK INTRA:                  -1.084
REMARK UNBOUND:                -1.084
REMARK  7 active torsions:
REMARK  status: ('A' for Active; 'I' for Inactive)
REMARK    1  A    between atoms: N3_2  and  C20_12 
REMARK    2  A    between atoms: C4_3  and  C5_4 
REMARK    3  A    between atoms: C13_9  and  N2_29 
REMARK    4  A    between atoms: C17_11  and  C19_33 
REMARK    5  A    between atoms: C20_12  and  C16_31 
REMARK    6  A    between atoms: C2_23  and  C3_24 
REMARK    7  A    between atoms: C9_25  and  C12_27 
REMARK       I    between atoms: C12_27  and  N2_29 
ROOT
HETATM    1  C12   D T1001       9.438   2.761  -0.893  1.00 21.80     0.275 C 
HETATM    2  O1    D T1001       8.430   3.433  -0.696  1.00 20.56    -0.266 OA
HETATM    3  N2    D T1001       9.883   2.385  -2.119  1.00 21.64    -0.209 NA
ENDROOT
BRANCH   1   4
HETATM    4  C9    D T1001      10.263   2.344   0.277  1.00 20.47     0.037 A 
HETATM    5  C8    D T1001      10.795   3.276   1.277  1.00 19.32     0.036 A 
HETATM    6  C7    D T1001      11.584   2.762   2.395  1.00 17.62     0.028 A 
HETATM    7  C6    D T1001      11.835   1.319   2.510  1.00 19.91    -0.036 A 
HETATM    8  C5    D T1001      11.284   0.405   1.483  1.00 19.06     0.034 A 
HETATM    9  C11   D T1001      12.659   0.798   3.702  1.00 18.27     0.027 C 
HETATM   10  C10   D T1001      10.529   0.930   0.413  1.00 19.95     0.008 A 
BRANCH   8  11
HETATM   11  C4    D T1001      11.454  -1.048   1.490  1.00 21.50    -0.059 C 
HETATM   12  C3    D T1001      11.681  -2.219   1.357  1.00 21.04    -0.039 C 
BRANCH  12  13
HETATM   13  C2    D T1001      12.016  -3.533   1.098  1.00 21.60     0.145 A 
HETATM   14  N82   D T1001      12.144  -4.117  -0.127  1.00 22.53    -0.203 N 
HETATM   15  N81   D T1001      11.977  -3.513  -1.358  1.00 22.62    -0.162 NA
HETATM   16  C84   D T1001      12.491  -5.494   0.170  1.00 22.97     0.165 A 
HETATM   17  C83   D T1001      12.176  -4.362  -2.386  1.00 23.24     0.121 A 
HETATM   18  C82   D T1001      12.526  -5.771  -2.257  1.00 23.56     0.026 A 
HETATM   19  C81   D T1001      12.687  -6.334  -0.982  1.00 23.17     0.041 A 
HETATM   20  N1    D T1001      12.565  -5.693   1.473  1.00 21.53    -0.223 NA
HETATM   21  C1    D T1001      12.265  -4.475   2.054  1.00 23.44     0.128 A 
ENDBRANCH  12  13
ENDBRANCH   8  11
ENDBRANCH   1   4
BRANCH   3  22
HETATM   22  C13   D T1001       9.427   2.876  -3.384  1.00 24.15     0.081 A 
HETATM   23  C14   D T1001       9.916   4.143  -3.859  1.00 25.53    -0.003 A 
HETATM   24  C15   D T1001       9.469   4.656  -5.139  1.00 24.42     0.051 A 
HETATM   25  C16   D T1001       8.532   3.915  -5.973  1.00 26.01    -0.003 A 
HETATM   26  C17   D T1001       8.029   2.603  -5.481  1.00 24.28     0.067 A 
HETATM   27  C18   D T1001       8.490   2.135  -4.214  1.00 22.80     0.022 A 
BRANCH  25  28
HETATM   28  C20   D T1001       8.115   4.546  -7.344  1.00 28.53     0.273 C 
BRANCH  28  29
HETATM   29  N3    D T1001       6.665   4.686  -7.546  1.00 30.48     0.145 N 
HETATM   30  C21   D T1001       6.114   6.024  -7.127  1.00 31.29     0.286 C 
HETATM   31  C22   D T1001       4.549   6.012  -7.191  1.00 35.47     0.286 C 
HETATM   32  N4    D T1001       4.089   5.728  -8.584  1.00 37.17     0.143 N 
HETATM   33  C23   D T1001       4.636   4.404  -9.112  1.00 33.99     0.286 C 
HETATM   34  C25   D T1001       2.630   5.873  -8.721  1.00 37.63     0.285 C 
HETATM   35  C24   D T1001       6.211   4.282  -8.930  1.00 32.15     0.286 C 
ENDBRANCH  28  29
ENDBRANCH  25  28
BRANCH  26  36
HETATM   36  C19   D T1001       7.041   1.697  -6.251  1.00 24.31     0.418 C 
HETATM   37  F1    D T1001       7.468   1.549  -7.502  1.00 23.22    -0.166 F 
HETATM   38  F2    D T1001       6.931   0.480  -5.721  1.00 23.17    -0.166 F 
HETATM   39  F3    D T1001       5.816   2.228  -6.217  1.00 25.20    -0.166 F 
ENDBRANCH  26  36
ENDBRANCH   3  22
TORSDOF 7
ENDMDL
MODEL 2
REMARK VINA RESULT:    -8.998      5.856     11.263
REMARK INTER + INTRA:         -13.764
REMARK INTER:                 -12.719
REMARK INTRA:                  -1.045
REMARK UNBOUND:                -1.084
REMARK  7 active torsions:
REMARK  status: ('A' for Active; 'I' for Inactive)
REMARK    1  A    between atoms: N3_2  and  C20_12 
REMARK    2  A    between atoms: C4_3  and  C5_4 
REMARK    3  A    between atoms: C13_9  and  N2_29 
REMARK    4  A    between atoms: C17_11  and  C19_33 
REMARK    5  A    between atoms: C20_12  and  C16_31 
REMARK    6  A    between atoms: C2_23  and  C3_24 
REMARK    7  A    between atoms: C9_25  and  C12_27 
REMARK       I    between atoms: C12_27  and  N2_29 
ROOT
HETATM    1  C12   D T1001      10.674   4.190  -1.676  1.00 21.80     0.275 C 
HETATM    2  O1    D T1001      11.426   3.884  -0.755  1.00 20.56    -0.266 OA
HETATM    3  N2    D T1001      10.199   5.443  -1.895  1.00 21.64    -0.209 NA
ENDROOT
BRANCH   1   4
HETATM    4  C9    D T1001      10.268   3.139  -2.651  1.00 20.47     0.037 A 
HETATM    5  C8    D T1001      10.668   1.732  -2.552  1.00 19.32     0.036 A 
HETATM    6  C7    D T1001      10.202   0.777  -3.557  1.00 17.62     0.028 A 
HETATM    7  C6    D T1001       9.338   1.233  -4.653  1.00 19.91    -0.036 A 
HETATM    8  C5    D T1001       8.952   2.661  -4.725  1.00 19.06     0.034 A 
HETATM    9  C11   D T1001       8.850   0.207  -5.694  1.00 18.27     0.027 C 
HETATM   10  C10   D T1001       9.418   3.560  -3.743  1.00 19.95     0.008 A 
BRANCH   8  11
HETATM   11  C4    D T1001       8.090   3.236  -5.757  1.00 21.50    -0.059 C 
HETATM   12  C3    D T1001       7.284   3.755  -6.480  1.00 21.04    -0.039 C 
BRANCH  12  13
HETATM   13  C2    D T1001       6.293   4.389  -7.201  1.00 21.60     0.145 A 
HETATM   14  N82   D T1001       5.594   3.877  -8.254  1.00 22.53    -0.203 N 
HETATM   15  N81   D T1001       5.726   2.618  -8.806  1.00 22.62    -0.162 NA
HETATM   16  C84   D T1001       4.699   4.950  -8.642  1.00 22.97     0.165 A 
HETATM   17  C83   D T1001       4.885   2.412  -9.840  1.00 23.24     0.121 A 
HETATM   18  C82   D T1001       3.930   3.386 -10.354  1.00 23.56     0.026 A 
HETATM   19  C81   D T1001       3.835   4.650  -9.753  1.00 23.17     0.041 A 
HETATM   20  N1    D T1001       4.862   6.007  -7.867  1.00 21.53    -0.223 NA
HETATM   21  C1    D T1001       5.858   5.662  -6.972  1.00 23.44     0.128 A 
ENDBRANCH  12  13
ENDBRANCH   8  11
ENDBRANCH   1   4
BRANCH   3  22
HETATM   22  C13   D T1001      10.648   6.651  -1.271  1.00 24.15     0.081 A 
HETATM   23  C14   D T1001      12.041   7.004  -1.355  1.00 25.53    -0.003 A 
HETATM   24  C15   D T1001      12.516   8.225  -0.734  1.00 24.42     0.051 A 
HETATM   25  C16   D T1001      11.613   9.120  -0.023  1.00 26.01    -0.003 A 
HETATM   26  C17   D T1001      10.172   8.755   0.061  1.00 24.28     0.067 A 
HETATM   27  C18   D T1001       9.745   7.542  -0.561  1.00 22.80     0.022 A 
BRANCH  25  28
HETATM   28  C20   D T1001      12.217  10.420   0.607  1.00 28.53     0.273 C 
BRANCH  28  29
HETATM   29  N3    D T1001      13.683  10.515   0.547  1.00 30.48     0.145 N 
HETATM   30  C21   D T1001      14.193  11.876   0.152  1.00 31.29     0.286 C 
HETATM   31  C22   D T1001      15.742  11.830  -0.078  1.00 35.47     0.286 C 
HETATM   32  N4    D T1001      16.440  11.411   1.175  1.00 37.17     0.143 N 
HETATM   33  C23   D T1001      15.953  10.054   1.678  1.00 33.99     0.286 C 
HETATM   34  C25   D T1001      17.904  11.517   1.050  1.00 37.63     0.285 C 
HETATM   35  C24   D T1001      14.369   9.977   1.782  1.00 32.15     0.286 C 
ENDBRANCH  28  29
ENDBRANCH  25  28
BRANCH  26  36
HETATM   36  C19   D T1001       9.091   9.603   0.770  1.00 24.31     0.418 C 
HETATM   37  F1    D T1001       7.924   8.969   0.700  1.00 23.22    -0.166 F 
HETATM   38  F2    D T1001       9.355   9.810   2.058  1.00 23.17    -0.166 F 
HETATM   39  F3    D T1001       9.020  10.812   0.207  1.00 25.20    -0.166 F 
ENDBRANCH  26  36
ENDBRANCH   3  22
TORSDOF 7
ENDMDL
MODEL 3
REMARK VINA RESULT:    -8.797      5.808     11.456
REMARK INTER + INTRA:         -13.481
REMARK INTER:                 -12.394
REMARK INTRA:                  -1.087
REMARK UNBOUND:                -1.084
REMARK  7 active torsions:
REMARK  status: ('A' for Active; 'I' for Inactive)
REMARK    1  A    between atoms: N3_2  and  C20_12 
REMARK    2  A    between atoms: C4_3  and  C5_4 
REMARK    3  A    between atoms: C13_9  and  N2_29 
REMARK    4  A    between atoms: C17_11  and  C19_33 
REMARK    5  A    between atoms: C20_12  and  C16_31 
REMARK    6  A    between atoms: C2_23  and  C3_24 
REMARK    7  A    between atoms: C9_25  and  C12_27 
REMARK       I    between atoms: C12_27  and  N2_29 
ROOT
HETATM    1  C12   D T1001       9.216   5.107  -1.216  1.00 21.80     0.275 C 
HETATM    2  O1    D T1001       8.073   5.552  -1.156  1.00 20.56    -0.266 OA
HETATM    3  N2    D T1001      10.270   5.600  -0.517  1.00 21.64    -0.209 NA
ENDROOT
BRANCH   1   4
HETATM    4  C9    D T1001       9.482   3.926  -2.086  1.00 20.47     0.037 A 
HETATM    5  C8    D T1001      10.433   2.861  -1.752  1.00 19.32     0.036 A 
HETATM    6  C7    D T1001      10.611   1.738  -2.670  1.00 17.62     0.028 A 
HETATM    7  C6    D T1001       9.835   1.683  -3.916  1.00 19.91    -0.036 A 
HETATM    8  C5    D T1001       8.882   2.775  -4.224  1.00 19.06     0.034 A 
HETATM    9  C11   D T1001      10.029   0.484  -4.864  1.00 18.27     0.027 C 
HETATM   10  C10   D T1001       8.734   3.847  -3.320  1.00 19.95     0.008 A 
BRANCH   8  11
HETATM   11  C4    D T1001       8.046   2.831  -5.423  1.00 21.50    -0.059 C 
HETATM   12  C3    D T1001       7.368   2.711  -6.406  1.00 21.04    -0.039 C 
BRANCH  12  13
HETATM   13  C2    D T1001       6.599   2.442  -7.520  1.00 21.60     0.145 A 
HETATM   14  N82   D T1001       5.774   3.310  -8.172  1.00 22.53    -0.203 N 
HETATM   15  N81   D T1001       5.547   4.636  -7.860  1.00 22.62    -0.162 NA
HETATM   16  C84   D T1001       5.206   2.521  -9.249  1.00 22.97     0.165 A 
HETATM   17  C83   D T1001       4.675   5.227  -8.701  1.00 23.24     0.121 A 
HETATM   18  C82   D T1001       4.017   4.574  -9.825  1.00 23.56     0.026 A 
HETATM   19  C81   D T1001       4.285   3.225 -10.100  1.00 23.17     0.041 A 
HETATM   20  N1    D T1001       5.673   1.285  -9.227  1.00 21.53    -0.223 NA
HETATM   21  C1    D T1001       6.537   1.232  -8.148  1.00 23.44     0.128 A 
ENDBRANCH  12  13
ENDBRANCH   8  11
ENDBRANCH   1   4
BRANCH   3  22
HETATM   22  C13   D T1001      10.218   6.537   0.565  1.00 24.15     0.081 A 
HETATM   23  C14   D T1001      10.041   6.045   1.906  1.00 25.53    -0.003 A 
HETATM   24  C15   D T1001       9.989   6.976   3.016  1.00 24.42     0.051 A 
HETATM   25  C16   D T1001      10.119   8.413   2.813  1.00 26.01    -0.003 A 
HETATM   26  C17   D T1001      10.305   8.919   1.426  1.00 24.28     0.067 A 
HETATM   27  C18   D T1001      10.346   7.970   0.360  1.00 22.80     0.022 A 
BRANCH  25  28
HETATM   28  C20   D T1001      10.060   9.339   4.074  1.00 28.53     0.273 C 
BRANCH  28  29
HETATM   29  N3    D T1001       9.261   8.815   5.191  1.00 30.48     0.145 N 
HETATM   30  C21   D T1001      10.083   8.261   6.327  1.00 31.29     0.286 C 
HETATM   31  C22   D T1001       9.156   7.551   7.372  1.00 35.47     0.286 C 
HETATM   32  N4    D T1001       8.170   8.521   7.934  1.00 37.17     0.143 N 
HETATM   33  C23   D T1001       7.317   9.170   6.847  1.00 33.99     0.286 C 
HETATM   34  C25   D T1001       7.393   7.937   9.040  1.00 37.63     0.285 C 
HETATM   35  C24   D T1001       8.193   9.774   5.666  1.00 32.15     0.286 C 
ENDBRANCH  28  29
ENDBRANCH  25  28
BRANCH  26  36
HETATM   36  C19   D T1001      10.466  10.410   1.049  1.00 24.31     0.418 C 
HETATM   37  F1    D T1001       9.360  11.068   1.384  1.00 23.22    -0.166 F 
HETATM   38  F2    D T1001      11.484  10.997   1.676  1.00 23.17    -0.166 F 
HETATM   39  F3    D T1001      10.721  10.523  -0.258  1.00 25.20    -0.166 F 
ENDBRANCH  26  36
ENDBRANCH   3  22
TORSDOF 7
ENDMDL
MODEL 4
REMARK VINA RESULT:    -8.712      5.689     11.224
REMARK INTER + INTRA:         -13.361
REMARK INTER:                 -12.135
REMARK INTRA:                  -1.226
REMARK UNBOUND:                -1.084
REMARK  7 active torsions:
REMARK  status: ('A' for Active; 'I' for Inactive)
REMARK    1  A    between atoms: N3_2  and  C20_12 
REMARK    2  A    between atoms: C4_3  and  C5_4 
REMARK    3  A    between atoms: C13_9  and  N2_29 
REMARK    4  A    between atoms: C17_11  and  C19_33 
REMARK    5  A    between atoms: C20_12  and  C16_31 
REMARK    6  A    between atoms: C2_23  and  C3_24 
REMARK    7  A    between atoms: C9_25  and  C12_27 
REMARK       I    between atoms: C12_27  and  N2_29 
ROOT
HETATM    1  C12   D T1001      11.116   4.158  -0.388  1.00 21.80     0.275 C 
HETATM    2  O1    D T1001      12.276   4.429  -0.091  1.00 20.56    -0.266 OA
HETATM    3  N2    D T1001      10.024   4.710   0.200  1.00 21.64    -0.209 NA
ENDROOT
BRANCH   1   4
HETATM    4  C9    D T1001      10.866   3.183  -1.487  1.00 20.47     0.037 A 
HETATM    5  C8    D T1001      11.304   1.784  -1.455  1.00 19.32     0.036 A 
HETATM    6  C7    D T1001      10.995   0.905  -2.582  1.00 17.62     0.028 A 
HETATM    7  C6    D T1001      10.248   1.428  -3.733  1.00 19.91    -0.036 A 
HETATM    8  C5    D T1001       9.820   2.846  -3.734  1.00 19.06     0.034 A 
HETATM    9  C11   D T1001       9.924   0.482  -4.904  1.00 18.27     0.027 C 
HETATM   10  C10   D T1001      10.135   3.671  -2.635  1.00 19.95     0.008 A 
BRANCH   8  11
HETATM   11  C4    D T1001       9.065   3.483  -4.813  1.00 21.50    -0.059 C 
HETATM   12  C3    D T1001       8.424   3.852  -5.759  1.00 21.04    -0.039 C 
BRANCH  12  13
HETATM   13  C2    D T1001       7.674   4.148  -6.878  1.00 21.60     0.145 A 
HETATM   14  N82   D T1001       6.887   3.289  -7.586  1.00 22.53    -0.203 N 
HETATM   15  N81   D T1001       6.670   1.951  -7.321  1.00 22.62    -0.162 NA
HETATM   16  C84   D T1001       6.345   4.102  -8.657  1.00 22.97     0.165 A 
HETATM   17  C83   D T1001       5.834   1.374  -8.207  1.00 23.24     0.121 A 
HETATM   18  C82   D T1001       5.210   2.049  -9.338  1.00 23.56     0.026 A 
HETATM   19  C81   D T1001       5.462   3.411  -9.559  1.00 23.17     0.041 A 
HETATM   20  N1    D T1001       6.782   5.346  -8.575  1.00 21.53    -0.223 NA
HETATM   21  C1    D T1001       7.613   5.376  -7.471  1.00 23.44     0.128 A 
ENDBRANCH  12  13
ENDBRANCH   8  11
ENDBRANCH   1   4
BRANCH   3  22
HETATM   22  C13   D T1001      10.001   5.844   1.074  1.00 24.15     0.081 A 
HETATM   23  C14   D T1001      10.010   5.629   2.497  1.00 25.53    -0.003 A 
HETATM   24  C15   D T1001       9.991   6.763   3.399  1.00 24.42     0.051 A 
HETATM   25  C16   D T1001       9.969   8.133   2.902  1.00 26.01    -0.003 A 
HETATM   26  C17   D T1001       9.962   8.353   1.430  1.00 24.28     0.067 A 
HETATM   27  C18   D T1001       9.978   7.210   0.575  1.00 22.80     0.022 A 
BRANCH  25  28
HETATM   28  C20   D T1001       9.959   9.293   3.953  1.00 28.53     0.273 C 
BRANCH  28  29
HETATM   29  N3    D T1001       9.488   8.912   5.293  1.00 30.48     0.145 N 
HETATM   30  C21   D T1001      10.534   9.037   6.370  1.00 31.29     0.286 C 
HETATM   31  C22   D T1001      10.008   8.426   7.713  1.00 35.47     0.286 C 
HETATM   32  N4    D T1001       8.780   9.147   8.164  1.00 37.17     0.143 N 
HETATM   33  C23   D T1001       7.673   9.111   7.113  1.00 33.99     0.286 C 
HETATM   34  C25   D T1001       8.350   8.716   9.505  1.00 37.63     0.285 C 
HETATM   35  C24   D T1001       8.181   9.568   5.678  1.00 32.15     0.286 C 
ENDBRANCH  28  29
ENDBRANCH  25  28
BRANCH  26  36
HETATM   36  C19   D T1001       9.949   9.742   0.750  1.00 24.31     0.418 C 
HETATM   37  F1    D T1001      11.038  10.414   1.107  1.00 23.22    -0.166 F 
HETATM   38  F2    D T1001       9.944   9.669  -0.580  1.00 23.17    -0.166 F 
HETATM   39  F3    D T1001       8.838  10.403   1.089  1.00 25.20    -0.166 F 
ENDBRANCH  26  36
ENDBRANCH   3  22
TORSDOF 7
ENDMDL
MODEL 5
REMARK VINA RESULT:    -8.459      5.897     11.549
REMARK INTER + INTRA:         -13.004
REMARK INTER:                 -11.669
REMARK INTRA:                  -1.335
REMARK UNBOUND:                -1.084
REMARK  7 active torsions:
REMARK  status: ('A' for Active; 'I' for Inactive)
REMARK    1  A    between atoms: N3_2  and  C20_12 
REMARK    2  A    between atoms: C4_3  and  C5_4 
REMARK    3  A    between atoms: C13_9  and  N2_29 
REMARK    4  A    between atoms: C17_11  and  C19_33 
REMARK    5  A    between atoms: C20_12  and  C16_31 
REMARK    6  A    between atoms: C2_23  and  C3_24 
REMARK    7  A    between atoms: C9_25  and  C12_27 
REMARK       I    between atoms: C12_27  and  N2_29 
ROOT
HETATM    1  C12   D T1001      10.058   4.698  -0.364  1.00 21.80     0.275 C 
HETATM    2  O1    D T1001      10.802   4.226  -1.219  1.00 20.56    -0.266 OA
HETATM    3  N2    D T1001       9.499   3.985   0.647  1.00 21.64    -0.209 NA
ENDROOT
BRANCH   1   4
HETATM    4  C9    D T1001       9.759   6.158  -0.400  1.00 20.47     0.037 A 
HETATM    5  C8    D T1001       9.621   6.935  -1.636  1.00 19.32     0.036 A 
HETATM    6  C7    D T1001       9.313   8.362  -1.561  1.00 17.62     0.028 A 
HETATM    7  C6    D T1001       9.142   9.005  -0.252  1.00 19.91    -0.036 A 
HETATM    8  C5    D T1001       9.287   8.192   0.978  1.00 19.06     0.034 A 
HETATM    9  C11   D T1001       8.806  10.507  -0.196  1.00 18.27     0.027 C 
HETATM   10  C10   D T1001       9.588   6.818   0.875  1.00 19.95     0.008 A 
BRANCH   8  11
HETATM   11  C4    D T1001       9.131   8.710   2.337  1.00 21.50    -0.059 C 
HETATM   12  C3    D T1001       9.137   9.045   3.489  1.00 21.04    -0.039 C 
BRANCH  12  13
HETATM   13  C2    D T1001       9.255   9.360   4.828  1.00 21.60     0.145 A 
HETATM   14  N82   D T1001       9.582   8.509   5.842  1.00 22.53    -0.203 N 
HETATM   15  N81   D T1001       9.873   7.162   5.736  1.00 22.62    -0.162 NA
HETATM   16  C84   D T1001       9.553   9.340   7.029  1.00 22.97     0.165 A 
HETATM   17  C83   D T1001      10.161   6.597   6.925  1.00 23.24     0.121 A 
HETATM   18  C82   D T1001      10.172   7.292   8.206  1.00 23.56     0.026 A 
HETATM   19  C81   D T1001       9.872   8.661   8.256  1.00 23.17     0.041 A 
HETATM   20  N1    D T1001       9.237  10.587   6.726  1.00 21.53    -0.223 NA
HETATM   21  C1    D T1001       9.047  10.601   5.357  1.00 23.44     0.128 A 
ENDBRANCH  12  13
ENDBRANCH   8  11
ENDBRANCH   1   4
BRANCH   3  22
HETATM   22  C13   D T1001       9.839   2.653   1.047  1.00 24.15     0.081 A 
HETATM   23  C14   D T1001       8.994   1.564   0.636  1.00 25.53    -0.003 A 
HETATM   24  C15   D T1001       9.323   0.207   1.027  1.00 24.42     0.051 A 
HETATM   25  C16   D T1001      10.502  -0.091   1.829  1.00 26.01    -0.003 A 
HETATM   26  C17   D T1001      11.377   1.037   2.252  1.00 24.28     0.067 A 
HETATM   27  C18   D T1001      11.016   2.359   1.849  1.00 22.80     0.022 A 
BRANCH  25  28
HETATM   28  C20   D T1001      10.780  -1.588   2.195  1.00 28.53     0.273 C 
BRANCH  28  29
HETATM   29  N3    D T1001      10.971  -2.482   1.043  1.00 30.48     0.145 N 
HETATM   30  C21   D T1001      11.989  -1.988   0.047  1.00 31.29     0.286 C 
HETATM   31  C22   D T1001      11.981  -2.894  -1.232  1.00 35.47     0.286 C 
HETATM   32  N4    D T1001      12.320  -4.303  -0.871  1.00 37.17     0.143 N 
HETATM   33  C23   D T1001      11.363  -4.876   0.172  1.00 33.99     0.286 C 
HETATM   34  C25   D T1001      12.488  -5.150  -2.064  1.00 37.63     0.285 C 
HETATM   35  C24   D T1001      11.198  -3.924   1.434  1.00 32.15     0.286 C 
ENDBRANCH  28  29
ENDBRANCH  25  28
BRANCH  26  36
HETATM   36  C19   D T1001      12.664   0.884   3.094  1.00 24.31     0.418 C 
HETATM   37  F1    D T1001      12.332   0.644   4.359  1.00 23.22    -0.166 F 
HETATM   38  F2    D T1001      13.434  -0.123   2.687  1.00 23.17    -0.166 F 
HETATM   39  F3    D T1001      13.410   1.987   2.989  1.00 25.20    -0.166 F 
ENDBRANCH  26  36
ENDBRANCH   3  22
TORSDOF 7
ENDMDL
MODEL 6
REMARK VINA RESULT:    -8.425      6.678      9.966
REMARK INTER + INTRA:         -12.956
REMARK INTER:                 -12.194
REMARK INTRA:                  -0.762
REMARK UNBOUND:                -1.084
REMARK  7 active torsions:
REMARK  status: ('A' for Active; 'I' for Inactive)
REMARK    1  A    between atoms: N3_2  and  C20_12 
REMARK    2  A    between atoms: C4_3  and  C5_4 
REMARK    3  A    between atoms: C13_9  and  N2_29 
REMARK    4  A    between atoms: C17_11  and  C19_33 
REMARK    5  A    between atoms: C20_12  and  C16_31 
REMARK    6  A    between atoms: C2_23  and  C3_24 
REMARK    7  A    between atoms: C9_25  and  C12_27 
REMARK       I    between atoms: C12_27  and  N2_29 
ROOT
HETATM    1  C12   D T1001       9.621   7.320   0.238  1.00 21.80     0.275 C 
HETATM    2  O1    D T1001       9.340   6.258   0.785  1.00 20.56    -0.266 OA
HETATM    3  N2    D T1001       9.871   7.457  -1.089  1.00 21.64    -0.209 NA
ENDROOT
BRANCH   1   4
HETATM    4  C9    D T1001       9.665   8.562   1.060  1.00 20.47     0.037 A 
HETATM    5  C8    D T1001      10.114   9.863   0.554  1.00 19.32     0.036 A 
HETATM    6  C7    D T1001      10.107  11.025   1.442  1.00 17.62     0.028 A 
HETATM    7  C6    D T1001       9.649  10.881   2.830  1.00 19.91    -0.036 A 
HETATM    8  C5    D T1001       9.202   9.552   3.310  1.00 19.06     0.034 A 
HETATM    9  C11   D T1001       9.639  12.120   3.745  1.00 18.27     0.027 C 
HETATM   10  C10   D T1001       9.223   8.449   2.432  1.00 19.95     0.008 A 
BRANCH   8  11
HETATM   11  C4    D T1001       8.715   9.281   4.663  1.00 21.50    -0.059 C 
HETATM   12  C3    D T1001       8.475   9.046   5.815  1.00 21.04    -0.039 C 
BRANCH  12  13
HETATM   13  C2    D T1001       8.331   8.773   7.160  1.00 21.60     0.145 A 
HETATM   14  N82   D T1001       8.608   9.612   8.198  1.00 22.53    -0.203 N 
HETATM   15  N81   D T1001       9.078  10.908   8.117  1.00 22.62    -0.162 NA
HETATM   16  C84   D T1001       8.295   8.832   9.380  1.00 22.97     0.165 A 
HETATM   17  C83   D T1001       9.251  11.476   9.328  1.00 23.24     0.121 A 
HETATM   18  C82   D T1001       8.986  10.828  10.606  1.00 23.56     0.026 A 
HETATM   19  C81   D T1001       8.505   9.510  10.631  1.00 23.17     0.041 A 
HETATM   20  N1    D T1001       7.861   7.628   9.051  1.00 21.53    -0.223 NA
HETATM   21  C1    D T1001       7.887   7.587   7.670  1.00 23.44     0.128 A 
ENDBRANCH  12  13
ENDBRANCH   8  11
ENDBRANCH   1   4
BRANCH   3  22
HETATM   22  C13   D T1001       9.631   6.484  -2.112  1.00 24.15     0.081 A 
HETATM   23  C14   D T1001      10.217   6.679  -3.412  1.00 25.53    -0.003 A 
HETATM   24  C15   D T1001       9.990   5.704  -4.460  1.00 24.42     0.051 A 
HETATM   25  C16   D T1001       9.180   4.514  -4.233  1.00 26.01    -0.003 A 
HETATM   26  C17   D T1001       8.577   4.313  -2.887  1.00 24.28     0.067 A 
HETATM   27  C18   D T1001       8.822   5.298  -1.883  1.00 22.80     0.022 A 
BRANCH  25  28
HETATM   28  C20   D T1001       8.999   3.513  -5.423  1.00 28.53     0.273 C 
BRANCH  28  29
HETATM   29  N3    D T1001       7.839   3.780  -6.286  1.00 30.48     0.145 N 
HETATM   30  C21   D T1001       8.134   4.699  -7.443  1.00 31.29     0.286 C 
HETATM   31  C22   D T1001       6.809   5.082  -8.185  1.00 35.47     0.286 C 
HETATM   32  N4    D T1001       6.139   3.858  -8.716  1.00 37.17     0.143 N 
HETATM   33  C23   D T1001       5.838   2.844  -7.614  1.00 33.99     0.286 C 
HETATM   34  C25   D T1001       4.980   4.188  -9.562  1.00 37.63     0.285 C 
HETATM   35  C24   D T1001       7.110   2.527  -6.715  1.00 32.15     0.286 C 
ENDBRANCH  28  29
ENDBRANCH  25  28
BRANCH  26  36
HETATM   36  C19   D T1001       7.704   3.100  -2.487  1.00 24.31     0.418 C 
HETATM   37  F1    D T1001       7.175   3.320  -1.288  1.00 23.22    -0.166 F 
HETATM   38  F2    D T1001       6.699   2.883  -3.333  1.00 23.17    -0.166 F 
HETATM   39  F3    D T1001       8.442   1.987  -2.495  1.00 25.20    -0.166 F 
ENDBRANCH  26  36
ENDBRANCH   3  22
TORSDOF 7
ENDMDL
MODEL 7
REMARK VINA RESULT:    -8.312      5.894      8.965
REMARK INTER + INTRA:         -12.797
REMARK INTER:                 -12.252
REMARK INTRA:                  -0.545
REMARK UNBOUND:                -1.084
REMARK  7 active torsions:
REMARK  status: ('A' for Active; 'I' for Inactive)
REMARK    1  A    between atoms: N3_2  and  C20_12 
REMARK    2  A    between atoms: C4_3  and  C5_4 
REMARK    3  A    between atoms: C13_9  and  N2_29 
REMARK    4  A    between atoms: C17_11  and  C19_33 
REMARK    5  A    between atoms: C20_12  and  C16_31 
REMARK    6  A    between atoms: C2_23  and  C3_24 
REMARK    7  A    between atoms: C9_25  and  C12_27 
REMARK       I    between atoms: C12_27  and  N2_29 
ROOT
HETATM    1  C12   D T1001       9.177   7.136  -1.115  1.00 21.80     0.275 C 
HETATM    2  O1    D T1001       8.126   6.625  -0.739  1.00 20.56    -0.266 OA
HETATM    3  N2    D T1001       9.938   6.665  -2.136  1.00 21.64    -0.209 NA
ENDROOT
BRANCH   1   4
HETATM    4  C9    D T1001       9.655   8.376  -0.440  1.00 20.47     0.037 A 
HETATM    5  C8    D T1001      10.438   9.421  -1.108  1.00 19.32     0.036 A 
HETATM    6  C7    D T1001      10.847  10.607  -0.357  1.00 17.62     0.028 A 
HETATM    7  C6    D T1001      10.469  10.744   1.056  1.00 19.91    -0.036 A 
HETATM    8  C5    D T1001       9.678   9.670   1.701  1.00 19.06     0.034 A 
HETATM    9  C11   D T1001      10.901  12.006   1.825  1.00 18.27     0.027 C 
HETATM   10  C10   D T1001       9.301   8.536   0.952  1.00 19.95     0.008 A 
BRANCH   8  11
HETATM   11  C4    D T1001       9.232   9.692   3.093  1.00 21.50    -0.059 C 
HETATM   12  C3    D T1001       8.926   9.555   4.246  1.00 21.04    -0.039 C 
BRANCH  12  13
HETATM   13  C2    D T1001       8.631   9.279   5.565  1.00 21.60     0.145 A 
HETATM   14  N82   D T1001       9.124   8.253   6.316  1.00 22.53    -0.203 N 
HETATM   15  N81   D T1001      10.027   7.288   5.913  1.00 22.62    -0.162 NA
HETATM   16  C84   D T1001       8.487   8.418   7.608  1.00 22.97     0.165 A 
HETATM   17  C83   D T1001      10.320   6.409   6.892  1.00 23.24     0.121 A 
HETATM   18  C82   D T1001       9.765   6.434   8.239  1.00 23.56     0.026 A 
HETATM   19  C81   D T1001       8.853   7.439   8.597  1.00 23.17     0.041 A 
HETATM   20  N1    D T1001       7.686   9.468   7.610  1.00 21.53    -0.223 NA
HETATM   21  C1    D T1001       7.770  10.003   6.338  1.00 23.44     0.128 A 
ENDBRANCH  12  13
ENDBRANCH   8  11
ENDBRANCH   1   4
BRANCH   3  22
HETATM   22  C13   D T1001       9.564   5.668  -3.094  1.00 24.15     0.081 A 
HETATM   23  C14   D T1001       9.998   5.815  -4.459  1.00 25.53    -0.003 A 
HETATM   24  C15   D T1001       9.634   4.816  -5.444  1.00 24.42     0.051 A 
HETATM   25  C16   D T1001       8.836   3.649  -5.088  1.00 26.01    -0.003 A 
HETATM   26  C17   D T1001       8.390   3.498  -3.676  1.00 24.28     0.067 A 
HETATM   27  C18   D T1001       8.767   4.506  -2.737  1.00 22.80     0.022 A 
BRANCH  25  28
HETATM   28  C20   D T1001       8.501   2.619  -6.219  1.00 28.53     0.273 C 
BRANCH  28  29
HETATM   29  N3    D T1001       7.308   2.941  -7.016  1.00 30.48     0.145 N 
HETATM   30  C21   D T1001       7.415   4.233  -7.784  1.00 31.29     0.286 C 
HETATM   31  C22   D T1001       6.037   4.591  -8.439  1.00 35.47     0.286 C 
HETATM   32  N4    D T1001       5.618   3.514  -9.386  1.00 37.17     0.143 N 
HETATM   33  C23   D T1001       5.525   2.152  -8.702  1.00 33.99     0.286 C 
HETATM   34  C25   D T1001       4.414   3.889 -10.146  1.00 37.63     0.285 C 
HETATM   35  C24   D T1001       6.837   1.793  -7.880  1.00 32.15     0.286 C 
ENDBRANCH  28  29
ENDBRANCH  25  28
BRANCH  26  36
HETATM   36  C19   D T1001       7.550   2.316  -3.142  1.00 24.31     0.418 C 
HETATM   37  F1    D T1001       6.942   2.685  -2.018  1.00 23.22    -0.166 F 
HETATM   38  F2    D T1001       6.606   1.922  -3.995  1.00 23.17    -0.166 F 
HETATM   39  F3    D T1001       8.335   1.254  -2.942  1.00 25.20    -0.166 F 
ENDBRANCH  26  36
ENDBRANCH   3  22
TORSDOF 7
ENDMDL
MODEL 8
REMARK VINA RESULT:    -8.274      2.551      3.481
REMARK INTER + INTRA:         -12.743
REMARK INTER:                 -11.922
REMARK INTRA:                  -0.821
REMARK UNBOUND:                -1.084
REMARK  7 active torsions:
REMARK  status: ('A' for Active; 'I' for Inactive)
REMARK    1  A    between atoms: N3_2  and  C20_12 
REMARK    2  A    between atoms: C4_3  and  C5_4 
REMARK    3  A    between atoms: C13_9  and  N2_29 
REMARK    4  A    between atoms: C17_11  and  C19_33 
REMARK    5  A    between atoms: C20_12  and  C16_31 
REMARK    6  A    between atoms: C2_23  and  C3_24 
REMARK    7  A    between atoms: C9_25  and  C12_27 
REMARK       I    between atoms: C12_27  and  N2_29 
ROOT
HETATM    1  C12   D T1001       8.823   4.451  -1.932  1.00 21.80     0.275 C 
HETATM    2  O1    D T1001       9.368   5.095  -2.825  1.00 20.56    -0.266 OA
HETATM    3  N2    D T1001       7.871   3.506  -2.139  1.00 21.64    -0.209 NA
ENDROOT
BRANCH   1   4
HETATM    4  C9    D T1001       9.243   4.683  -0.521  1.00 20.47     0.037 A 
HETATM    5  C8    D T1001       9.001   5.932   0.209  1.00 19.32     0.036 A 
HETATM    6  C7    D T1001       9.442   6.052   1.598  1.00 17.62     0.028 A 
HETATM    7  C6    D T1001      10.120   4.924   2.250  1.00 19.91    -0.036 A 
HETATM    8  C5    D T1001      10.348   3.676   1.485  1.00 19.06     0.034 A 
HETATM    9  C11   D T1001      10.566   5.068   3.717  1.00 18.27     0.027 C 
HETATM   10  C10   D T1001       9.914   3.590   0.145  1.00 19.95     0.008 A 
BRANCH   8  11
HETATM   11  C4    D T1001      10.999   2.482   2.022  1.00 21.50    -0.059 C 
HETATM   12  C3    D T1001      11.545   1.451   2.305  1.00 21.04    -0.039 C 
BRANCH  12  13
HETATM   13  C2    D T1001      12.180   0.242   2.501  1.00 21.60     0.145 A 
HETATM   14  N82   D T1001      11.691  -0.996   2.203  1.00 22.53    -0.203 N 
HETATM   15  N81   D T1001      10.467  -1.292   1.636  1.00 22.62    -0.162 NA
HETATM   16  C84   D T1001      12.743  -1.904   2.616  1.00 22.97     0.165 A 
HETATM   17  C83   D T1001      10.279  -2.615   1.465  1.00 23.24     0.121 A 
HETATM   18  C82   D T1001      11.233  -3.655   1.829  1.00 23.56     0.026 A 
HETATM   19  C81   D T1001      12.464  -3.299   2.400  1.00 23.17     0.041 A 
HETATM   20  N1    D T1001      13.772  -1.241   3.113  1.00 21.53    -0.223 NA
HETATM   21  C1    D T1001      13.422   0.095   3.047  1.00 23.44     0.128 A 
ENDBRANCH  12  13
ENDBRANCH   8  11
ENDBRANCH   1   4
BRANCH   3  22
HETATM   22  C13   D T1001       7.500   2.922  -3.393  1.00 24.15     0.081 A 
HETATM   23  C14   D T1001       6.505   3.578  -4.200  1.00 25.53    -0.003 A 
HETATM   24  C15   D T1001       6.118   3.006  -5.475  1.00 24.42     0.051 A 
HETATM   25  C16   D T1001       6.717   1.774  -5.972  1.00 26.01    -0.003 A 
HETATM   26  C17   D T1001       7.747   1.099  -5.136  1.00 24.28     0.067 A 
HETATM   27  C18   D T1001       8.098   1.692  -3.886  1.00 22.80     0.022 A 
BRANCH  25  28
HETATM   28  C20   D T1001       6.241   1.238  -7.364  1.00 28.53     0.273 C 
BRANCH  28  29
HETATM   29  N3    D T1001       5.438   2.185  -8.151  1.00 30.48     0.145 N 
HETATM   30  C21   D T1001       6.183   3.431  -8.556  1.00 31.29     0.286 C 
HETATM   31  C22   D T1001       5.202   4.462  -9.212  1.00 35.47     0.286 C 
HETATM   32  N4    D T1001       4.572   3.873 -10.432  1.00 37.17     0.143 N 
HETATM   33  C23   D T1001       3.826   2.576 -10.125  1.00 33.99     0.286 C 
HETATM   34  C25   D T1001       3.774   4.865 -11.171  1.00 37.63     0.285 C 
HETATM   35  C24   D T1001       4.718   1.540  -9.313  1.00 32.15     0.286 C 
ENDBRANCH  28  29
ENDBRANCH  25  28
BRANCH  26  36
HETATM   36  C19   D T1001       8.479  -0.206  -5.528  1.00 24.31     0.418 C 
HETATM   37  F1    D T1001       7.671  -1.240  -5.318  1.00 23.22    -0.166 F 
HETATM   38  F2    D T1001       8.839  -0.234  -6.809  1.00 23.17    -0.166 F 
HETATM   39  F3    D T1001       9.608  -0.322  -4.823  1.00 25.20    -0.166 F 
ENDBRANCH  26  36
ENDBRANCH   3  22
TORSDOF 7
ENDMDL
MODEL 9
REMARK VINA RESULT:    -8.101      5.439      8.772
REMARK INTER + INTRA:         -12.499
REMARK INTER:                 -12.250
REMARK INTRA:                  -0.249
REMARK UNBOUND:                -1.084
REMARK  7 active torsions:
REMARK  status: ('A' for Active; 'I' for Inactive)
REMARK    1  A    between atoms: N3_2  and  C20_12 
REMARK    2  A    between atoms: C4_3  and  C5_4 
REMARK    3  A    between atoms: C13_9  and  N2_29 
REMARK    4  A    between atoms: C17_11  and  C19_33 
REMARK    5  A    between atoms: C20_12  and  C16_31 
REMARK    6  A    between atoms: C2_23  and  C3_24 
REMARK    7  A    between atoms: C9_25  and  C12_27 
REMARK       I    between atoms: C12_27  and  N2_29 
ROOT
HETATM    1  C12   D T1001       9.838   4.857  -0.312  1.00 21.80     0.275 C 
HETATM    2  O1    D T1001       9.106   4.114   0.336  1.00 20.56    -0.266 OA
HETATM    3  N2    D T1001      10.136   4.688  -1.625  1.00 21.64    -0.209 NA
ENDROOT
BRANCH   1   4
HETATM    4  C9    D T1001      10.427   6.049   0.361  1.00 20.47     0.037 A 
HETATM    5  C8    D T1001      11.335   6.994  -0.296  1.00 19.32     0.036 A 
HETATM    6  C7    D T1001      11.848   8.141   0.451  1.00 17.62     0.028 A 
HETATM    7  C6    D T1001      11.449   8.339   1.851  1.00 19.91    -0.036 A 
HETATM    8  C5    D T1001      10.530   7.366   2.485  1.00 19.06     0.034 A 
HETATM    9  C11   D T1001      11.992   9.560   2.616  1.00 18.27     0.027 C 
HETATM   10  C10   D T1001      10.053   6.267   1.740  1.00 19.95     0.008 A 
BRANCH   8  11
HETATM   11  C4    D T1001      10.050   7.457   3.864  1.00 21.50    -0.059 C 
HETATM   12  C3    D T1001       9.810   7.490   5.040  1.00 21.04    -0.039 C 
BRANCH  12  13
HETATM   13  C2    D T1001       9.664   7.499   6.412  1.00 21.60     0.145 A 
HETATM   14  N82   D T1001       8.855   8.319   7.142  1.00 22.53    -0.203 N 
HETATM   15  N81   D T1001       8.010   9.299   6.659  1.00 22.62    -0.162 NA
HETATM   16  C84   D T1001       9.091   7.921   8.516  1.00 22.97     0.165 A 
HETATM   17  C83   D T1001       7.340   9.938   7.638  1.00 23.24     0.121 A 
HETATM   18  C82   D T1001       7.466   9.661   9.063  1.00 23.56     0.026 A 
HETATM   19  C81   D T1001       8.337   8.651   9.500  1.00 23.17     0.041 A 
HETATM   20  N1    D T1001       9.969   6.936   8.580  1.00 21.53    -0.223 NA
HETATM   21  C1    D T1001      10.331   6.675   7.271  1.00 23.44     0.128 A 
ENDBRANCH  12  13
ENDBRANCH   8  11
ENDBRANCH   1   4
BRANCH   3  22
HETATM   22  C13   D T1001       9.495   3.793  -2.541  1.00 24.15     0.081 A 
HETATM   23  C14   D T1001       8.085   3.942  -2.792  1.00 25.53    -0.003 A 
HETATM   24  C15   D T1001       7.418   3.049  -3.718  1.00 24.42     0.051 A 
HETATM   25  C16   D T1001       8.141   1.995  -4.417  1.00 26.01    -0.003 A 
HETATM   26  C17   D T1001       9.600   1.844  -4.159  1.00 24.28     0.067 A 
HETATM   27  C18   D T1001      10.219   2.741  -3.236  1.00 22.80     0.022 A 
BRANCH  25  28
HETATM   28  C20   D T1001       7.337   1.086  -5.406  1.00 28.53     0.273 C 
BRANCH  28  29
HETATM   29  N3    D T1001       6.577   1.811  -6.435  1.00 30.48     0.145 N 
HETATM   30  C21   D T1001       7.172   3.143  -6.812  1.00 31.29     0.286 C 
HETATM   31  C22   D T1001       6.198   3.925  -7.758  1.00 35.47     0.286 C 
HETATM   32  N4    D T1001       5.955   3.147  -9.010  1.00 37.17     0.143 N 
HETATM   33  C23   D T1001       5.389   1.758  -8.723  1.00 33.99     0.286 C 
HETATM   34  C25   D T1001       5.182   3.920  -9.996  1.00 37.63     0.285 C 
HETATM   35  C24   D T1001       6.244   0.964  -7.643  1.00 32.15     0.286 C 
ENDBRANCH  28  29
ENDBRANCH  25  28
BRANCH  26  36
HETATM   36  C19   D T1001      10.505   0.784  -4.827  1.00 24.31     0.418 C 
HETATM   37  F1    D T1001       9.793   0.102  -5.719  1.00 23.22    -0.166 F 
HETATM   38  F2    D T1001      11.543   1.317  -5.469  1.00 23.17    -0.166 F 
HETATM   39  F3    D T1001      11.020  -0.025  -3.897  1.00 25.20    -0.166 F 
ENDBRANCH  26  36
ENDBRANCH   3  22
TORSDOF 7
ENDMDL
