MODEL 1
REMARK VINA RESULT:    -8.811      0.000      0.000
REMARK INTER + INTRA:         -15.941
REMARK INTER:                 -13.962
REMARK INTRA:                  -1.979
REMARK UNBOUND:                -1.979
REMARK  10 active torsions:
REMARK  status: ('A' for Active; 'I' for Inactive)
REMARK    1  A    between atoms: C7_7  and  C8_8 
REMARK       I    between atoms: C8_8  and  N9_9 
REMARK    2  A    between atoms: N9_9  and  C40_40 
REMARK    3  A    between atoms: C16_16  and  N18_18 
REMARK    4  A    between atoms: N18_18  and  C19_19 
REMARK    5  A    between atoms: C20_20  and  O25_25 
REMARK    6  A    between atoms: C22_22  and  C26_26 
REMARK    7  A    between atoms: O25_25  and  C36_36 
REMARK       I    between atoms: C26_26  and  N27_27 
REMARK    8  A    between atoms: N27_27  and  C29_29 
REMARK    9  A    between atoms: C41_41  and  C48_48 
REMARK   10  A    between atoms: C45_45  and  C46_46 
ROOT
HETATM    1  C1    D T1795       2.308 -17.862 -14.514  1.00 51.63     0.034 C 
HETATM    2  C2    D T1795       3.018 -19.134 -14.033  1.00 51.52     0.034 C 
HETATM    3  C3    D T1795       1.451 -17.192 -13.470  1.00 55.48     0.021 A 
HETATM    4  C4    D T1795       1.105 -17.805 -12.285  1.00 57.75     0.094 A 
HETATM    5  N5    D T1795       0.278 -16.900 -11.583  1.00 62.61    -0.248 N 
HETATM    6  N6    D T1795       0.124 -15.752 -12.284  1.00 59.90    -0.165 NA
HETATM    7  C7    D T1795       0.808 -15.882 -13.421  1.00 58.43     0.156 A 
HETATM    8  C11   D T1795      -0.400 -17.022 -10.298  1.00 65.05     0.154 C 
HETATM    9  C12   D T1795       1.615 -19.105 -11.894  1.00 55.85     0.114 A 
HETATM   10  C13   D T1795       2.483 -19.766 -12.771  1.00 52.95     0.018 A 
HETATM   11  C14   D T1795       2.861 -21.022 -12.344  1.00 52.30     0.115 A 
HETATM   12  N15   D T1795       2.466 -21.593 -11.193  1.00 54.82    -0.058 NA
HETATM   13  C16   D T1795       1.653 -20.851 -10.425  1.00 57.72     0.750 A 
HETATM   14  N17   D T1795       1.217 -19.620 -10.723  1.00 57.61    -0.058 NA
ENDROOT
BRANCH  13  15
HETATM   15  N18   D T1795       1.199 -21.309  -9.223  1.00 60.94    -0.057 NA
BRANCH  15  16
HETATM   16  C19   D T1795      -0.080 -21.260  -8.591  1.00 65.47     0.122 A 
HETATM   17  C20   D T1795      -0.156 -21.052  -7.189  1.00 70.47     0.120 A 
HETATM   18  C21   D T1795      -1.389 -21.020  -6.545  1.00 69.94     0.031 A 
HETATM   19  C22   D T1795      -2.563 -21.150  -7.285  1.00 71.79     0.060 A 
HETATM   20  C23   D T1795      -2.489 -21.253  -8.673  1.00 67.37     0.006 A 
HETATM   21  C24   D T1795      -1.268 -21.316  -9.321  1.00 64.33     0.022 A 
BRANCH  17  22
HETATM   22  O25   D T1795       0.988 -20.787  -6.444  1.00 74.50    -0.252 OA
BRANCH  22  23
HETATM   23  C36   D T1795       1.551 -19.582  -6.397  1.00 73.62     0.530 C 
HETATM   24  F37   D T1795       2.804 -19.750  -6.723  1.00 76.85    -0.144 F 
HETATM   25  F38   D T1795       1.528 -19.144  -5.165  1.00 74.19    -0.144 F 
HETATM   26  F39   D T1795       1.077 -18.635  -7.174  1.00 69.98    -0.144 F 
ENDBRANCH  22  23
ENDBRANCH  17  22
BRANCH  19  27
HETATM   27  C26   D T1795      -3.893 -21.309  -6.611  1.00 79.40     0.275 C 
HETATM   28  N27   D T1795      -4.354 -20.261  -5.911  1.00 83.12    -0.236 NA
HETATM   29  O28   D T1795      -4.520 -22.365  -6.690  1.00 82.99    -0.266 OA
BRANCH  28  30
HETATM   30  C29   D T1795      -5.657 -20.277  -5.247  1.00 87.94     0.111 C 
HETATM   31  C30   D T1795      -5.620 -19.489  -3.944  1.00 90.97     0.060 C 
HETATM   32  C31   D T1795      -7.015 -19.442  -3.304  1.00 92.12     0.252 C 
HETATM   33  N32   D T1795      -7.996 -18.865  -4.222  1.00 92.37     0.139 N 
HETATM   34  C33   D T1795      -8.093 -19.692  -5.426  1.00 90.99     0.252 C 
HETATM   35  C35   D T1795      -9.302 -18.745  -3.572  1.00 92.33     0.285 C 
HETATM   36  C34   D T1795      -6.751 -19.747  -6.166  1.00 89.52     0.060 C 
ENDBRANCH  28  30
ENDBRANCH  19  27
ENDBRANCH  15  16
ENDBRANCH  13  15
BRANCH   7  37
HETATM   37  C8    D T1795       0.884 -14.753 -14.390  1.00 60.70     0.298 C 
HETATM   38  N9    D T1795       0.278 -15.003 -15.581  1.00 63.10    -0.207 NA
HETATM   39  O10   D T1795       1.425 -13.684 -14.105  1.00 59.02    -0.263 OA
BRANCH  38  40
HETATM   40  C40   D T1795       0.193 -14.084 -16.667  1.00 66.12     0.077 A 
HETATM   41  C41   D T1795      -0.582 -12.915 -16.586  1.00 65.21    -0.005 A 
HETATM   42  C42   D T1795      -0.466 -11.993 -17.623  1.00 66.54    -0.003 A 
HETATM   43  C43   D T1795       0.373 -12.234 -18.700  1.00 67.86    -0.001 A 
HETATM   44  C44   D T1795       1.093 -13.417 -18.779  1.00 69.17    -0.003 A 
HETATM   45  C45   D T1795       0.992 -14.384 -17.779  1.00 69.30    -0.005 A 
BRANCH  41  46
HETATM   46  C48   D T1795      -1.589 -12.643 -15.485  1.00 62.37     0.028 C 
HETATM   47  C49   D T1795      -2.396 -11.373 -15.640  1.00 61.99     0.005 C 
ENDBRANCH  41  46
BRANCH  45  48
HETATM   48  C46   D T1795       1.561 -15.771 -18.026  1.00 69.86     0.028 C 
HETATM   49  C47   D T1795       3.044 -15.889 -18.006  1.00 69.60     0.005 C 
ENDBRANCH  45  48
ENDBRANCH  38  40
ENDBRANCH   7  37
TORSDOF 10
ENDMDL
MODEL 2
REMARK VINA RESULT:    -7.534      3.870      6.933
REMARK INTER + INTRA:         -13.918
REMARK INTER:                 -12.258
REMARK INTRA:                  -1.660
REMARK UNBOUND:                -1.979
REMARK  10 active torsions:
REMARK  status: ('A' for Active; 'I' for Inactive)
REMARK    1  A    between atoms: C7_7  and  C8_8 
REMARK       I    between atoms: C8_8  and  N9_9 
REMARK    2  A    between atoms: N9_9  and  C40_40 
REMARK    3  A    between atoms: C16_16  and  N18_18 
REMARK    4  A    between atoms: N18_18  and  C19_19 
REMARK    5  A    between atoms: C20_20  and  O25_25 
REMARK    6  A    between atoms: C22_22  and  C26_26 
REMARK    7  A    between atoms: O25_25  and  C36_36 
REMARK       I    between atoms: C26_26  and  N27_27 
REMARK    8  A    between atoms: N27_27  and  C29_29 
REMARK    9  A    between atoms: C41_41  and  C48_48 
REMARK   10  A    between atoms: C45_45  and  C46_46 
ROOT
HETATM    1  C1    D T1795      -0.737 -14.336 -12.837  1.00 51.63     0.034 C 
HETATM    2  C2    D T1795      -1.250 -14.228 -11.396  1.00 51.52     0.034 C 
HETATM    3  C3    D T1795      -0.043 -15.635 -13.157  1.00 55.48     0.021 A 
HETATM    4  C4    D T1795       0.352 -16.528 -12.185  1.00 57.75     0.094 A 
HETATM    5  N5    D T1795       0.993 -17.599 -12.848  1.00 62.61    -0.248 N 
HETATM    6  N6    D T1795       0.986 -17.403 -14.187  1.00 59.90    -0.165 NA
HETATM    7  C7    D T1795       0.377 -16.239 -14.419  1.00 58.43     0.156 A 
HETATM    8  C11   D T1795       1.630 -18.802 -12.328  1.00 65.05     0.154 C 
HETATM    9  C12   D T1795       0.044 -16.347 -10.780  1.00 55.85     0.114 A 
HETATM   10  C13   D T1795      -0.670 -15.204 -10.401  1.00 52.95     0.018 A 
HETATM   11  C14   D T1795      -0.855 -15.084  -9.039  1.00 52.30     0.115 A 
HETATM   12  N15   D T1795      -0.419 -15.967  -8.125  1.00 54.82    -0.058 NA
HETATM   13  C16   D T1795       0.232 -17.035  -8.611  1.00 57.72     0.750 A 
HETATM   14  N17   D T1795       0.474 -17.269  -9.908  1.00 57.61    -0.058 NA
ENDROOT
BRANCH  13  15
HETATM   15  N18   D T1795       0.707 -18.013  -7.788  1.00 60.94    -0.057 NA
BRANCH  15  16
HETATM   16  C19   D T1795       0.916 -19.413  -7.971  1.00 65.47     0.122 A 
HETATM   17  C20   D T1795       2.027 -20.039  -7.346  1.00 70.47     0.120 A 
HETATM   18  C21   D T1795       2.264 -21.397  -7.524  1.00 69.94     0.031 A 
HETATM   19  C22   D T1795       1.384 -22.163  -8.286  1.00 71.79     0.060 A 
HETATM   20  C23   D T1795       0.240 -21.568  -8.814  1.00 67.37     0.006 A 
HETATM   21  C24   D T1795       0.009 -20.211  -8.669  1.00 64.33     0.022 A 
BRANCH  17  22
HETATM   22  O25   D T1795       2.847 -19.331  -6.474  1.00 74.50    -0.252 OA
BRANCH  22  23
HETATM   23  C36   D T1795       2.453 -18.965  -5.257  1.00 73.62     0.530 C 
HETATM   24  F37   D T1795       2.103 -17.709  -5.346  1.00 76.85    -0.144 F 
HETATM   25  F38   D T1795       3.473 -19.022  -4.439  1.00 74.19    -0.144 F 
HETATM   26  F39   D T1795       1.450 -19.603  -4.700  1.00 69.98    -0.144 F 
ENDBRANCH  22  23
ENDBRANCH  17  22
BRANCH  19  27
HETATM   27  C26   D T1795       1.706 -23.581  -8.655  1.00 79.40     0.275 C 
HETATM   28  N27   D T1795       2.937 -23.825  -9.130  1.00 83.12    -0.236 NA
HETATM   29  O28   D T1795       0.865 -24.472  -8.537  1.00 82.99    -0.266 OA
BRANCH  28  30
HETATM   30  C29   D T1795       3.385 -25.173  -9.482  1.00 87.94     0.111 C 
HETATM   31  C30   D T1795       3.372 -25.379 -10.991  1.00 90.97     0.060 C 
HETATM   32  C31   D T1795       3.928 -26.765 -11.348  1.00 92.12     0.252 C 
HETATM   33  N32   D T1795       5.279 -26.944 -10.820  1.00 92.37     0.139 N 
HETATM   34  C33   D T1795       5.257 -26.843  -9.361  1.00 90.99     0.252 C 
HETATM   35  C35   D T1795       5.832 -28.232 -11.240  1.00 92.33     0.285 C 
HETATM   36  C34   D T1795       4.768 -25.460  -8.910  1.00 89.52     0.060 C 
ENDBRANCH  28  30
ENDBRANCH  19  27
ENDBRANCH  15  16
ENDBRANCH  13  15
BRANCH   7  37
HETATM   37  C8    D T1795       0.157 -15.767 -15.815  1.00 60.70     0.298 C 
HETATM   38  N9    D T1795       0.683 -14.541 -16.073  1.00 63.10    -0.207 NA
HETATM   39  O10   D T1795      -0.425 -16.457 -16.653  1.00 59.02    -0.263 OA
BRANCH  38  40
HETATM   40  C40   D T1795       0.627 -13.873 -17.332  1.00 66.12     0.077 A 
HETATM   41  C41   D T1795       1.456 -14.247 -18.403  1.00 65.21    -0.005 A 
HETATM   42  C42   D T1795       1.210 -13.660 -19.642  1.00 66.54    -0.003 A 
HETATM   43  C43   D T1795       0.195 -12.730 -19.801  1.00 67.86    -0.001 A 
HETATM   44  C44   D T1795      -0.579 -12.343 -18.716  1.00 69.17    -0.003 A 
HETATM   45  C45   D T1795      -0.357 -12.882 -17.449  1.00 69.30    -0.005 A 
BRANCH  41  46
HETATM   46  C48   D T1795       2.642 -15.183 -18.268  1.00 62.37     0.028 C 
HETATM   47  C49   D T1795       2.374 -16.629 -18.623  1.00 61.99     0.005 C 
ENDBRANCH  41  46
BRANCH  45  48
HETATM   48  C46   D T1795      -1.019 -12.242 -16.242  1.00 69.86     0.028 C 
HETATM   49  C47   D T1795      -2.290 -11.512 -16.496  1.00 69.60     0.005 C 
ENDBRANCH  45  48
ENDBRANCH  38  40
ENDBRANCH   7  37
TORSDOF 10
ENDMDL
MODEL 3
REMARK VINA RESULT:    -7.354      9.129     12.378
REMARK INTER + INTRA:         -13.632
REMARK INTER:                 -11.536
REMARK INTRA:                  -2.096
REMARK UNBOUND:                -1.979
REMARK  10 active torsions:
REMARK  status: ('A' for Active; 'I' for Inactive)
REMARK    1  A    between atoms: C7_7  and  C8_8 
REMARK       I    between atoms: C8_8  and  N9_9 
REMARK    2  A    between atoms: N9_9  and  C40_40 
REMARK    3  A    between atoms: C16_16  and  N18_18 
REMARK    4  A    between atoms: N18_18  and  C19_19 
REMARK    5  A    between atoms: C20_20  and  O25_25 
REMARK    6  A    between atoms: C22_22  and  C26_26 
REMARK    7  A    between atoms: O25_25  and  C36_36 
REMARK       I    between atoms: C26_26  and  N27_27 
REMARK    8  A    between atoms: N27_27  and  C29_29 
REMARK    9  A    between atoms: C41_41  and  C48_48 
REMARK   10  A    between atoms: C45_45  and  C46_46 
ROOT
HETATM    1  C1    D T1795      -0.963  -5.352  -6.555  1.00 51.63     0.034 C 
HETATM    2  C2    D T1795      -2.259  -6.173  -6.574  1.00 51.52     0.034 C 
HETATM    3  C3    D T1795       0.271  -6.125  -6.946  1.00 55.48     0.021 A 
HETATM    4  C4    D T1795       0.291  -7.500  -7.039  1.00 57.75     0.094 A 
HETATM    5  N5    D T1795       1.610  -7.867  -7.391  1.00 62.61    -0.248 N 
HETATM    6  N6    D T1795       2.387  -6.768  -7.537  1.00 59.90    -0.165 NA
HETATM    7  C7    D T1795       1.629  -5.703  -7.280  1.00 58.43     0.156 A 
HETATM    8  C11   D T1795       2.216  -9.176  -7.594  1.00 65.05     0.154 C 
HETATM    9  C12   D T1795      -0.894  -8.317  -6.866  1.00 55.85     0.114 A 
HETATM   10  C13   D T1795      -2.104  -7.675  -6.578  1.00 52.95     0.018 A 
HETATM   11  C14   D T1795      -3.160  -8.537  -6.365  1.00 52.30     0.115 A 
HETATM   12  N15   D T1795      -3.081  -9.877  -6.431  1.00 54.82    -0.058 NA
HETATM   13  C16   D T1795      -1.873 -10.375  -6.739  1.00 57.72     0.750 A 
HETATM   14  N17   D T1795      -0.773  -9.647  -6.972  1.00 57.61    -0.058 NA
ENDROOT
BRANCH  13  15
HETATM   15  N18   D T1795      -1.668 -11.718  -6.856  1.00 60.94    -0.057 NA
BRANCH  15  16
HETATM   16  C19   D T1795      -1.551 -12.582  -7.986  1.00 65.47     0.122 A 
HETATM   17  C20   D T1795      -0.265 -12.870  -8.513  1.00 70.47     0.120 A 
HETATM   18  C21   D T1795      -0.125 -13.693  -9.625  1.00 69.94     0.031 A 
HETATM   19  C22   D T1795      -1.250 -14.277 -10.203  1.00 71.79     0.060 A 
HETATM   20  C23   D T1795      -2.501 -14.075  -9.623  1.00 67.37     0.006 A 
HETATM   21  C24   D T1795      -2.656 -13.234  -8.535  1.00 64.33     0.022 A 
BRANCH  17  22
HETATM   22  O25   D T1795       0.884 -12.411  -7.879  1.00 74.50    -0.252 OA
BRANCH  22  23
HETATM   23  C36   D T1795       1.507 -13.106  -6.930  1.00 73.62     0.530 C 
HETATM   24  F37   D T1795       2.549 -12.399  -6.581  1.00 76.85    -0.144 F 
HETATM   25  F38   D T1795       1.954 -14.225  -7.439  1.00 74.19    -0.144 F 
HETATM   26  F39   D T1795       0.854 -13.393  -5.828  1.00 69.98    -0.144 F 
ENDBRANCH  22  23
ENDBRANCH  17  22
BRANCH  19  27
HETATM   27  C26   D T1795      -1.161 -15.013 -11.507  1.00 79.40     0.275 C 
HETATM   28  N27   D T1795      -0.169 -14.663 -12.341  1.00 83.12    -0.236 NA
HETATM   29  O28   D T1795      -1.976 -15.888 -11.797  1.00 82.99    -0.266 OA
BRANCH  28  30
HETATM   30  C29   D T1795       0.049 -15.337 -13.621  1.00 87.94     0.111 C 
HETATM   31  C30   D T1795       0.509 -14.352 -14.689  1.00 90.97     0.060 C 
HETATM   32  C31   D T1795       0.819 -15.088 -16.001  1.00 92.12     0.252 C 
HETATM   33  N32   D T1795       1.826 -16.128 -15.797  1.00 92.37     0.139 N 
HETATM   34  C33   D T1795       1.327 -17.120 -14.845  1.00 90.99     0.252 C 
HETATM   35  C35   D T1795       2.177 -16.763 -17.068  1.00 92.33     0.285 C 
HETATM   36  C34   D T1795       1.045 -16.481 -13.478  1.00 89.52     0.060 C 
ENDBRANCH  28  30
ENDBRANCH  19  27
ENDBRANCH  15  16
ENDBRANCH  13  15
BRANCH   7  37
HETATM   37  C8    D T1795       2.187  -4.328  -7.416  1.00 60.70     0.298 C 
HETATM   38  N9    D T1795       3.535  -4.292  -7.582  1.00 63.10    -0.207 NA
HETATM   39  O10   D T1795       1.467  -3.328  -7.409  1.00 59.02    -0.263 OA
BRANCH  38  40
HETATM   40  C40   D T1795       4.309  -3.108  -7.755  1.00 66.12     0.077 A 
HETATM   41  C41   D T1795       4.838  -2.405  -6.659  1.00 65.21    -0.005 A 
HETATM   42  C42   D T1795       5.724  -1.364  -6.929  1.00 66.54    -0.003 A 
HETATM   43  C43   D T1795       6.053  -1.029  -8.233  1.00 67.86    -0.001 A 
HETATM   44  C44   D T1795       5.481  -1.708  -9.299  1.00 69.17    -0.003 A 
HETATM   45  C45   D T1795       4.569  -2.741  -9.083  1.00 69.30    -0.005 A 
BRANCH  41  46
HETATM   46  C48   D T1795       4.439  -2.661  -5.218  1.00 62.37     0.028 C 
HETATM   47  C49   D T1795       3.330  -1.781  -4.684  1.00 61.99     0.005 C 
ENDBRANCH  41  46
BRANCH  45  48
HETATM   48  C46   D T1795       3.753  -3.270 -10.250  1.00 69.86     0.028 C 
HETATM   49  C47   D T1795       2.594  -2.440 -10.674  1.00 69.60     0.005 C 
ENDBRANCH  45  48
ENDBRANCH  38  40
ENDBRANCH   7  37
TORSDOF 10
ENDMDL
MODEL 4
REMARK VINA RESULT:    -7.313      5.111     11.938
REMARK INTER + INTRA:         -13.568
REMARK INTER:                 -12.904
REMARK INTRA:                  -0.664
REMARK UNBOUND:                -1.979
REMARK  10 active torsions:
REMARK  status: ('A' for Active; 'I' for Inactive)
REMARK    1  A    between atoms: C7_7  and  C8_8 
REMARK       I    between atoms: C8_8  and  N9_9 
REMARK    2  A    between atoms: N9_9  and  C40_40 
REMARK    3  A    between atoms: C16_16  and  N18_18 
REMARK    4  A    between atoms: N18_18  and  C19_19 
REMARK    5  A    between atoms: C20_20  and  O25_25 
REMARK    6  A    between atoms: C22_22  and  C26_26 
REMARK    7  A    between atoms: O25_25  and  C36_36 
REMARK       I    between atoms: C26_26  and  N27_27 
REMARK    8  A    between atoms: N27_27  and  C29_29 
REMARK    9  A    between atoms: C41_41  and  C48_48 
REMARK   10  A    between atoms: C45_45  and  C46_46 
ROOT
HETATM    1  C1    D T1795       2.210 -19.223 -14.087  1.00 51.63     0.034 C 
HETATM    2  C2    D T1795       2.266 -19.002 -15.604  1.00 51.52     0.034 C 
HETATM    3  C3    D T1795       1.539 -18.113 -13.319  1.00 55.48     0.021 A 
HETATM    4  C4    D T1795       1.255 -16.886 -13.878  1.00 57.75     0.094 A 
HETATM    5  N5    D T1795       0.667 -16.099 -12.862  1.00 62.61    -0.248 N 
HETATM    6  N6    D T1795       0.562 -16.806 -11.712  1.00 59.90    -0.165 NA
HETATM    7  C7    D T1795       1.073 -18.017 -11.938  1.00 58.43     0.156 A 
HETATM    8  C11   D T1795       0.197 -14.719 -12.871  1.00 65.05     0.154 C 
HETATM    9  C12   D T1795       1.484 -16.589 -15.278  1.00 55.85     0.114 A 
HETATM   10  C13   D T1795       2.032 -17.591 -16.087  1.00 52.95     0.018 A 
HETATM   11  C14   D T1795       2.275 -17.194 -17.385  1.00 52.30     0.115 A 
HETATM   12  N15   D T1795       2.013 -15.970 -17.875  1.00 54.82    -0.058 NA
HETATM   13  C16   D T1795       1.467 -15.102 -17.010  1.00 57.72     0.750 A 
HETATM   14  N17   D T1795       1.179 -15.363 -15.729  1.00 57.61    -0.058 NA
ENDROOT
BRANCH  13  15
HETATM   15  N18   D T1795       1.135 -13.834 -17.390  1.00 60.94    -0.057 NA
BRANCH  15  16
HETATM   16  C19   D T1795       0.137 -12.920 -16.939  1.00 65.47     0.122 A 
HETATM   17  C20   D T1795      -0.254 -11.844 -17.779  1.00 70.47     0.120 A 
HETATM   18  C21   D T1795      -1.210 -10.928 -17.356  1.00 69.94     0.031 A 
HETATM   19  C22   D T1795      -1.825 -11.088 -16.116  1.00 71.79     0.060 A 
HETATM   20  C23   D T1795      -1.514 -12.201 -15.336  1.00 67.37     0.006 A 
HETATM   21  C24   D T1795      -0.542 -13.102 -15.734  1.00 64.33     0.022 A 
BRANCH  17  22
HETATM   22  O25   D T1795       0.244 -11.734 -19.073  1.00 74.50    -0.252 OA
BRANCH  22  23
HETATM   23  C36   D T1795      -0.169 -12.513 -20.070  1.00 73.62     0.530 C 
HETATM   24  F37   D T1795      -0.014 -11.820 -21.166  1.00 76.85    -0.144 F 
HETATM   25  F38   D T1795      -1.451 -12.740 -19.936  1.00 74.19    -0.144 F 
HETATM   26  F39   D T1795       0.430 -13.666 -20.258  1.00 69.98    -0.144 F 
ENDBRANCH  22  23
ENDBRANCH  17  22
BRANCH  19  27
HETATM   27  C26   D T1795      -2.717 -10.025 -15.547  1.00 79.40     0.275 C 
HETATM   28  N27   D T1795      -2.267  -8.761 -15.590  1.00 83.12    -0.236 NA
HETATM   29  O28   D T1795      -3.806 -10.311 -15.051  1.00 82.99    -0.266 OA
BRANCH  28  30
HETATM   30  C29   D T1795      -3.063  -7.632 -15.108  1.00 87.94     0.111 C 
HETATM   31  C30   D T1795      -2.686  -7.265 -13.678  1.00 90.97     0.060 C 
HETATM   32  C31   D T1795      -3.466  -6.024 -13.219  1.00 92.12     0.252 C 
HETATM   33  N32   D T1795      -3.233  -4.893 -14.115  1.00 92.37     0.139 N 
HETATM   34  C33   D T1795      -3.694  -5.227 -15.463  1.00 90.99     0.252 C 
HETATM   35  C35   D T1795      -3.910  -3.694 -13.620  1.00 92.33     0.285 C 
HETATM   36  C34   D T1795      -2.922  -6.427 -16.029  1.00 89.52     0.060 C 
ENDBRANCH  28  30
ENDBRANCH  19  27
ENDBRANCH  15  16
ENDBRANCH  13  15
BRANCH   7  37
HETATM   37  C8    D T1795       1.048 -19.058 -10.872  1.00 60.70     0.298 C 
HETATM   38  N9    D T1795       0.691 -18.588  -9.648  1.00 63.10    -0.207 NA
HETATM   39  O10   D T1795       1.301 -20.240 -11.108  1.00 59.02    -0.263 OA
BRANCH  38  40
HETATM   40  C40   D T1795       0.572 -19.379  -8.469  1.00 66.12     0.077 A 
HETATM   41  C41   D T1795      -0.370 -20.417  -8.367  1.00 65.21    -0.005 A 
HETATM   42  C42   D T1795      -0.296 -21.247  -7.251  1.00 66.54    -0.003 A 
HETATM   43  C43   D T1795       0.664 -21.041  -6.272  1.00 67.86    -0.001 A 
HETATM   44  C44   D T1795       1.553 -19.981  -6.373  1.00 69.17    -0.003 A 
HETATM   45  C45   D T1795       1.505 -19.105  -7.458  1.00 69.30    -0.005 A 
BRANCH  41  46
HETATM   46  C48   D T1795      -1.502 -20.630  -9.354  1.00 62.37     0.028 C 
HETATM   47  C49   D T1795      -2.681 -21.421  -8.831  1.00 61.99     0.005 C 
ENDBRANCH  41  46
BRANCH  45  48
HETATM   48  C46   D T1795       2.290 -17.807  -7.402  1.00 69.86     0.028 C 
HETATM   49  C47   D T1795       3.330 -17.710  -6.343  1.00 69.60     0.005 C 
ENDBRANCH  45  48
ENDBRANCH  38  40
ENDBRANCH   7  37
TORSDOF 10
ENDMDL
MODEL 5
REMARK VINA RESULT:    -7.046     14.062     16.992
REMARK INTER + INTRA:         -13.144
REMARK INTER:                 -10.613
REMARK INTRA:                  -2.532
REMARK UNBOUND:                -1.979
REMARK  10 active torsions:
REMARK  status: ('A' for Active; 'I' for Inactive)
REMARK    1  A    between atoms: C7_7  and  C8_8 
REMARK       I    between atoms: C8_8  and  N9_9 
REMARK    2  A    between atoms: N9_9  and  C40_40 
REMARK    3  A    between atoms: C16_16  and  N18_18 
REMARK    4  A    between atoms: N18_18  and  C19_19 
REMARK    5  A    between atoms: C20_20  and  O25_25 
REMARK    6  A    between atoms: C22_22  and  C26_26 
REMARK    7  A    between atoms: O25_25  and  C36_36 
REMARK       I    between atoms: C26_26  and  N27_27 
REMARK    8  A    between atoms: N27_27  and  C29_29 
REMARK    9  A    between atoms: C41_41  and  C48_48 
REMARK   10  A    between atoms: C45_45  and  C46_46 
ROOT
HETATM    1  C1    D T1795      15.427 -14.044  -8.544  1.00 51.63     0.034 C 
HETATM    2  C2    D T1795      15.899 -12.779  -9.272  1.00 51.52     0.034 C 
HETATM    3  C3    D T1795      14.263 -13.830  -7.611  1.00 55.48     0.021 A 
HETATM    4  C4    D T1795      13.838 -12.577  -7.225  1.00 57.75     0.094 A 
HETATM    5  N5    D T1795      12.760 -12.767  -6.331  1.00 62.61    -0.248 N 
HETATM    6  N6    D T1795      12.498 -14.086  -6.174  1.00 59.90    -0.165 NA
HETATM    7  C7    D T1795      13.373 -14.760  -6.921  1.00 58.43     0.156 A 
HETATM    8  C11   D T1795      11.949 -11.808  -5.591  1.00 65.05     0.154 C 
HETATM    9  C12   D T1795      14.407 -11.355  -7.759  1.00 55.85     0.114 A 
HETATM   10  C13   D T1795      15.443 -11.461  -8.694  1.00 52.95     0.018 A 
HETATM   11  C14   D T1795      15.966 -10.248  -9.092  1.00 52.30     0.115 A 
HETATM   12  N15   D T1795      15.539  -9.049  -8.657  1.00 54.82    -0.058 NA
HETATM   13  C16   D T1795      14.525  -9.075  -7.780  1.00 57.72     0.750 A 
HETATM   14  N17   D T1795      13.929 -10.183  -7.318  1.00 57.61    -0.058 NA
ENDROOT
BRANCH  13  15
HETATM   15  N18   D T1795      13.989  -7.925  -7.280  1.00 60.94    -0.057 NA
BRANCH  15  16
HETATM   16  C19   D T1795      12.869  -7.669  -6.434  1.00 65.47     0.122 A 
HETATM   17  C20   D T1795      11.565  -7.637  -6.995  1.00 70.47     0.120 A 
HETATM   18  C21   D T1795      10.458  -7.370  -6.196  1.00 69.94     0.031 A 
HETATM   19  C22   D T1795      10.621  -7.176  -4.826  1.00 71.79     0.060 A 
HETATM   20  C23   D T1795      11.888  -7.309  -4.261  1.00 67.37     0.006 A 
HETATM   21  C24   D T1795      13.000  -7.544  -5.050  1.00 64.33     0.022 A 
BRANCH  17  22
HETATM   22  O25   D T1795      11.356  -7.956  -8.332  1.00 74.50    -0.252 OA
BRANCH  22  23
HETATM   23  C36   D T1795      10.856  -9.127  -8.720  1.00 73.62     0.530 C 
HETATM   24  F37   D T1795      11.675  -9.595  -9.623  1.00 76.85    -0.144 F 
HETATM   25  F38   D T1795       9.705  -8.929  -9.310  1.00 74.19    -0.144 F 
HETATM   26  F39   D T1795      10.696 -10.072  -7.823  1.00 69.98    -0.144 F 
ENDBRANCH  22  23
ENDBRANCH  17  22
BRANCH  19  27
HETATM   27  C26   D T1795       9.485  -6.703  -3.967  1.00 79.40     0.275 C 
HETATM   28  N27   D T1795       8.325  -6.431  -4.583  1.00 83.12    -0.236 NA
HETATM   29  O28   D T1795       9.627  -6.561  -2.753  1.00 82.99    -0.266 OA
BRANCH  28  30
HETATM   30  C29   D T1795       7.132  -6.005  -3.849  1.00 87.94     0.111 C 
HETATM   31  C30   D T1795       7.096  -4.490  -3.692  1.00 90.97     0.060 C 
HETATM   32  C31   D T1795       5.796  -4.054  -2.999  1.00 92.12     0.252 C 
HETATM   33  N32   D T1795       4.623  -4.520  -3.737  1.00 92.37     0.139 N 
HETATM   34  C33   D T1795       4.622  -5.982  -3.791  1.00 90.99     0.252 C 
HETATM   35  C35   D T1795       3.393  -4.025  -3.116  1.00 92.33     0.285 C 
HETATM   36  C34   D T1795       5.862  -6.509  -4.524  1.00 89.52     0.060 C 
ENDBRANCH  28  30
ENDBRANCH  19  27
ENDBRANCH  15  16
ENDBRANCH  13  15
BRANCH   7  37
HETATM   37  C8    D T1795      13.305 -16.246  -7.008  1.00 60.70     0.298 C 
HETATM   38  N9    D T1795      13.205 -16.721  -8.278  1.00 63.10    -0.207 NA
HETATM   39  O10   D T1795      13.367 -16.963  -6.009  1.00 59.02    -0.263 OA
BRANCH  38  40
HETATM   40  C40   D T1795      13.143 -18.099  -8.635  1.00 66.12     0.077 A 
HETATM   41  C41   D T1795      11.932 -18.810  -8.629  1.00 65.21    -0.005 A 
HETATM   42  C42   D T1795      11.938 -20.099  -9.159  1.00 66.54    -0.003 A 
HETATM   43  C43   D T1795      13.104 -20.658  -9.657  1.00 67.86    -0.001 A 
HETATM   44  C44   D T1795      14.298 -19.953  -9.609  1.00 69.17    -0.003 A 
HETATM   45  C45   D T1795      14.350 -18.669  -9.065  1.00 69.30    -0.005 A 
BRANCH  41  46
HETATM   46  C48   D T1795      10.649 -18.289  -8.009  1.00 62.37     0.028 C 
HETATM   47  C49   D T1795       9.764 -17.479  -8.930  1.00 61.99     0.005 C 
ENDBRANCH  41  46
BRANCH  45  48
HETATM   48  C46   D T1795      15.701 -18.041  -8.769  1.00 69.86     0.028 C 
HETATM   49  C47   D T1795      16.343 -18.433  -7.486  1.00 69.60     0.005 C 
ENDBRANCH  45  48
ENDBRANCH  38  40
ENDBRANCH   7  37
TORSDOF 10
ENDMDL
MODEL 6
REMARK VINA RESULT:    -7.037     10.581     13.961
REMARK INTER + INTRA:         -13.131
REMARK INTER:                 -11.263
REMARK INTRA:                  -1.868
REMARK UNBOUND:                -1.979
REMARK  10 active torsions:
REMARK  status: ('A' for Active; 'I' for Inactive)
REMARK    1  A    between atoms: C7_7  and  C8_8 
REMARK       I    between atoms: C8_8  and  N9_9 
REMARK    2  A    between atoms: N9_9  and  C40_40 
REMARK    3  A    between atoms: C16_16  and  N18_18 
REMARK    4  A    between atoms: N18_18  and  C19_19 
REMARK    5  A    between atoms: C20_20  and  O25_25 
REMARK    6  A    between atoms: C22_22  and  C26_26 
REMARK    7  A    between atoms: O25_25  and  C36_36 
REMARK       I    between atoms: C26_26  and  N27_27 
REMARK    8  A    between atoms: N27_27  and  C29_29 
REMARK    9  A    between atoms: C41_41  and  C48_48 
REMARK   10  A    between atoms: C45_45  and  C46_46 
ROOT
HETATM    1  C1    D T1795       3.775  -6.613  -5.862  1.00 51.63     0.034 C 
HETATM    2  C2    D T1795       2.624  -5.732  -6.363  1.00 51.52     0.034 C 
HETATM    3  C3    D T1795       3.763  -8.021  -6.399  1.00 55.48     0.021 A 
HETATM    4  C4    D T1795       2.675  -8.562  -7.049  1.00 57.75     0.094 A 
HETATM    5  N5    D T1795       3.011  -9.896  -7.373  1.00 62.61    -0.248 N 
HETATM    6  N6    D T1795       4.270 -10.182  -6.965  1.00 59.90    -0.165 NA
HETATM    7  C7    D T1795       4.759  -9.090  -6.375  1.00 58.43     0.156 A 
HETATM    8  C11   D T1795       2.242 -10.944  -8.031  1.00 65.05     0.154 C 
HETATM    9  C12   D T1795       1.486  -7.794  -7.362  1.00 55.85     0.114 A 
HETATM   10  C13   D T1795       1.443  -6.451  -6.970  1.00 52.95     0.018 A 
HETATM   11  C14   D T1795       0.248  -5.822  -7.251  1.00 52.30     0.115 A 
HETATM   12  N15   D T1795      -0.802  -6.405  -7.857  1.00 54.82    -0.058 NA
HETATM   13  C16   D T1795      -0.633  -7.689  -8.207  1.00 57.72     0.750 A 
HETATM   14  N17   D T1795       0.477  -8.409  -7.994  1.00 57.61    -0.058 NA
ENDROOT
BRANCH  13  15
HETATM   15  N18   D T1795      -1.616  -8.386  -8.846  1.00 60.94    -0.057 NA
BRANCH  15  16
HETATM   16  C19   D T1795      -2.933  -8.034  -9.266  1.00 65.47     0.122 A 
HETATM   17  C20   D T1795      -4.049  -8.500  -8.524  1.00 70.47     0.120 A 
HETATM   18  C21   D T1795      -5.344  -8.187  -8.923  1.00 69.94     0.031 A 
HETATM   19  C22   D T1795      -5.551  -7.374 -10.035  1.00 71.79     0.060 A 
HETATM   20  C23   D T1795      -4.453  -6.835 -10.703  1.00 67.37     0.006 A 
HETATM   21  C24   D T1795      -3.161  -7.163 -10.333  1.00 64.33     0.022 A 
BRANCH  17  22
HETATM   22  O25   D T1795      -3.872  -9.201  -7.336  1.00 74.50    -0.252 OA
BRANCH  22  23
HETATM   23  C36   D T1795      -4.104 -10.507  -7.233  1.00 73.62     0.530 C 
HETATM   24  F37   D T1795      -4.018 -10.796  -5.961  1.00 76.85    -0.144 F 
HETATM   25  F38   D T1795      -3.149 -11.163  -7.841  1.00 74.19    -0.144 F 
HETATM   26  F39   D T1795      -5.254 -10.979  -7.655  1.00 69.98    -0.144 F 
ENDBRANCH  22  23
ENDBRANCH  17  22
BRANCH  19  27
HETATM   27  C26   D T1795      -6.923  -7.171 -10.605  1.00 79.40     0.275 C 
HETATM   28  N27   D T1795      -7.216  -7.820 -11.742  1.00 83.12    -0.236 NA
HETATM   29  O28   D T1795      -7.734  -6.427 -10.053  1.00 82.99    -0.266 OA
BRANCH  28  30
HETATM   30  C29   D T1795      -8.535  -7.739 -12.371  1.00 87.94     0.111 C 
HETATM   31  C30   D T1795      -8.435  -7.185 -13.787  1.00 90.97     0.060 C 
HETATM   32  C31   D T1795      -9.814  -7.189 -14.464  1.00 92.12     0.252 C 
HETATM   33  N32   D T1795     -10.390  -8.533 -14.479  1.00 92.37     0.139 N 
HETATM   34  C33   D T1795     -10.573  -9.008 -13.108  1.00 90.99     0.252 C 
HETATM   35  C35   D T1795     -11.662  -8.540 -15.203  1.00 92.33     0.285 C 
HETATM   36  C34   D T1795      -9.231  -9.094 -12.369  1.00 89.52     0.060 C 
ENDBRANCH  28  30
ENDBRANCH  19  27
ENDBRANCH  15  16
ENDBRANCH  13  15
BRANCH   7  37
HETATM   37  C8    D T1795       6.160  -9.068  -5.868  1.00 60.70     0.298 C 
HETATM   38  N9    D T1795       6.824  -7.912  -6.130  1.00 63.10    -0.207 NA
HETATM   39  O10   D T1795       6.642 -10.013  -5.242  1.00 59.02    -0.263 OA
BRANCH  38  40
HETATM   40  C40   D T1795       8.165  -7.630  -5.737  1.00 66.12     0.077 A 
HETATM   41  C41   D T1795       9.256  -7.917  -6.574  1.00 65.21    -0.005 A 
HETATM   42  C42   D T1795      10.508  -7.449  -6.184  1.00 66.54    -0.003 A 
HETATM   43  C43   D T1795      10.668  -6.740  -5.003  1.00 67.86    -0.001 A 
HETATM   44  C44   D T1795       9.582  -6.510  -4.171  1.00 69.17    -0.003 A 
HETATM   45  C45   D T1795       8.312  -6.980  -4.503  1.00 69.30    -0.005 A 
BRANCH  41  46
HETATM   46  C48   D T1795       9.160  -8.771  -7.825  1.00 62.37     0.028 C 
HETATM   47  C49   D T1795      10.480  -9.125  -8.474  1.00 61.99     0.005 C 
ENDBRANCH  41  46
BRANCH  45  48
HETATM   48  C46   D T1795       7.213  -6.962  -3.454  1.00 69.86     0.028 C 
HETATM   49  C47   D T1795       6.408  -5.715  -3.364  1.00 69.60     0.005 C 
ENDBRANCH  45  48
ENDBRANCH  38  40
ENDBRANCH   7  37
TORSDOF 10
ENDMDL
MODEL 7
REMARK VINA RESULT:    -7.025     12.898     15.908
REMARK INTER + INTRA:         -13.111
REMARK INTER:                 -11.672
REMARK INTRA:                  -1.439
REMARK UNBOUND:                -1.979
REMARK  10 active torsions:
REMARK  status: ('A' for Active; 'I' for Inactive)
REMARK    1  A    between atoms: C7_7  and  C8_8 
REMARK       I    between atoms: C8_8  and  N9_9 
REMARK    2  A    between atoms: N9_9  and  C40_40 
REMARK    3  A    between atoms: C16_16  and  N18_18 
REMARK    4  A    between atoms: N18_18  and  C19_19 
REMARK    5  A    between atoms: C20_20  and  O25_25 
REMARK    6  A    between atoms: C22_22  and  C26_26 
REMARK    7  A    between atoms: O25_25  and  C36_36 
REMARK       I    between atoms: C26_26  and  N27_27 
REMARK    8  A    between atoms: N27_27  and  C29_29 
REMARK    9  A    between atoms: C41_41  and  C48_48 
REMARK   10  A    between atoms: C45_45  and  C46_46 
ROOT
HETATM    1  C1    D T1795      13.934 -16.168  -8.801  1.00 51.63     0.034 C 
HETATM    2  C2    D T1795      13.959 -14.716  -9.294  1.00 51.52     0.034 C 
HETATM    3  C3    D T1795      13.110 -16.391  -7.558  1.00 55.48     0.021 A 
HETATM    4  C4    D T1795      12.654 -15.356  -6.770  1.00 57.75     0.094 A 
HETATM    5  N5    D T1795      11.959 -15.941  -5.688  1.00 62.61    -0.248 N 
HETATM    6  N6    D T1795      11.955 -17.290  -5.797  1.00 59.90    -0.165 NA
HETATM    7  C7    D T1795      12.634 -17.605  -6.901  1.00 58.43     0.156 A 
HETATM    8  C11   D T1795      11.297 -15.338  -4.538  1.00 65.05     0.154 C 
HETATM    9  C12   D T1795      12.839 -13.962  -7.120  1.00 55.85     0.114 A 
HETATM   10  C13   D T1795      13.526 -13.662  -8.303  1.00 52.95     0.018 A 
HETATM   11  C14   D T1795      13.711 -12.312  -8.517  1.00 52.30     0.115 A 
HETATM   12  N15   D T1795      13.277 -11.338  -7.697  1.00 54.82    -0.058 NA
HETATM   13  C16   D T1795      12.611 -11.749  -6.607  1.00 57.72     0.750 A 
HETATM   14  N17   D T1795      12.363 -13.026  -6.288  1.00 57.61    -0.058 NA
ENDROOT
BRANCH  13  15
HETATM   15  N18   D T1795      12.102 -10.858  -5.708  1.00 60.94    -0.057 NA
BRANCH  15  16
HETATM   16  C19   D T1795      10.799 -10.307  -5.527  1.00 65.47     0.122 A 
HETATM   17  C20   D T1795      10.339  -9.301  -6.417  1.00 70.47     0.120 A 
HETATM   18  C21   D T1795       9.080  -8.733  -6.251  1.00 69.94     0.031 A 
HETATM   19  C22   D T1795       8.244  -9.181  -5.230  1.00 71.79     0.060 A 
HETATM   20  C23   D T1795       8.658 -10.238  -4.421  1.00 67.37     0.006 A 
HETATM   21  C24   D T1795       9.920 -10.790  -4.558  1.00 64.33     0.022 A 
BRANCH  17  22
HETATM   22  O25   D T1795      11.095  -8.926  -7.522  1.00 74.50    -0.252 OA
BRANCH  22  23
HETATM   23  C36   D T1795      10.677  -9.108  -8.772  1.00 73.62     0.530 C 
HETATM   24  F37   D T1795      11.207  -8.147  -9.480  1.00 76.85    -0.144 F 
HETATM   25  F38   D T1795       9.379  -8.950  -8.820  1.00 74.19    -0.144 F 
HETATM   26  F39   D T1795      10.971 -10.236  -9.377  1.00 69.98    -0.144 F 
ENDBRANCH  22  23
ENDBRANCH  17  22
BRANCH  19  27
HETATM   27  C26   D T1795       6.965  -8.469  -4.903  1.00 79.40     0.275 C 
HETATM   28  N27   D T1795       6.125  -8.222  -5.920  1.00 83.12    -0.236 NA
HETATM   29  O28   D T1795       6.713  -8.119  -3.751  1.00 82.99    -0.266 OA
BRANCH  28  30
HETATM   30  C29   D T1795       4.828  -7.575  -5.721  1.00 87.94     0.111 C 
HETATM   31  C30   D T1795       4.784  -6.212  -6.402  1.00 90.97     0.060 C 
HETATM   32  C31   D T1795       3.389  -5.586  -6.260  1.00 92.12     0.252 C 
HETATM   33  N32   D T1795       2.357  -6.466  -6.808  1.00 92.37     0.139 N 
HETATM   34  C33   D T1795       2.347  -7.732  -6.075  1.00 90.99     0.252 C 
HETATM   35  C35   D T1795       1.044  -5.822  -6.746  1.00 92.33     0.285 C 
HETATM   36  C34   D T1795       3.690  -8.461  -6.212  1.00 89.52     0.060 C 
ENDBRANCH  28  30
ENDBRANCH  19  27
ENDBRANCH  15  16
ENDBRANCH  13  15
BRANCH   7  37
HETATM   37  C8    D T1795      12.757 -19.027  -7.332  1.00 60.70     0.298 C 
HETATM   38  N9    D T1795      13.960 -19.333  -7.886  1.00 63.10    -0.207 NA
HETATM   39  O10   D T1795      11.849 -19.841  -7.162  1.00 59.02    -0.263 OA
BRANCH  38  40
HETATM   40  C40   D T1795      14.338 -20.623  -8.361  1.00 66.12     0.077 A 
HETATM   41  C41   D T1795      13.958 -21.082  -9.633  1.00 65.21    -0.005 A 
HETATM   42  C42   D T1795      14.518 -22.277 -10.080  1.00 66.54    -0.003 A 
HETATM   43  C43   D T1795      15.403 -22.990  -9.286  1.00 67.86    -0.001 A 
HETATM   44  C44   D T1795      15.726 -22.538  -8.015  1.00 69.17    -0.003 A 
HETATM   45  C45   D T1795      15.173 -21.362  -7.511  1.00 69.30    -0.005 A 
BRANCH  41  46
HETATM   46  C48   D T1795      12.921 -20.399 -10.504  1.00 62.37     0.028 C 
HETATM   47  C49   D T1795      12.602 -21.098 -11.807  1.00 61.99     0.005 C 
ENDBRANCH  41  46
BRANCH  45  48
HETATM   48  C46   D T1795      15.319 -21.045  -6.032  1.00 69.86     0.028 C 
HETATM   49  C47   D T1795      14.842 -22.087  -5.084  1.00 69.60     0.005 C 
ENDBRANCH  45  48
ENDBRANCH  38  40
ENDBRANCH   7  37
TORSDOF 10
ENDMDL
MODEL 8
REMARK VINA RESULT:    -7.023     10.565     15.048
REMARK INTER + INTRA:         -13.109
REMARK INTER:                 -11.435
REMARK INTRA:                  -1.673
REMARK UNBOUND:                -1.979
REMARK  10 active torsions:
REMARK  status: ('A' for Active; 'I' for Inactive)
REMARK    1  A    between atoms: C7_7  and  C8_8 
REMARK       I    between atoms: C8_8  and  N9_9 
REMARK    2  A    between atoms: N9_9  and  C40_40 
REMARK    3  A    between atoms: C16_16  and  N18_18 
REMARK    4  A    between atoms: N18_18  and  C19_19 
REMARK    5  A    between atoms: C20_20  and  O25_25 
REMARK    6  A    between atoms: C22_22  and  C26_26 
REMARK    7  A    between atoms: O25_25  and  C36_36 
REMARK       I    between atoms: C26_26  and  N27_27 
REMARK    8  A    between atoms: N27_27  and  C29_29 
REMARK    9  A    between atoms: C41_41  and  C48_48 
REMARK   10  A    between atoms: C45_45  and  C46_46 
ROOT
HETATM    1  C1    D T1795      -6.504  -7.202  -9.987  1.00 51.63     0.034 C 
HETATM    2  C2    D T1795      -5.996  -8.118  -8.866  1.00 51.52     0.034 C 
HETATM    3  C3    D T1795      -5.453  -6.805 -10.993  1.00 55.48     0.021 A 
HETATM    4  C4    D T1795      -4.106  -7.004 -10.782  1.00 57.75     0.094 A 
HETATM    5  N5    D T1795      -3.432  -6.482 -11.909  1.00 62.61    -0.248 N 
HETATM    6  N6    D T1795      -4.318  -5.993 -12.808  1.00 59.90    -0.165 NA
HETATM    7  C7    D T1795      -5.540  -6.163 -12.302  1.00 58.43     0.156 A 
HETATM    8  C11   D T1795      -2.011  -6.391 -12.218  1.00 65.05     0.154 C 
HETATM    9  C12   D T1795      -3.587  -7.702  -9.621  1.00 55.85     0.114 A 
HETATM   10  C13   D T1795      -4.500  -8.177  -8.672  1.00 52.95     0.018 A 
HETATM   11  C14   D T1795      -3.911  -8.766  -7.572  1.00 52.30     0.115 A 
HETATM   12  N15   D T1795      -2.585  -8.904  -7.395  1.00 54.82    -0.058 NA
HETATM   13  C16   D T1795      -1.813  -8.432  -8.385  1.00 57.72     0.750 A 
HETATM   14  N17   D T1795      -2.260  -7.843  -9.502  1.00 57.61    -0.058 NA
ENDROOT
BRANCH  13  15
HETATM   15  N18   D T1795      -0.453  -8.531  -8.333  1.00 60.94    -0.057 NA
BRANCH  15  16
HETATM   16  C19   D T1795       0.590  -7.560  -8.417  1.00 65.47     0.122 A 
HETATM   17  C20   D T1795       1.875  -7.873  -7.901  1.00 70.47     0.120 A 
HETATM   18  C21   D T1795       2.903  -6.938  -7.952  1.00 69.94     0.031 A 
HETATM   19  C22   D T1795       2.688  -5.699  -8.553  1.00 71.79     0.060 A 
HETATM   20  C23   D T1795       1.456  -5.433  -9.149  1.00 67.37     0.006 A 
HETATM   21  C24   D T1795       0.417  -6.344  -9.078  1.00 64.33     0.022 A 
BRANCH  17  22
HETATM   22  O25   D T1795       2.158  -9.145  -7.415  1.00 74.50    -0.252 OA
BRANCH  22  23
HETATM   23  C36   D T1795       2.814 -10.056  -8.130  1.00 73.62     0.530 C 
HETATM   24  F37   D T1795       2.171 -11.181  -7.967  1.00 76.85    -0.144 F 
HETATM   25  F38   D T1795       4.010 -10.219  -7.626  1.00 74.19    -0.144 F 
HETATM   26  F39   D T1795       2.940  -9.871  -9.424  1.00 69.98    -0.144 F 
ENDBRANCH  22  23
ENDBRANCH  17  22
BRANCH  19  27
HETATM   27  C26   D T1795       3.706  -4.603  -8.461  1.00 79.40     0.275 C 
HETATM   28  N27   D T1795       3.835  -3.796  -9.525  1.00 83.12    -0.236 NA
HETATM   29  O28   D T1795       4.399  -4.465  -7.453  1.00 82.99    -0.266 OA
BRANCH  28  30
HETATM   30  C29   D T1795       4.761  -2.663  -9.539  1.00 87.94     0.111 C 
HETATM   31  C30   D T1795       6.036  -3.006 -10.299  1.00 90.97     0.060 C 
HETATM   32  C31   D T1795       6.959  -1.781 -10.380  1.00 92.12     0.252 C 
HETATM   33  N32   D T1795       6.278  -0.649 -11.009  1.00 92.37     0.139 N 
HETATM   34  C33   D T1795       5.112  -0.269 -10.211  1.00 90.99     0.252 C 
HETATM   35  C35   D T1795       7.192   0.484 -11.160  1.00 92.33     0.285 C 
HETATM   36  C34   D T1795       4.102  -1.420 -10.125  1.00 89.52     0.060 C 
ENDBRANCH  28  30
ENDBRANCH  19  27
ENDBRANCH  15  16
ENDBRANCH  13  15
BRANCH   7  37
HETATM   37  C8    D T1795      -6.744  -5.776 -13.089  1.00 60.70     0.298 C 
HETATM   38  N9    D T1795      -7.089  -6.674 -14.050  1.00 63.10    -0.207 NA
HETATM   39  O10   D T1795      -7.375  -4.745 -12.852  1.00 59.02    -0.263 OA
BRANCH  38  40
HETATM   40  C40   D T1795      -8.208  -6.550 -14.923  1.00 66.12     0.077 A 
HETATM   41  C41   D T1795      -8.160  -5.747 -16.076  1.00 65.21    -0.005 A 
HETATM   42  C42   D T1795      -9.234  -5.824 -16.960  1.00 66.54    -0.003 A 
HETATM   43  C43   D T1795     -10.314  -6.653 -16.697  1.00 67.86    -0.001 A 
HETATM   44  C44   D T1795     -10.359  -7.400 -15.529  1.00 69.17    -0.003 A 
HETATM   45  C45   D T1795      -9.321  -7.339 -14.600  1.00 69.30    -0.005 A 
BRANCH  41  46
HETATM   46  C48   D T1795      -7.054  -4.751 -16.366  1.00 62.37     0.028 C 
HETATM   47  C49   D T1795      -6.544  -4.741 -17.791  1.00 61.99     0.005 C 
ENDBRANCH  41  46
BRANCH  45  48
HETATM   48  C46   D T1795      -9.523  -7.938 -13.218  1.00 69.86     0.028 C 
HETATM   49  C47   D T1795     -10.454  -9.094 -13.131  1.00 69.60     0.005 C 
ENDBRANCH  45  48
ENDBRANCH  38  40
ENDBRANCH   7  37
TORSDOF 10
ENDMDL
MODEL 9
REMARK VINA RESULT:    -6.831      7.970     11.845
REMARK INTER + INTRA:         -12.804
REMARK INTER:                 -10.431
REMARK INTRA:                  -2.373
REMARK UNBOUND:                -1.979
REMARK  10 active torsions:
REMARK  status: ('A' for Active; 'I' for Inactive)
REMARK    1  A    between atoms: C7_7  and  C8_8 
REMARK       I    between atoms: C8_8  and  N9_9 
REMARK    2  A    between atoms: N9_9  and  C40_40 
REMARK    3  A    between atoms: C16_16  and  N18_18 
REMARK    4  A    between atoms: N18_18  and  C19_19 
REMARK    5  A    between atoms: C20_20  and  O25_25 
REMARK    6  A    between atoms: C22_22  and  C26_26 
REMARK    7  A    between atoms: O25_25  and  C36_36 
REMARK       I    between atoms: C26_26  and  N27_27 
REMARK    8  A    between atoms: N27_27  and  C29_29 
REMARK    9  A    between atoms: C41_41  and  C48_48 
REMARK   10  A    between atoms: C45_45  and  C46_46 
ROOT
HETATM    1  C1    D T1795      -4.938  -5.927 -13.296  1.00 51.63     0.034 C 
HETATM    2  C2    D T1795      -3.464  -5.607 -13.015  1.00 51.52     0.034 C 
HETATM    3  C3    D T1795      -5.672  -6.558 -12.140  1.00 55.48     0.021 A 
HETATM    4  C4    D T1795      -5.024  -7.064 -11.033  1.00 57.75     0.094 A 
HETATM    5  N5    D T1795      -6.020  -7.600 -10.185  1.00 62.61    -0.248 N 
HETATM    6  N6    D T1795      -7.249  -7.421 -10.723  1.00 59.90    -0.165 NA
HETATM    7  C7    D T1795      -7.090  -6.803 -11.893  1.00 58.43     0.156 A 
HETATM    8  C11   D T1795      -5.918  -8.284  -8.903  1.00 65.05     0.154 C 
HETATM    9  C12   D T1795      -3.593  -6.944 -10.837  1.00 55.85     0.114 A 
HETATM   10  C13   D T1795      -2.841  -6.299 -11.826  1.00 52.95     0.018 A 
HETATM   11  C14   D T1795      -1.483  -6.294 -11.584  1.00 52.30     0.115 A 
HETATM   12  N15   D T1795      -0.894  -6.834 -10.504  1.00 54.82    -0.058 NA
HETATM   13  C16   D T1795      -1.721  -7.403  -9.613  1.00 57.72     0.750 A 
HETATM   14  N17   D T1795      -3.054  -7.471  -9.729  1.00 57.61    -0.058 NA
ENDROOT
BRANCH  13  15
HETATM   15  N18   D T1795      -1.249  -7.968  -8.465  1.00 60.94    -0.057 NA
BRANCH  15  16
HETATM   16  C19   D T1795      -1.064  -9.324  -8.061  1.00 65.47     0.122 A 
HETATM   17  C20   D T1795       0.024 -10.067  -8.591  1.00 70.47     0.120 A 
HETATM   18  C21   D T1795       0.215 -11.395  -8.229  1.00 69.94     0.031 A 
HETATM   19  C22   D T1795      -0.639 -11.995  -7.306  1.00 71.79     0.060 A 
HETATM   20  C23   D T1795      -1.645 -11.235  -6.710  1.00 67.37     0.006 A 
HETATM   21  C24   D T1795      -1.863  -9.921  -7.085  1.00 64.33     0.022 A 
BRANCH  17  22
HETATM   22  O25   D T1795       0.969  -9.460  -9.410  1.00 74.50    -0.252 OA
BRANCH  22  23
HETATM   23  C36   D T1795       2.175  -9.104  -8.974  1.00 73.62     0.530 C 
HETATM   24  F37   D T1795       2.475  -7.992  -9.590  1.00 76.85    -0.144 F 
HETATM   25  F38   D T1795       3.051 -10.001  -9.349  1.00 74.19    -0.144 F 
HETATM   26  F39   D T1795       2.341  -8.887  -7.689  1.00 69.98    -0.144 F 
ENDBRANCH  22  23
ENDBRANCH  17  22
BRANCH  19  27
HETATM   27  C26   D T1795      -0.581 -13.469  -7.035  1.00 79.40     0.275 C 
HETATM   28  N27   D T1795       0.448 -13.916  -6.299  1.00 83.12    -0.236 NA
HETATM   29  O28   D T1795      -1.438 -14.229  -7.485  1.00 82.99    -0.266 OA
BRANCH  28  30
HETATM   30  C29   D T1795       0.590 -15.324  -5.929  1.00 87.94     0.111 C 
HETATM   31  C30   D T1795       1.886 -15.907  -6.477  1.00 90.97     0.060 C 
HETATM   32  C31   D T1795       2.063 -17.359  -6.007  1.00 92.12     0.252 C 
HETATM   33  N32   D T1795       2.040 -17.447  -4.547  1.00 92.37     0.139 N 
HETATM   34  C33   D T1795       0.749 -16.977  -4.045  1.00 90.99     0.252 C 
HETATM   35  C35   D T1795       2.296 -18.819  -4.109  1.00 92.33     0.285 C 
HETATM   36  C34   D T1795       0.512 -15.508  -4.419  1.00 89.52     0.060 C 
ENDBRANCH  28  30
ENDBRANCH  19  27
ENDBRANCH  15  16
ENDBRANCH  13  15
BRANCH   7  37
HETATM   37  C8    D T1795      -8.275  -6.409 -12.707  1.00 60.70     0.298 C 
HETATM   38  N9    D T1795      -8.387  -7.083 -13.882  1.00 63.10    -0.207 NA
HETATM   39  O10   D T1795      -9.085  -5.568 -12.315  1.00 59.02    -0.263 OA
BRANCH  38  40
HETATM   40  C40   D T1795      -9.437  -6.908 -14.830  1.00 66.12     0.077 A 
HETATM   41  C41   D T1795     -10.685  -7.534 -14.674  1.00 65.21    -0.005 A 
HETATM   42  C42   D T1795     -11.704  -7.168 -15.550  1.00 66.54    -0.003 A 
HETATM   43  C43   D T1795     -11.482  -6.231 -16.548  1.00 67.86    -0.001 A 
HETATM   44  C44   D T1795     -10.227  -5.662 -16.711  1.00 69.17    -0.003 A 
HETATM   45  C45   D T1795      -9.167  -6.013 -15.876  1.00 69.30    -0.005 A 
BRANCH  41  46
HETATM   46  C48   D T1795     -10.958  -8.635 -13.667  1.00 62.37     0.028 C 
HETATM   47  C49   D T1795     -10.832 -10.047 -14.196  1.00 61.99     0.005 C 
ENDBRANCH  41  46
BRANCH  45  48
HETATM   48  C46   D T1795      -7.755  -5.595 -16.249  1.00 69.86     0.028 C 
HETATM   49  C47   D T1795      -7.327  -4.244 -15.799  1.00 69.60     0.005 C 
ENDBRANCH  45  48
ENDBRANCH  38  40
ENDBRANCH   7  37
TORSDOF 10
ENDMDL
