MODEL 1
REMARK VINA RESULT:      -8.1      0.000      0.000
REMARK  10 active torsions:
REMARK  status: ('A' for Active; 'I' for Inactive)
REMARK    1  A    between atoms: C7_7  and  C8_8 
REMARK       I    between atoms: C8_8  and  N9_9 
REMARK    2  A    between atoms: N9_9  and  C40_40 
REMARK    3  A    between atoms: C16_16  and  N18_18 
REMARK    4  A    between atoms: N18_18  and  C19_19 
REMARK    5  A    between atoms: C20_20  and  O25_25 
REMARK    6  A    between atoms: C22_22  and  C26_26 
REMARK    7  A    between atoms: O25_25  and  C36_36 
REMARK       I    between atoms: C26_26  and  N27_27 
REMARK    8  A    between atoms: N27_27  and  C29_29 
REMARK    9  A    between atoms: C41_41  and  C48_48 
REMARK   10  A    between atoms: C45_45  and  C46_46 
ROOT
HETATM    1  C1    D T1795       2.161 -19.269 -14.054  1.00 51.63     0.034 C 
HETATM    2  C2    D T1795       2.197 -19.056 -15.573  1.00 51.52     0.034 C 
HETATM    3  C3    D T1795       1.514 -18.148 -13.282  1.00 55.48     0.021 A 
HETATM    4  C4    D T1795       1.237 -16.920 -13.842  1.00 57.75     0.094 A 
HETATM    5  N5    D T1795       0.673 -16.121 -12.822  1.00 62.61    -0.248 N 
HETATM    6  N6    D T1795       0.577 -16.822 -11.668  1.00 59.90    -0.165 NA
HETATM    7  C7    D T1795       1.070 -18.040 -11.895  1.00 58.43     0.156 A 
HETATM    8  C11   D T1795       0.219 -14.736 -12.831  1.00 65.05     0.154 C 
HETATM    9  C12   D T1795       1.448 -16.632 -15.248  1.00 55.85     0.114 A 
HETATM   10  C13   D T1795       1.972 -17.645 -16.059  1.00 52.95     0.018 A 
HETATM   11  C14   D T1795       2.202 -17.257 -17.363  1.00 52.30     0.115 A 
HETATM   12  N15   D T1795       1.947 -16.032 -17.855  1.00 54.82    -0.058 NA
HETATM   13  C16   D T1795       1.423 -15.153 -16.987  1.00 57.72     0.750 A 
HETATM   14  N17   D T1795       1.151 -15.406 -15.700  1.00 57.61    -0.058 NA
ENDROOT
BRANCH  13  15
HETATM   15  N18   D T1795       1.101 -13.884 -17.368  1.00 60.94    -0.057 NA
BRANCH  15  16
HETATM   16  C19   D T1795       0.116 -12.958 -16.911  1.00 65.47     0.122 A 
HETATM   17  C20   D T1795      -0.264 -11.875 -17.747  1.00 70.47     0.120 A 
HETATM   18  C21   D T1795      -1.207 -10.948 -17.317  1.00 69.94     0.031 A 
HETATM   19  C22   D T1795      -1.819 -11.103 -16.075  1.00 71.79     0.060 A 
HETATM   20  C23   D T1795      -1.519 -12.222 -15.299  1.00 67.37     0.006 A 
HETATM   21  C24   D T1795      -0.560 -13.134 -15.703  1.00 64.33     0.022 A 
BRANCH  17  22
HETATM   22  O25   D T1795       0.230 -11.768 -19.043  1.00 74.50    -0.252 OA
BRANCH  22  23
HETATM   23  C36   D T1795      -0.237 -12.499 -20.051  1.00 73.62     0.530 C 
HETATM   24  F37   D T1795      -0.119 -11.763 -21.124  1.00 76.85    -0.144 F 
HETATM   25  F38   D T1795      -1.515 -12.714 -19.871  1.00 74.19    -0.144 F 
HETATM   26  F39   D T1795       0.336 -13.651 -20.313  1.00 69.98    -0.144 F 
ENDBRANCH  22  23
ENDBRANCH  17  22
BRANCH  19  27
HETATM   27  C26   D T1795      -2.694 -10.030 -15.500  1.00 79.40     0.275 C 
HETATM   28  N27   D T1795      -2.192  -8.786 -15.461  1.00 83.12    -0.236 NA
HETATM   29  O28   D T1795      -3.818 -10.292 -15.073  1.00 82.99    -0.266 OA
BRANCH  28  30
HETATM   30  C29   D T1795      -2.965  -7.647 -14.965  1.00 87.94     0.111 C 
HETATM   31  C30   D T1795      -2.497  -7.228 -13.577  1.00 90.97     0.060 C 
HETATM   32  C31   D T1795      -3.257  -5.978 -13.108  1.00 92.12     0.252 C 
HETATM   33  N32   D T1795      -3.096  -4.877 -14.056  1.00 92.37     0.139 N 
HETATM   34  C33   D T1795      -3.643  -5.261 -15.358  1.00 90.99     0.252 C 
HETATM   35  C35   D T1795      -3.751  -3.667 -13.558  1.00 92.33     0.285 C 
HETATM   36  C34   D T1795      -2.899  -6.473 -15.934  1.00 89.52     0.060 C 
ENDBRANCH  28  30
ENDBRANCH  19  27
ENDBRANCH  15  16
ENDBRANCH  13  15
BRANCH   7  37
HETATM   37  C8    D T1795       1.048 -19.075 -10.823  1.00 60.70     0.298 C 
HETATM   38  N9    D T1795       0.674 -18.603  -9.605  1.00 63.10    -0.207 NA
HETATM   39  O10   D T1795       1.318 -20.255 -11.051  1.00 59.02    -0.263 OA
BRANCH  38  40
HETATM   40  C40   D T1795       0.555 -19.390  -8.423  1.00 66.12     0.077 A 
HETATM   41  C41   D T1795      -0.342 -20.468  -8.340  1.00 65.21    -0.005 A 
HETATM   42  C42   D T1795      -0.265 -21.285  -7.215  1.00 66.54    -0.003 A 
HETATM   43  C43   D T1795       0.654 -21.028  -6.209  1.00 67.86    -0.001 A 
HETATM   44  C44   D T1795       1.497 -19.929  -6.293  1.00 69.17    -0.003 A 
HETATM   45  C45   D T1795       1.442 -19.066  -7.386  1.00 69.30    -0.005 A 
BRANCH  41  46
HETATM   46  C48   D T1795      -1.432 -20.740  -9.359  1.00 62.37     0.028 C 
HETATM   47  C49   D T1795      -2.757 -21.195  -8.789  1.00 61.99     0.005 C 
ENDBRANCH  41  46
BRANCH  45  48
HETATM   48  C46   D T1795       2.166 -17.732  -7.319  1.00 69.86     0.028 C 
HETATM   49  C47   D T1795       3.352 -17.670  -6.424  1.00 69.60     0.005 C 
ENDBRANCH  45  48
ENDBRANCH  38  40
ENDBRANCH   7  37
TORSDOF 10
ENDMDL
MODEL 2
REMARK VINA RESULT:      -8.0      5.778     10.496
REMARK  10 active torsions:
REMARK  status: ('A' for Active; 'I' for Inactive)
REMARK    1  A    between atoms: C7_7  and  C8_8 
REMARK       I    between atoms: C8_8  and  N9_9 
REMARK    2  A    between atoms: N9_9  and  C40_40 
REMARK    3  A    between atoms: C16_16  and  N18_18 
REMARK    4  A    between atoms: N18_18  and  C19_19 
REMARK    5  A    between atoms: C20_20  and  O25_25 
REMARK    6  A    between atoms: C22_22  and  C26_26 
REMARK    7  A    between atoms: O25_25  and  C36_36 
REMARK       I    between atoms: C26_26  and  N27_27 
REMARK    8  A    between atoms: N27_27  and  C29_29 
REMARK    9  A    between atoms: C41_41  and  C48_48 
REMARK   10  A    between atoms: C45_45  and  C46_46 
ROOT
HETATM    1  C1    D T1795       0.903 -18.748 -14.658  1.00 51.63     0.034 C 
HETATM    2  C2    D T1795       1.458 -19.720 -13.608  1.00 51.52     0.034 C 
HETATM    3  C3    D T1795       0.558 -17.382 -14.123  1.00 55.48     0.021 A 
HETATM    4  C4    D T1795       0.474 -17.109 -12.775  1.00 57.75     0.094 A 
HETATM    5  N5    D T1795       0.098 -15.752 -12.654  1.00 62.61    -0.248 N 
HETATM    6  N6    D T1795      -0.030 -15.183 -13.876  1.00 59.90    -0.165 NA
HETATM    7  C7    D T1795       0.235 -16.121 -14.785  1.00 58.43     0.156 A 
HETATM    8  C11   D T1795      -0.167 -14.933 -11.478  1.00 65.05     0.154 C 
HETATM    9  C12   D T1795       0.808 -18.082 -11.753  1.00 55.85     0.114 A 
HETATM   10  C13   D T1795       1.218 -19.356 -12.162  1.00 52.95     0.018 A 
HETATM   11  C14   D T1795       1.448 -20.232 -11.122  1.00 52.30     0.115 A 
HETATM   12  N15   D T1795       1.317 -19.928  -9.819  1.00 54.82    -0.058 NA
HETATM   13  C16   D T1795       0.942 -18.668  -9.551  1.00 57.72     0.750 A 
HETATM   14  N17   D T1795       0.692 -17.723 -10.467  1.00 57.61    -0.058 NA
ENDROOT
BRANCH  13  15
HETATM   15  N18   D T1795       0.794 -18.229  -8.268  1.00 60.94    -0.057 NA
BRANCH  15  16
HETATM   16  C19   D T1795       0.815 -16.927  -7.684  1.00 65.47     0.122 A 
HETATM   17  C20   D T1795       1.889 -16.564  -6.830  1.00 70.47     0.120 A 
HETATM   18  C21   D T1795       1.924 -15.309  -6.232  1.00 69.94     0.031 A 
HETATM   19  C22   D T1795       0.920 -14.381  -6.505  1.00 71.79     0.060 A 
HETATM   20  C23   D T1795      -0.079 -14.703  -7.422  1.00 67.37     0.006 A 
HETATM   21  C24   D T1795      -0.140 -15.960  -7.999  1.00 64.33     0.022 A 
BRANCH  17  22
HETATM   22  O25   D T1795       2.972 -17.417  -6.643  1.00 74.50    -0.252 OA
BRANCH  22  23
HETATM   23  C36   D T1795       2.942 -18.437  -5.789  1.00 73.62     0.530 C 
HETATM   24  F37   D T1795       3.913 -18.232  -4.940  1.00 76.85    -0.144 F 
HETATM   25  F38   D T1795       3.219 -19.544  -6.430  1.00 74.19    -0.144 F 
HETATM   26  F39   D T1795       1.853 -18.637  -5.084  1.00 69.98    -0.144 F 
ENDBRANCH  22  23
ENDBRANCH  17  22
BRANCH  19  27
HETATM   27  C26   D T1795       0.821 -13.095  -5.739  1.00 79.40     0.275 C 
HETATM   28  N27   D T1795       1.771 -12.175  -5.963  1.00 83.12    -0.236 NA
HETATM   29  O28   D T1795      -0.089 -12.908  -4.932  1.00 82.99    -0.266 OA
BRANCH  28  30
HETATM   30  C29   D T1795       1.758 -10.864  -5.312  1.00 87.94     0.111 C 
HETATM   31  C30   D T1795       3.056 -10.110  -5.570  1.00 90.97     0.060 C 
HETATM   32  C31   D T1795       2.991  -8.704  -4.955  1.00 92.12     0.252 C 
HETATM   33  N32   D T1795       1.851  -7.952  -5.477  1.00 92.37     0.139 N 
HETATM   34  C33   D T1795       0.606  -8.640  -5.132  1.00 90.99     0.252 C 
HETATM   35  C35   D T1795       1.849  -6.587  -4.951  1.00 92.33     0.285 C 
HETATM   36  C34   D T1795       0.557 -10.039  -5.758  1.00 89.52     0.060 C 
ENDBRANCH  28  30
ENDBRANCH  19  27
ENDBRANCH  15  16
ENDBRANCH  13  15
BRANCH   7  37
HETATM   37  C8    D T1795       0.236 -15.786 -16.237  1.00 60.70     0.298 C 
HETATM   38  N9    D T1795       0.707 -14.542 -16.517  1.00 63.10    -0.207 NA
HETATM   39  O10   D T1795      -0.130 -16.593 -17.093  1.00 59.02    -0.263 OA
BRANCH  38  40
HETATM   40  C40   D T1795       0.830 -13.988 -17.825  1.00 66.12     0.077 A 
HETATM   41  C41   D T1795       1.760 -14.485 -18.753  1.00 65.21    -0.005 A 
HETATM   42  C42   D T1795       1.690 -14.002 -20.058  1.00 66.54    -0.003 A 
HETATM   43  C43   D T1795       0.744 -13.053 -20.415  1.00 67.86    -0.001 A 
HETATM   44  C44   D T1795      -0.133 -12.544 -19.469  1.00 69.17    -0.003 A 
HETATM   45  C45   D T1795      -0.087 -12.976 -18.144  1.00 69.30    -0.005 A 
BRANCH  41  46
HETATM   46  C48   D T1795       2.877 -15.448 -18.397  1.00 62.37     0.028 C 
HETATM   47  C49   D T1795       2.659 -16.884 -18.820  1.00 61.99     0.005 C 
ENDBRANCH  41  46
BRANCH  45  48
HETATM   48  C46   D T1795      -0.855 -12.207 -17.083  1.00 69.86     0.028 C 
HETATM   49  C47   D T1795      -2.149 -11.610 -17.509  1.00 69.60     0.005 C 
ENDBRANCH  45  48
ENDBRANCH  38  40
ENDBRANCH   7  37
TORSDOF 10
ENDMDL
MODEL 3
REMARK VINA RESULT:      -7.9      3.028     11.724
REMARK  10 active torsions:
REMARK  status: ('A' for Active; 'I' for Inactive)
REMARK    1  A    between atoms: C7_7  and  C8_8 
REMARK       I    between atoms: C8_8  and  N9_9 
REMARK    2  A    between atoms: N9_9  and  C40_40 
REMARK    3  A    between atoms: C16_16  and  N18_18 
REMARK    4  A    between atoms: N18_18  and  C19_19 
REMARK    5  A    between atoms: C20_20  and  O25_25 
REMARK    6  A    between atoms: C22_22  and  C26_26 
REMARK    7  A    between atoms: O25_25  and  C36_36 
REMARK       I    between atoms: C26_26  and  N27_27 
REMARK    8  A    between atoms: N27_27  and  C29_29 
REMARK    9  A    between atoms: C41_41  and  C48_48 
REMARK   10  A    between atoms: C45_45  and  C46_46 
ROOT
HETATM    1  C1    D T1795      -1.448 -10.779 -18.372  1.00 51.63     0.034 C 
HETATM    2  C2    D T1795      -0.438 -11.442 -19.316  1.00 51.52     0.034 C 
HETATM    3  C3    D T1795      -1.375 -11.256 -16.944  1.00 55.48     0.021 A 
HETATM    4  C4    D T1795      -0.672 -12.381 -16.569  1.00 57.75     0.094 A 
HETATM    5  N5    D T1795      -0.858 -12.536 -15.177  1.00 62.61    -0.248 N 
HETATM    6  N6    D T1795      -1.630 -11.538 -14.686  1.00 59.90    -0.165 NA
HETATM    7  C7    D T1795      -1.964 -10.749 -15.708  1.00 58.43     0.156 A 
HETATM    8  C11   D T1795      -0.378 -13.557 -14.255  1.00 65.05     0.154 C 
HETATM    9  C12   D T1795       0.142 -13.144 -17.496  1.00 55.85     0.114 A 
HETATM   10  C13   D T1795       0.196 -12.724 -18.830  1.00 52.95     0.018 A 
HETATM   11  C14   D T1795       0.939 -13.550 -19.648  1.00 52.30     0.115 A 
HETATM   12  N15   D T1795       1.579 -14.659 -19.241  1.00 54.82    -0.058 NA
HETATM   13  C16   D T1795       1.472 -14.946 -17.934  1.00 57.72     0.750 A 
HETATM   14  N17   D T1795       0.787 -14.226 -17.037  1.00 57.61    -0.058 NA
ENDROOT
BRANCH  13  15
HETATM   15  N18   D T1795       2.093 -16.034 -17.393  1.00 60.94    -0.057 NA
BRANCH  15  16
HETATM   16  C19   D T1795       1.764 -16.889 -16.300  1.00 65.47     0.122 A 
HETATM   17  C20   D T1795       2.780 -17.275 -15.387  1.00 70.47     0.120 A 
HETATM   18  C21   D T1795       2.491 -18.124 -14.324  1.00 69.94     0.031 A 
HETATM   19  C22   D T1795       1.185 -18.566 -14.124  1.00 71.79     0.060 A 
HETATM   20  C23   D T1795       0.170 -18.105 -14.961  1.00 67.37     0.006 A 
HETATM   21  C24   D T1795       0.452 -17.285 -16.040  1.00 64.33     0.022 A 
BRANCH  17  22
HETATM   22  O25   D T1795       4.063 -16.746 -15.483  1.00 74.50    -0.252 OA
BRANCH  22  23
HETATM   23  C36   D T1795       4.915 -16.741 -14.460  1.00 73.62     0.530 C 
HETATM   24  F37   D T1795       4.325 -16.087 -13.495  1.00 76.85    -0.144 F 
HETATM   25  F38   D T1795       5.981 -16.059 -14.792  1.00 74.19    -0.144 F 
HETATM   26  F39   D T1795       5.307 -17.890 -13.960  1.00 69.98    -0.144 F 
ENDBRANCH  22  23
ENDBRANCH  17  22
BRANCH  19  27
HETATM   27  C26   D T1795       0.869 -19.625 -13.110  1.00 79.40     0.275 C 
HETATM   28  N27   D T1795       1.496 -19.545 -11.926  1.00 83.12    -0.236 NA
HETATM   29  O28   D T1795       0.078 -20.532 -13.367  1.00 82.99    -0.266 OA
BRANCH  28  30
HETATM   30  C29   D T1795       1.239 -20.491 -10.840  1.00 87.94     0.111 C 
HETATM   31  C30   D T1795       2.505 -21.248 -10.460  1.00 90.97     0.060 C 
HETATM   32  C31   D T1795       2.239 -22.171  -9.261  1.00 92.12     0.252 C 
HETATM   33  N32   D T1795       1.732 -21.416  -8.117  1.00 92.37     0.139 N 
HETATM   34  C33   D T1795       0.463 -20.778  -8.469  1.00 90.99     0.252 C 
HETATM   35  C35   D T1795       1.565 -22.291  -6.955  1.00 92.33     0.285 C 
HETATM   36  C34   D T1795       0.646 -19.787  -9.625  1.00 89.52     0.060 C 
ENDBRANCH  28  30
ENDBRANCH  19  27
ENDBRANCH  15  16
ENDBRANCH  13  15
BRANCH   7  37
HETATM   37  C8    D T1795      -2.770  -9.517 -15.478  1.00 60.70     0.298 C 
HETATM   38  N9    D T1795      -2.106  -8.363 -15.755  1.00 63.10    -0.207 NA
HETATM   39  O10   D T1795      -3.942  -9.563 -15.102  1.00 59.02    -0.263 OA
BRANCH  38  40
HETATM   40  C40   D T1795      -2.656  -7.053 -15.638  1.00 66.12     0.077 A 
HETATM   41  C41   D T1795      -3.011  -6.298 -16.769  1.00 65.21    -0.005 A 
HETATM   42  C42   D T1795      -3.700  -5.106 -16.556  1.00 66.54    -0.003 A 
HETATM   43  C43   D T1795      -4.006  -4.680 -15.273  1.00 67.86    -0.001 A 
HETATM   44  C44   D T1795      -3.604  -5.421 -14.172  1.00 69.17    -0.003 A 
HETATM   45  C45   D T1795      -2.889  -6.608 -14.330  1.00 69.30    -0.005 A 
BRANCH  41  46
HETATM   46  C48   D T1795      -2.617  -6.663 -18.187  1.00 62.37     0.028 C 
HETATM   47  C49   D T1795      -2.197  -5.505 -19.065  1.00 61.99     0.005 C 
ENDBRANCH  41  46
BRANCH  45  48
HETATM   48  C46   D T1795      -2.223  -7.242 -13.121  1.00 69.86     0.028 C 
HETATM   49  C47   D T1795      -1.302  -6.371 -12.343  1.00 69.60     0.005 C 
ENDBRANCH  45  48
ENDBRANCH  38  40
ENDBRANCH   7  37
TORSDOF 10
ENDMDL
MODEL 4
REMARK VINA RESULT:      -7.5      5.163      9.551
REMARK  10 active torsions:
REMARK  status: ('A' for Active; 'I' for Inactive)
REMARK    1  A    between atoms: C7_7  and  C8_8 
REMARK       I    between atoms: C8_8  and  N9_9 
REMARK    2  A    between atoms: N9_9  and  C40_40 
REMARK    3  A    between atoms: C16_16  and  N18_18 
REMARK    4  A    between atoms: N18_18  and  C19_19 
REMARK    5  A    between atoms: C20_20  and  O25_25 
REMARK    6  A    between atoms: C22_22  and  C26_26 
REMARK    7  A    between atoms: O25_25  and  C36_36 
REMARK       I    between atoms: C26_26  and  N27_27 
REMARK    8  A    between atoms: N27_27  and  C29_29 
REMARK    9  A    between atoms: C41_41  and  C48_48 
REMARK   10  A    between atoms: C45_45  and  C46_46 
ROOT
HETATM    1  C1    D T1795       0.589 -18.065 -13.912  1.00 51.63     0.034 C 
HETATM    2  C2    D T1795       1.037 -18.879 -12.691  1.00 51.52     0.034 C 
HETATM    3  C3    D T1795       0.277 -16.620 -13.619  1.00 55.48     0.021 A 
HETATM    4  C4    D T1795       0.129 -16.134 -12.337  1.00 57.75     0.094 A 
HETATM    5  N5    D T1795      -0.189 -14.762 -12.452  1.00 62.61    -0.248 N 
HETATM    6  N6    D T1795      -0.221 -14.389 -13.753  1.00 59.90    -0.165 NA
HETATM    7  C7    D T1795       0.050 -15.468 -14.487  1.00 58.43     0.156 A 
HETATM    8  C11   D T1795      -0.482 -13.759 -11.437  1.00 65.05     0.154 C 
HETATM    9  C12   D T1795       0.361 -16.946 -11.158  1.00 55.85     0.114 A 
HETATM   10  C13   D T1795       0.733 -18.283 -11.338  1.00 52.95     0.018 A 
HETATM   11  C14   D T1795       0.864 -18.992 -10.161  1.00 52.30     0.115 A 
HETATM   12  N15   D T1795       0.674 -18.481  -8.933  1.00 54.82    -0.058 NA
HETATM   13  C16   D T1795       0.343 -17.182  -8.887  1.00 57.72     0.750 A 
HETATM   14  N17   D T1795       0.188 -16.385  -9.953  1.00 57.61    -0.058 NA
ENDROOT
BRANCH  13  15
HETATM   15  N18   D T1795       0.143 -16.541  -7.700  1.00 60.94    -0.057 NA
BRANCH  15  16
HETATM   16  C19   D T1795       0.290 -15.179  -7.300  1.00 65.47     0.122 A 
HETATM   17  C20   D T1795      -0.793 -14.279  -7.480  1.00 70.47     0.120 A 
HETATM   18  C21   D T1795      -0.669 -12.942  -7.117  1.00 69.94     0.031 A 
HETATM   19  C22   D T1795       0.512 -12.487  -6.533  1.00 71.79     0.060 A 
HETATM   20  C23   D T1795       1.536 -13.393  -6.266  1.00 67.37     0.006 A 
HETATM   21  C24   D T1795       1.435 -14.719  -6.649  1.00 64.33     0.022 A 
BRANCH  17  22
HETATM   22  O25   D T1795      -2.027 -14.731  -7.936  1.00 74.50    -0.252 OA
BRANCH  22  23
HETATM   23  C36   D T1795      -2.782 -14.028  -8.776  1.00 73.62     0.530 C 
HETATM   24  F37   D T1795      -3.970 -13.964  -8.237  1.00 76.85    -0.144 F 
HETATM   25  F38   D T1795      -2.904 -14.687  -9.900  1.00 74.19    -0.144 F 
HETATM   26  F39   D T1795      -2.426 -12.797  -9.064  1.00 69.98    -0.144 F 
ENDBRANCH  22  23
ENDBRANCH  17  22
BRANCH  19  27
HETATM   27  C26   D T1795       0.752 -11.025  -6.304  1.00 79.40     0.275 C 
HETATM   28  N27   D T1795       1.236 -10.315  -7.335  1.00 83.12    -0.236 NA
HETATM   29  O28   D T1795       0.526 -10.510  -5.209  1.00 82.99    -0.266 OA
BRANCH  28  30
HETATM   30  C29   D T1795       1.470  -8.873  -7.250  1.00 87.94     0.111 C 
HETATM   31  C30   D T1795       2.942  -8.569  -7.003  1.00 90.97     0.060 C 
HETATM   32  C31   D T1795       3.185  -7.053  -7.005  1.00 92.12     0.252 C 
HETATM   33  N32   D T1795       2.741  -6.449  -8.260  1.00 92.37     0.139 N 
HETATM   34  C33   D T1795       1.304  -6.663  -8.431  1.00 90.99     0.252 C 
HETATM   35  C35   D T1795       3.056  -5.020  -8.285  1.00 92.33     0.285 C 
HETATM   36  C34   D T1795       0.973  -8.160  -8.501  1.00 89.52     0.060 C 
ENDBRANCH  28  30
ENDBRANCH  19  27
ENDBRANCH  15  16
ENDBRANCH  13  15
BRANCH   7  37
HETATM   37  C8    D T1795       0.150 -15.367 -15.971  1.00 60.70     0.298 C 
HETATM   38  N9    D T1795       0.537 -14.143 -16.417  1.00 63.10    -0.207 NA
HETATM   39  O10   D T1795      -0.072 -16.329 -16.707  1.00 59.02    -0.263 OA
BRANCH  38  40
HETATM   40  C40   D T1795       0.726 -13.791 -17.785  1.00 66.12     0.077 A 
HETATM   41  C41   D T1795       1.671 -14.446 -18.592  1.00 65.21    -0.005 A 
HETATM   42  C42   D T1795       1.664 -14.159 -19.955  1.00 66.54    -0.003 A 
HETATM   43  C43   D T1795       0.765 -13.247 -20.486  1.00 67.86    -0.001 A 
HETATM   44  C44   D T1795      -0.128 -12.578 -19.661  1.00 69.17    -0.003 A 
HETATM   45  C45   D T1795      -0.144 -12.811 -18.286  1.00 69.30    -0.005 A 
BRANCH  41  46
HETATM   46  C48   D T1795       2.741 -15.377 -18.055  1.00 62.37     0.028 C 
HETATM   47  C49   D T1795       2.598 -16.831 -18.451  1.00 61.99     0.005 C 
ENDBRANCH  41  46
BRANCH  45  48
HETATM   48  C46   D T1795      -0.923 -11.872 -17.381  1.00 69.86     0.028 C 
HETATM   49  C47   D T1795      -2.314 -11.556 -17.800  1.00 69.60     0.005 C 
ENDBRANCH  45  48
ENDBRANCH  38  40
ENDBRANCH   7  37
TORSDOF 10
ENDMDL
MODEL 5
REMARK VINA RESULT:      -7.5      3.911      6.290
REMARK  10 active torsions:
REMARK  status: ('A' for Active; 'I' for Inactive)
REMARK    1  A    between atoms: C7_7  and  C8_8 
REMARK       I    between atoms: C8_8  and  N9_9 
REMARK    2  A    between atoms: N9_9  and  C40_40 
REMARK    3  A    between atoms: C16_16  and  N18_18 
REMARK    4  A    between atoms: N18_18  and  C19_19 
REMARK    5  A    between atoms: C20_20  and  O25_25 
REMARK    6  A    between atoms: C22_22  and  C26_26 
REMARK    7  A    between atoms: O25_25  and  C36_36 
REMARK       I    between atoms: C26_26  and  N27_27 
REMARK    8  A    between atoms: N27_27  and  C29_29 
REMARK    9  A    between atoms: C41_41  and  C48_48 
REMARK   10  A    between atoms: C45_45  and  C46_46 
ROOT
HETATM    1  C1    D T1795       1.656 -14.257 -17.990  1.00 51.63     0.034 C 
HETATM    2  C2    D T1795       1.009 -13.228 -18.925  1.00 51.52     0.034 C 
HETATM    3  C3    D T1795       0.973 -14.403 -16.654  1.00 55.48     0.021 A 
HETATM    4  C4    D T1795       0.033 -13.506 -16.195  1.00 57.75     0.094 A 
HETATM    5  N5    D T1795      -0.356 -13.941 -14.908  1.00 62.61    -0.248 N 
HETATM    6  N6    D T1795       0.295 -15.080 -14.574  1.00 59.90    -0.165 NA
HETATM    7  C7    D T1795       1.102 -15.394 -15.588  1.00 58.43     0.156 A 
HETATM    8  C11   D T1795      -1.289 -13.369 -13.945  1.00 65.05     0.154 C 
HETATM    9  C12   D T1795      -0.455 -12.400 -16.997  1.00 55.85     0.114 A 
HETATM   10  C13   D T1795       0.068 -12.235 -18.284  1.00 52.95     0.018 A 
HETATM   11  C14   D T1795      -0.405 -11.120 -18.944  1.00 52.30     0.115 A 
HETATM   12  N15   D T1795      -1.298 -10.251 -18.438  1.00 54.82    -0.058 NA
HETATM   13  C16   D T1795      -1.745 -10.528 -17.203  1.00 57.72     0.750 A 
HETATM   14  N17   D T1795      -1.368 -11.578 -16.461  1.00 57.61    -0.058 NA
ENDROOT
BRANCH  13  15
HETATM   15  N18   D T1795      -2.668  -9.735 -16.587  1.00 60.94    -0.057 NA
BRANCH  15  16
HETATM   16  C19   D T1795      -2.555  -8.532 -15.829  1.00 65.47     0.122 A 
HETATM   17  C20   D T1795      -2.529  -7.283 -16.503  1.00 70.47     0.120 A 
HETATM   18  C21   D T1795      -2.400  -6.097 -15.789  1.00 69.94     0.031 A 
HETATM   19  C22   D T1795      -2.338  -6.126 -14.397  1.00 71.79     0.060 A 
HETATM   20  C23   D T1795      -2.466  -7.344 -13.732  1.00 67.37     0.006 A 
HETATM   21  C24   D T1795      -2.565  -8.534 -14.434  1.00 64.33     0.022 A 
BRANCH  17  22
HETATM   22  O25   D T1795      -2.721  -7.211 -17.879  1.00 74.50    -0.252 OA
BRANCH  22  23
HETATM   23  C36   D T1795      -2.888  -6.058 -18.521  1.00 73.62     0.530 C 
HETATM   24  F37   D T1795      -3.489  -6.347 -19.644  1.00 76.85    -0.144 F 
HETATM   25  F38   D T1795      -1.716  -5.562 -18.828  1.00 74.19    -0.144 F 
HETATM   26  F39   D T1795      -3.591  -5.111 -17.943  1.00 69.98    -0.144 F 
ENDBRANCH  22  23
ENDBRANCH  17  22
BRANCH  19  27
HETATM   27  C26   D T1795      -2.011  -4.894 -13.607  1.00 79.40     0.275 C 
HETATM   28  N27   D T1795      -1.721  -5.060 -12.308  1.00 83.12    -0.236 NA
HETATM   29  O28   D T1795      -2.026  -3.782 -14.134  1.00 82.99    -0.266 OA
BRANCH  28  30
HETATM   30  C29   D T1795      -1.342  -3.942 -11.443  1.00 87.94     0.111 C 
HETATM   31  C30   D T1795      -1.887  -4.129 -10.032  1.00 90.97     0.060 C 
HETATM   32  C31   D T1795      -1.407  -2.994  -9.116  1.00 92.12     0.252 C 
HETATM   33  N32   D T1795       0.053  -2.916  -9.094  1.00 92.37     0.139 N 
HETATM   34  C33   D T1795       0.553  -2.635 -10.440  1.00 90.99     0.252 C 
HETATM   35  C35   D T1795       0.500  -1.889  -8.152  1.00 92.33     0.285 C 
HETATM   36  C34   D T1795       0.170  -3.754 -11.417  1.00 89.52     0.060 C 
ENDBRANCH  28  30
ENDBRANCH  19  27
ENDBRANCH  15  16
ENDBRANCH  13  15
BRANCH   7  37
HETATM   37  C8    D T1795       1.916 -16.641 -15.548  1.00 60.70     0.298 C 
HETATM   38  N9    D T1795       2.224 -17.060 -14.292  1.00 63.10    -0.207 NA
HETATM   39  O10   D T1795       2.241 -17.241 -16.573  1.00 59.02    -0.263 OA
BRANCH  38  40
HETATM   40  C40   D T1795       2.973 -18.232 -13.980  1.00 66.12     0.077 A 
HETATM   41  C41   D T1795       4.378 -18.221 -13.938  1.00 65.21    -0.005 A 
HETATM   42  C42   D T1795       5.017 -19.360 -13.455  1.00 66.54    -0.003 A 
HETATM   43  C43   D T1795       4.287 -20.467 -13.046  1.00 67.86    -0.001 A 
HETATM   44  C44   D T1795       2.903 -20.469 -13.141  1.00 69.17    -0.003 A 
HETATM   45  C45   D T1795       2.217 -19.363 -13.642  1.00 69.30    -0.005 A 
BRANCH  41  46
HETATM   46  C48   D T1795       5.230 -17.081 -14.463  1.00 62.37     0.028 C 
HETATM   47  C49   D T1795       4.869 -15.707 -13.943  1.00 61.99     0.005 C 
ENDBRANCH  41  46
BRANCH  45  48
HETATM   48  C46   D T1795       0.746 -19.498 -13.997  1.00 69.86     0.028 C 
HETATM   49  C47   D T1795       0.022 -20.643 -13.384  1.00 69.60     0.005 C 
ENDBRANCH  45  48
ENDBRANCH  38  40
ENDBRANCH   7  37
TORSDOF 10
ENDMDL
MODEL 6
REMARK VINA RESULT:      -7.2      7.640     15.245
REMARK  10 active torsions:
REMARK  status: ('A' for Active; 'I' for Inactive)
REMARK    1  A    between atoms: C7_7  and  C8_8 
REMARK       I    between atoms: C8_8  and  N9_9 
REMARK    2  A    between atoms: N9_9  and  C40_40 
REMARK    3  A    between atoms: C16_16  and  N18_18 
REMARK    4  A    between atoms: N18_18  and  C19_19 
REMARK    5  A    between atoms: C20_20  and  O25_25 
REMARK    6  A    between atoms: C22_22  and  C26_26 
REMARK    7  A    between atoms: O25_25  and  C36_36 
REMARK       I    between atoms: C26_26  and  N27_27 
REMARK    8  A    between atoms: N27_27  and  C29_29 
REMARK    9  A    between atoms: C41_41  and  C48_48 
REMARK   10  A    between atoms: C45_45  and  C46_46 
ROOT
HETATM    1  C1    D T1795      -6.879  -5.473 -15.404  1.00 51.63     0.034 C 
HETATM    2  C2    D T1795      -7.469  -6.570 -14.510  1.00 51.52     0.034 C 
HETATM    3  C3    D T1795      -5.572  -4.904 -14.915  1.00 55.48     0.021 A 
HETATM    4  C4    D T1795      -5.087  -5.134 -13.645  1.00 57.75     0.094 A 
HETATM    5  N5    D T1795      -3.872  -4.421 -13.534  1.00 62.61    -0.248 N 
HETATM    6  N6    D T1795      -3.587  -3.783 -14.693  1.00 59.90    -0.165 NA
HETATM    7  C7    D T1795      -4.577  -4.042 -15.548  1.00 58.43     0.156 A 
HETATM    8  C11   D T1795      -2.947  -4.275 -12.417  1.00 65.05     0.154 C 
HETATM    9  C12   D T1795      -5.740  -6.024 -12.705  1.00 55.85     0.114 A 
HETATM   10  C13   D T1795      -6.921  -6.660 -13.106  1.00 52.95     0.018 A 
HETATM   11  C14   D T1795      -7.505  -7.432 -12.123  1.00 52.30     0.115 A 
HETATM   12  N15   D T1795      -7.011  -7.597 -10.883  1.00 54.82    -0.058 NA
HETATM   13  C16   D T1795      -5.861  -6.957 -10.625  1.00 57.72     0.750 A 
HETATM   14  N17   D T1795      -5.195  -6.182 -11.491  1.00 57.61    -0.058 NA
ENDROOT
BRANCH  13  15
HETATM   15  N18   D T1795      -5.247  -7.061  -9.410  1.00 60.94    -0.057 NA
BRANCH  15  16
HETATM   16  C19   D T1795      -4.474  -8.095  -8.805  1.00 65.47     0.122 A 
HETATM   17  C20   D T1795      -5.129  -9.105  -8.052  1.00 70.47     0.120 A 
HETATM   18  C21   D T1795      -4.397 -10.114  -7.435  1.00 69.94     0.031 A 
HETATM   19  C22   D T1795      -3.013 -10.162  -7.589  1.00 71.79     0.060 A 
HETATM   20  C23   D T1795      -2.383  -9.229  -8.411  1.00 67.37     0.006 A 
HETATM   21  C24   D T1795      -3.097  -8.203  -9.005  1.00 64.33     0.022 A 
BRANCH  17  22
HETATM   22  O25   D T1795      -6.517  -9.160  -7.990  1.00 74.50    -0.252 OA
BRANCH  22  23
HETATM   23  C36   D T1795      -7.227  -8.426  -7.136  1.00 73.62     0.530 C 
HETATM   24  F37   D T1795      -8.059  -9.245  -6.551  1.00 76.85    -0.144 F 
HETATM   25  F38   D T1795      -7.944  -7.561  -7.805  1.00 74.19    -0.144 F 
HETATM   26  F39   D T1795      -6.594  -7.779  -6.184  1.00 69.98    -0.144 F 
ENDBRANCH  22  23
ENDBRANCH  17  22
BRANCH  19  27
HETATM   27  C26   D T1795      -2.175 -11.115  -6.792  1.00 79.40     0.275 C 
HETATM   28  N27   D T1795      -1.438 -12.004  -7.476  1.00 83.12    -0.236 NA
HETATM   29  O28   D T1795      -2.179 -11.085  -5.561  1.00 82.99    -0.266 OA
BRANCH  28  30
HETATM   30  C29   D T1795      -0.546 -12.956  -6.814  1.00 87.94     0.111 C 
HETATM   31  C30   D T1795      -1.078 -14.379  -6.929  1.00 90.97     0.060 C 
HETATM   32  C31   D T1795      -0.087 -15.374  -6.306  1.00 92.12     0.252 C 
HETATM   33  N32   D T1795       1.230 -15.268  -6.932  1.00 92.37     0.139 N 
HETATM   34  C33   D T1795       1.769 -13.924  -6.724  1.00 90.99     0.252 C 
HETATM   35  C35   D T1795       2.140 -16.279  -6.392  1.00 92.33     0.285 C 
HETATM   36  C34   D T1795       0.870 -12.862  -7.369  1.00 89.52     0.060 C 
ENDBRANCH  28  30
ENDBRANCH  19  27
ENDBRANCH  15  16
ENDBRANCH  13  15
BRANCH   7  37
HETATM   37  C8    D T1795      -4.524  -3.524 -16.944  1.00 60.70     0.298 C 
HETATM   38  N9    D T1795      -5.038  -4.377 -17.870  1.00 63.10    -0.207 NA
HETATM   39  O10   D T1795      -4.078  -2.407 -17.210  1.00 59.02    -0.263 OA
BRANCH  38  40
HETATM   40  C40   D T1795      -5.123  -4.114 -19.268  1.00 66.12     0.077 A 
HETATM   41  C41   D T1795      -6.162  -3.339 -19.812  1.00 65.21    -0.005 A 
HETATM   42  C42   D T1795      -6.068  -2.989 -21.157  1.00 66.54    -0.003 A 
HETATM   43  C43   D T1795      -4.995  -3.408 -21.928  1.00 67.86    -0.001 A 
HETATM   44  C44   D T1795      -4.006  -4.211 -21.379  1.00 69.17    -0.003 A 
HETATM   45  C45   D T1795      -4.067  -4.611 -20.044  1.00 69.30    -0.005 A 
BRANCH  41  46
HETATM   46  C48   D T1795      -7.407  -2.936 -19.044  1.00 62.37     0.028 C 
HETATM   47  C49   D T1795      -8.457  -4.015 -18.896  1.00 61.99     0.005 C 
ENDBRANCH  41  46
BRANCH  45  48
HETATM   48  C46   D T1795      -3.137  -5.707 -19.552  1.00 69.86     0.028 C 
HETATM   49  C47   D T1795      -1.820  -5.265 -19.022  1.00 69.60     0.005 C 
ENDBRANCH  45  48
ENDBRANCH  38  40
ENDBRANCH   7  37
TORSDOF 10
ENDMDL
MODEL 7
REMARK VINA RESULT:      -7.1      5.951      9.925
REMARK  10 active torsions:
REMARK  status: ('A' for Active; 'I' for Inactive)
REMARK    1  A    between atoms: C7_7  and  C8_8 
REMARK       I    between atoms: C8_8  and  N9_9 
REMARK    2  A    between atoms: N9_9  and  C40_40 
REMARK    3  A    between atoms: C16_16  and  N18_18 
REMARK    4  A    between atoms: N18_18  and  C19_19 
REMARK    5  A    between atoms: C20_20  and  O25_25 
REMARK    6  A    between atoms: C22_22  and  C26_26 
REMARK    7  A    between atoms: O25_25  and  C36_36 
REMARK       I    between atoms: C26_26  and  N27_27 
REMARK    8  A    between atoms: N27_27  and  C29_29 
REMARK    9  A    between atoms: C41_41  and  C48_48 
REMARK   10  A    between atoms: C45_45  and  C46_46 
ROOT
HETATM    1  C1    D T1795       0.555 -17.742 -13.650  1.00 51.63     0.034 C 
HETATM    2  C2    D T1795       0.953 -18.412 -12.329  1.00 51.52     0.034 C 
HETATM    3  C3    D T1795       0.155 -16.295 -13.522  1.00 55.48     0.021 A 
HETATM    4  C4    D T1795      -0.107 -15.699 -12.307  1.00 57.75     0.094 A 
HETATM    5  N5    D T1795      -0.481 -14.363 -12.577  1.00 62.61    -0.248 N 
HETATM    6  N6    D T1795      -0.437 -14.117 -13.907  1.00 59.90    -0.165 NA
HETATM    7  C7    D T1795      -0.062 -15.244 -14.513  1.00 58.43     0.156 A 
HETATM    8  C11   D T1795      -0.893 -13.286 -11.687  1.00 65.05     0.154 C 
HETATM    9  C12   D T1795       0.077 -16.382 -11.041  1.00 55.85     0.114 A 
HETATM   10  C13   D T1795       0.524 -17.708 -11.063  1.00 52.95     0.018 A 
HETATM   11  C14   D T1795       0.603 -18.295  -9.817  1.00 52.30     0.115 A 
HETATM   12  N15   D T1795       0.301 -17.681  -8.660  1.00 54.82    -0.058 NA
HETATM   13  C16   D T1795      -0.093 -16.403  -8.765  1.00 57.72     0.750 A 
HETATM   14  N17   D T1795      -0.208 -15.719  -9.911  1.00 57.61    -0.058 NA
ENDROOT
BRANCH  13  15
HETATM   15  N18   D T1795      -0.408 -15.664  -7.662  1.00 60.94    -0.057 NA
BRANCH  15  16
HETATM   16  C19   D T1795      -1.023 -14.387  -7.498  1.00 65.47     0.122 A 
HETATM   17  C20   D T1795      -0.539 -13.504  -6.497  1.00 70.47     0.120 A 
HETATM   18  C21   D T1795      -1.132 -12.261  -6.303  1.00 69.94     0.031 A 
HETATM   19  C22   D T1795      -2.184 -11.858  -7.124  1.00 71.79     0.060 A 
HETATM   20  C23   D T1795      -2.591 -12.683  -8.171  1.00 67.37     0.006 A 
HETATM   21  C24   D T1795      -2.028 -13.934  -8.354  1.00 64.33     0.022 A 
BRANCH  17  22
HETATM   22  O25   D T1795       0.591 -13.822  -5.751  1.00 74.50    -0.252 OA
BRANCH  22  23
HETATM   23  C36   D T1795       1.772 -13.245  -5.956  1.00 73.62     0.530 C 
HETATM   24  F37   D T1795       2.076 -13.463  -7.208  1.00 76.85    -0.144 F 
HETATM   25  F38   D T1795       2.678 -13.847  -5.229  1.00 74.19    -0.144 F 
HETATM   26  F39   D T1795       1.885 -11.952  -5.755  1.00 69.98    -0.144 F 
ENDBRANCH  22  23
ENDBRANCH  17  22
BRANCH  19  27
HETATM   27  C26   D T1795      -2.969 -10.615  -6.828  1.00 79.40     0.275 C 
HETATM   28  N27   D T1795      -4.274 -10.626  -7.139  1.00 83.12    -0.236 NA
HETATM   29  O28   D T1795      -2.426  -9.627  -6.333  1.00 82.99    -0.266 OA
BRANCH  28  30
HETATM   30  C29   D T1795      -5.154  -9.492  -6.858  1.00 87.94     0.111 C 
HETATM   31  C30   D T1795      -6.366  -9.495  -7.780  1.00 90.97     0.060 C 
HETATM   32  C31   D T1795      -7.323  -8.351  -7.414  1.00 92.12     0.252 C 
HETATM   33  N32   D T1795      -7.744  -8.443  -6.017  1.00 92.37     0.139 N 
HETATM   34  C33   D T1795      -6.577  -8.336  -5.141  1.00 90.99     0.252 C 
HETATM   35  C35   D T1795      -8.722  -7.400  -5.703  1.00 92.33     0.285 C 
HETATM   36  C34   D T1795      -5.588  -9.481  -5.397  1.00 89.52     0.060 C 
ENDBRANCH  28  30
ENDBRANCH  19  27
ENDBRANCH  15  16
ENDBRANCH  13  15
BRANCH   7  37
HETATM   37  C8    D T1795       0.139 -15.278 -15.989  1.00 60.70     0.298 C 
HETATM   38  N9    D T1795       0.474 -14.077 -16.529  1.00 63.10    -0.207 NA
HETATM   39  O10   D T1795       0.036 -16.321 -16.637  1.00 59.02    -0.263 OA
BRANCH  38  40
HETATM   40  C40   D T1795       0.738 -13.845 -17.910  1.00 66.12     0.077 A 
HETATM   41  C41   D T1795       1.718 -14.573 -18.607  1.00 65.21    -0.005 A 
HETATM   42  C42   D T1795       1.786 -14.403 -19.988  1.00 66.54    -0.003 A 
HETATM   43  C43   D T1795       0.926 -13.535 -20.642  1.00 67.86    -0.001 A 
HETATM   44  C44   D T1795      -0.002 -12.793 -19.925  1.00 69.17    -0.003 A 
HETATM   45  C45   D T1795      -0.093 -12.907 -18.538  1.00 69.30    -0.005 A 
BRANCH  41  46
HETATM   46  C48   D T1795       2.749 -15.460 -17.935  1.00 62.37     0.028 C 
HETATM   47  C49   D T1795       2.687 -16.925 -18.306  1.00 61.99     0.005 C 
ENDBRANCH  41  46
BRANCH  45  48
HETATM   48  C46   D T1795      -0.910 -11.890 -17.760  1.00 69.86     0.028 C 
HETATM   49  C47   D T1795      -0.756 -10.469 -18.170  1.00 69.60     0.005 C 
ENDBRANCH  45  48
ENDBRANCH  38  40
ENDBRANCH   7  37
TORSDOF 10
ENDMDL
MODEL 8
REMARK VINA RESULT:      -6.9      9.022     15.220
REMARK  10 active torsions:
REMARK  status: ('A' for Active; 'I' for Inactive)
REMARK    1  A    between atoms: C7_7  and  C8_8 
REMARK       I    between atoms: C8_8  and  N9_9 
REMARK    2  A    between atoms: N9_9  and  C40_40 
REMARK    3  A    between atoms: C16_16  and  N18_18 
REMARK    4  A    between atoms: N18_18  and  C19_19 
REMARK    5  A    between atoms: C20_20  and  O25_25 
REMARK    6  A    between atoms: C22_22  and  C26_26 
REMARK    7  A    between atoms: O25_25  and  C36_36 
REMARK       I    between atoms: C26_26  and  N27_27 
REMARK    8  A    between atoms: N27_27  and  C29_29 
REMARK    9  A    between atoms: C41_41  and  C48_48 
REMARK   10  A    between atoms: C45_45  and  C46_46 
ROOT
HETATM    1  C1    D T1795      -7.188  -5.364 -15.859  1.00 51.63     0.034 C 
HETATM    2  C2    D T1795      -7.793  -6.473 -14.989  1.00 51.52     0.034 C 
HETATM    3  C3    D T1795      -5.924  -4.757 -15.307  1.00 55.48     0.021 A 
HETATM    4  C4    D T1795      -5.499  -4.968 -14.012  1.00 57.75     0.094 A 
HETATM    5  N5    D T1795      -4.312  -4.221 -13.843  1.00 62.61    -0.248 N 
HETATM    6  N6    D T1795      -3.985  -3.580 -14.990  1.00 59.90    -0.165 NA
HETATM    7  C7    D T1795      -4.922  -3.870 -15.893  1.00 58.43     0.156 A 
HETATM    8  C11   D T1795      -3.449  -4.044 -12.682  1.00 65.05     0.154 C 
HETATM    9  C12   D T1795      -6.175  -5.871 -13.101  1.00 55.85     0.114 A 
HETATM   10  C13   D T1795      -7.316  -6.541 -13.558  1.00 52.95     0.018 A 
HETATM   11  C14   D T1795      -7.928  -7.325 -12.602  1.00 52.30     0.115 A 
HETATM   12  N15   D T1795      -7.494  -7.470 -11.338  1.00 54.82    -0.058 NA
HETATM   13  C16   D T1795      -6.376  -6.797 -11.024  1.00 57.72     0.750 A 
HETATM   14  N17   D T1795      -5.688  -6.008 -11.860  1.00 57.61    -0.058 NA
ENDROOT
BRANCH  13  15
HETATM   15  N18   D T1795      -5.824  -6.878  -9.780  1.00 60.94    -0.057 NA
BRANCH  15  16
HETATM   16  C19   D T1795      -4.722  -7.620  -9.259  1.00 65.47     0.122 A 
HETATM   17  C20   D T1795      -4.970  -8.735  -8.415  1.00 70.47     0.120 A 
HETATM   18  C21   D T1795      -3.915  -9.464  -7.878  1.00 69.94     0.031 A 
HETATM   19  C22   D T1795      -2.602  -9.127  -8.202  1.00 71.79     0.060 A 
HETATM   20  C23   D T1795      -2.364  -8.097  -9.110  1.00 67.37     0.006 A 
HETATM   21  C24   D T1795      -3.405  -7.346  -9.627  1.00 64.33     0.022 A 
BRANCH  17  22
HETATM   22  O25   D T1795      -6.268  -9.176  -8.180  1.00 74.50    -0.252 OA
BRANCH  22  23
HETATM   23  C36   D T1795      -6.919  -8.921  -7.048  1.00 73.62     0.530 C 
HETATM   24  F37   D T1795      -6.618  -7.693  -6.721  1.00 76.85    -0.144 F 
HETATM   25  F38   D T1795      -6.455  -9.696  -6.101  1.00 74.19    -0.144 F 
HETATM   26  F39   D T1795      -8.229  -9.010  -7.040  1.00 69.98    -0.144 F 
ENDBRANCH  22  23
ENDBRANCH  17  22
BRANCH  19  27
HETATM   27  C26   D T1795      -1.440  -9.764  -7.500  1.00 79.40     0.275 C 
HETATM   28  N27   D T1795      -0.214  -9.322  -7.820  1.00 83.12    -0.236 NA
HETATM   29  O28   D T1795      -1.613 -10.663  -6.677  1.00 82.99    -0.266 OA
BRANCH  28  30
HETATM   30  C29   D T1795       0.994  -9.832  -7.172  1.00 87.94     0.111 C 
HETATM   31  C30   D T1795       1.755 -10.777  -8.093  1.00 90.97     0.060 C 
HETATM   32  C31   D T1795       3.064 -11.233  -7.433  1.00 92.12     0.252 C 
HETATM   33  N32   D T1795       3.900 -10.089  -7.072  1.00 92.37     0.139 N 
HETATM   34  C33   D T1795       3.193  -9.245  -6.108  1.00 90.99     0.252 C 
HETATM   35  C35   D T1795       5.180 -10.537  -6.523  1.00 92.33     0.285 C 
HETATM   36  C34   D T1795       1.893  -8.692  -6.707  1.00 89.52     0.060 C 
ENDBRANCH  28  30
ENDBRANCH  19  27
ENDBRANCH  15  16
ENDBRANCH  13  15
BRANCH   7  37
HETATM   37  C8    D T1795      -4.812  -3.358 -17.288  1.00 60.70     0.298 C 
HETATM   38  N9    D T1795      -5.107  -4.282 -18.241  1.00 63.10    -0.207 NA
HETATM   39  O10   D T1795      -4.509  -2.190 -17.532  1.00 59.02    -0.263 OA
BRANCH  38  40
HETATM   40  C40   D T1795      -5.096  -4.042 -19.646  1.00 66.12     0.077 A 
HETATM   41  C41   D T1795      -6.121  -3.320 -20.280  1.00 65.21    -0.005 A 
HETATM   42  C42   D T1795      -5.940  -2.984 -21.619  1.00 66.54    -0.003 A 
HETATM   43  C43   D T1795      -4.794  -3.366 -22.300  1.00 67.86    -0.001 A 
HETATM   44  C44   D T1795      -3.817  -4.118 -21.664  1.00 69.17    -0.003 A 
HETATM   45  C45   D T1795      -3.963  -4.502 -20.331  1.00 69.30    -0.005 A 
BRANCH  41  46
HETATM   46  C48   D T1795      -7.437  -2.961 -19.616  1.00 62.37     0.028 C 
HETATM   47  C49   D T1795      -8.628  -2.861 -20.544  1.00 61.99     0.005 C 
ENDBRANCH  41  46
BRANCH  45  48
HETATM   48  C46   D T1795      -3.028  -5.550 -19.752  1.00 69.86     0.028 C 
HETATM   49  C47   D T1795      -1.858  -5.040 -18.988  1.00 69.60     0.005 C 
ENDBRANCH  45  48
ENDBRANCH  38  40
ENDBRANCH   7  37
TORSDOF 10
ENDMDL
MODEL 9
REMARK VINA RESULT:      -6.6      3.738      5.727
REMARK  10 active torsions:
REMARK  status: ('A' for Active; 'I' for Inactive)
REMARK    1  A    between atoms: C7_7  and  C8_8 
REMARK       I    between atoms: C8_8  and  N9_9 
REMARK    2  A    between atoms: N9_9  and  C40_40 
REMARK    3  A    between atoms: C16_16  and  N18_18 
REMARK    4  A    between atoms: N18_18  and  C19_19 
REMARK    5  A    between atoms: C20_20  and  O25_25 
REMARK    6  A    between atoms: C22_22  and  C26_26 
REMARK    7  A    between atoms: O25_25  and  C36_36 
REMARK       I    between atoms: C26_26  and  N27_27 
REMARK    8  A    between atoms: N27_27  and  C29_29 
REMARK    9  A    between atoms: C41_41  and  C48_48 
REMARK   10  A    between atoms: C45_45  and  C46_46 
ROOT
HETATM    1  C1    D T1795       1.916 -14.713 -18.013  1.00 51.63     0.034 C 
HETATM    2  C2    D T1795       1.373 -13.707 -19.037  1.00 51.52     0.034 C 
HETATM    3  C3    D T1795       1.109 -14.811 -16.744  1.00 55.48     0.021 A 
HETATM    4  C4    D T1795       0.141 -13.890 -16.404  1.00 57.75     0.094 A 
HETATM    5  N5    D T1795      -0.373 -14.281 -15.147  1.00 62.61    -0.248 N 
HETATM    6  N6    D T1795       0.229 -15.415 -14.719  1.00 59.90    -0.165 NA
HETATM    7  C7    D T1795       1.124 -15.768 -15.642  1.00 58.43     0.156 A 
HETATM    8  C11   D T1795      -1.386 -13.671 -14.295  1.00 65.05     0.154 C 
HETATM    9  C12   D T1795      -0.255 -12.806 -17.282  1.00 55.85     0.114 A 
HETATM   10  C13   D T1795       0.389 -12.686 -18.518  1.00 52.95     0.018 A 
HETATM   11  C14   D T1795      -0.007 -11.588 -19.253  1.00 52.30     0.115 A 
HETATM   12  N15   D T1795      -0.932 -10.695 -18.861  1.00 54.82    -0.058 NA
HETATM   13  C16   D T1795      -1.497 -10.929 -17.666  1.00 57.72     0.750 A 
HETATM   14  N17   D T1795      -1.205 -11.958 -16.860  1.00 57.61    -0.058 NA
ENDROOT
BRANCH  13  15
HETATM   15  N18   D T1795      -2.464 -10.108 -17.165  1.00 60.94    -0.057 NA
BRANCH  15  16
HETATM   16  C19   D T1795      -2.432  -9.047 -16.212  1.00 65.47     0.122 A 
HETATM   17  C20   D T1795      -2.493  -7.702 -16.665  1.00 70.47     0.120 A 
HETATM   18  C21   D T1795      -2.444  -6.649 -15.759  1.00 69.94     0.031 A 
HETATM   19  C22   D T1795      -2.376  -6.910 -14.392  1.00 71.79     0.060 A 
HETATM   20  C23   D T1795      -2.418  -8.229 -13.944  1.00 67.37     0.006 A 
HETATM   21  C24   D T1795      -2.437  -9.286 -14.838  1.00 64.33     0.022 A 
BRANCH  17  22
HETATM   22  O25   D T1795      -2.694  -7.412 -18.010  1.00 74.50    -0.252 OA
BRANCH  22  23
HETATM   23  C36   D T1795      -2.789  -6.166 -18.469  1.00 73.62     0.530 C 
HETATM   24  F37   D T1795      -3.863  -5.657 -17.929  1.00 76.85    -0.144 F 
HETATM   25  F38   D T1795      -2.985  -6.197 -19.762  1.00 74.19    -0.144 F 
HETATM   26  F39   D T1795      -1.805  -5.330 -18.227  1.00 69.98    -0.144 F 
ENDBRANCH  22  23
ENDBRANCH  17  22
BRANCH  19  27
HETATM   27  C26   D T1795      -2.132  -5.810 -13.402  1.00 79.40     0.275 C 
HETATM   28  N27   D T1795      -3.200  -5.324 -12.751  1.00 83.12    -0.236 NA
HETATM   29  O28   D T1795      -0.998  -5.371 -13.211  1.00 82.99    -0.266 OA
BRANCH  28  30
HETATM   30  C29   D T1795      -3.085  -4.283 -11.730  1.00 87.94     0.111 C 
HETATM   31  C30   D T1795      -3.748  -2.989 -12.186  1.00 90.97     0.060 C 
HETATM   32  C31   D T1795      -3.696  -1.936 -11.069  1.00 92.12     0.252 C 
HETATM   33  N32   D T1795      -4.329  -2.432  -9.848  1.00 92.37     0.139 N 
HETATM   34  C33   D T1795      -3.616  -3.616  -9.367  1.00 90.99     0.252 C 
HETATM   35  C35   D T1795      -4.351  -1.390  -8.820  1.00 92.33     0.285 C 
HETATM   36  C34   D T1795      -3.668  -4.748 -10.401  1.00 89.52     0.060 C 
ENDBRANCH  28  30
ENDBRANCH  19  27
ENDBRANCH  15  16
ENDBRANCH  13  15
BRANCH   7  37
HETATM   37  C8    D T1795       1.915 -17.022 -15.487  1.00 60.70     0.298 C 
HETATM   38  N9    D T1795       2.437 -17.196 -14.244  1.00 63.10    -0.207 NA
HETATM   39  O10   D T1795       2.045 -17.829 -16.408  1.00 59.02    -0.263 OA
BRANCH  38  40
HETATM   40  C40   D T1795       3.214 -18.318 -13.831  1.00 66.12     0.077 A 
HETATM   41  C41   D T1795       2.623 -19.450 -13.247  1.00 65.21    -0.005 A 
HETATM   42  C42   D T1795       3.433 -20.564 -13.038  1.00 66.54    -0.003 A 
HETATM   43  C43   D T1795       4.776 -20.542 -13.381  1.00 67.86    -0.001 A 
HETATM   44  C44   D T1795       5.346 -19.395 -13.914  1.00 69.17    -0.003 A 
HETATM   45  C45   D T1795       4.584 -18.246 -14.120  1.00 69.30    -0.005 A 
BRANCH  41  46
HETATM   46  C48   D T1795       1.187 -19.499 -12.760  1.00 62.37     0.028 C 
HETATM   47  C49   D T1795       0.196 -20.122 -13.718  1.00 61.99     0.005 C 
ENDBRANCH  41  46
BRANCH  45  48
HETATM   48  C46   D T1795       5.284 -16.935 -14.433  1.00 69.86     0.028 C 
HETATM   49  C47   D T1795       4.775 -15.730 -13.725  1.00 69.60     0.005 C 
ENDBRANCH  45  48
ENDBRANCH  38  40
ENDBRANCH   7  37
TORSDOF 10
ENDMDL
