MODEL 1
REMARK VINA RESULT:      -8.1      0.000      0.000
REMARK  16 active torsions:
REMARK  status: ('A' for Active; 'I' for Inactive)
REMARK    1  A    between atoms: S1_2  and  N7_4 
REMARK    2  A    between atoms: S1_2  and  C21_9 
REMARK    3  A    between atoms: N7_4  and  C23_5 
REMARK    4  A    between atoms: C17_14  and  N1_15 
REMARK    5  A    between atoms: N1_15  and  C1_16 
REMARK    6  A    between atoms: C4_18  and  N4_23 
REMARK    7  A    between atoms: N4_23  and  C6_24 
REMARK    8  A    between atoms: C9_27  and  N5_30 
REMARK    9  A    between atoms: S1_38  and  N7_40 
REMARK   10  A    between atoms: S1_38  and  C21_45 
REMARK   11  A    between atoms: N7_40  and  C23_41 
REMARK   12  A    between atoms: C17_50  and  N1_51 
REMARK   13  A    between atoms: N1_51  and  C1_52 
REMARK   14  A    between atoms: C4_54  and  N4_59 
REMARK   15  A    between atoms: N4_59  and  C6_60 
REMARK   16  A    between atoms: C9_63  and  N5_66 
ROOT
HETATM    1  C1    D T1203     -27.946 -51.755  32.173  1.00 49.34     0.178 A 
HETATM    2  N3    D T1203     -28.777 -50.876  31.609  1.00 50.63    -0.041 NA
HETATM    3  C4    D T1203     -28.982 -50.837  30.295  1.00 51.82     0.751 A 
HETATM    4  N2    D T1203     -28.346 -51.702  29.500  1.00 51.52    -0.058 NA
HETATM    5  C3    D T1203     -27.502 -52.607  29.991  1.00 50.15     0.117 A 
HETATM    6  C2    D T1203     -27.263 -52.666  31.359  1.00 48.53     0.034 A 
HETATM    7  C5    D T1203     -26.291 -53.676  31.933  1.00 47.20     0.036 C 
ENDROOT
BRANCH   1   8
HETATM    8  N1    D T1203     -27.752 -51.742  33.545  1.00 50.38    -0.227 NA
BRANCH   8   9
HETATM    9  C17   D T1203     -28.643 -52.390  34.399  1.00 49.63     0.084 A 
HETATM   10  C18   D T1203     -29.736 -51.696  34.933  1.00 49.59     0.019 A 
HETATM   11  C19   D T1203     -30.624 -52.353  35.772  1.00 49.93     0.002 A 
HETATM   12  C20   D T1203     -30.386 -53.681  36.123  1.00 49.85     0.013 A 
HETATM   13  C21   D T1203     -29.287 -54.362  35.600  1.00 48.62     0.106 A 
HETATM   14  C22   D T1203     -28.409 -53.721  34.733  1.00 48.38     0.032 A 
BRANCH  13  15
HETATM   15  S1    D T1203     -28.980 -56.040  36.036  1.00 45.71     0.281 S 
HETATM   16  O2    D T1203     -28.969 -56.131  37.448  1.00 47.80    -0.199 OA
HETATM   17  O1    D T1203     -29.839 -56.816  35.212  1.00 43.73    -0.199 OA
BRANCH  15  18
HETATM   18  N7    D T1203     -27.467 -56.471  35.512  1.00 47.42    -0.189 NA
BRANCH  18  19
HETATM   19  C23   D T1203     -26.992 -57.655  34.777  1.00 49.01     0.097 C 
HETATM   20  C26   D T1203     -26.251 -57.140  33.550  1.00 50.09     0.025 C 
HETATM   21  C25   D T1203     -28.058 -58.652  34.324  1.00 49.99     0.025 C 
HETATM   22  C24   D T1203     -26.005 -58.393  35.675  1.00 48.01     0.025 C 
ENDBRANCH  18  19
ENDBRANCH  15  18
ENDBRANCH  13  15
ENDBRANCH   8   9
ENDBRANCH   1   8
BRANCH   3  23
HETATM   23  N4    D T1203     -29.877 -49.929  29.716  1.00 53.04    -0.059 NA
BRANCH  23  24
HETATM   24  C6    D T1203     -29.658 -48.570  29.377  1.00 53.71     0.100 A 
HETATM   25  C11   D T1203     -30.744 -47.842  28.879  1.00 54.72     0.021 A 
HETATM   26  C10   D T1203     -30.608 -46.501  28.545  1.00 57.14     0.018 A 
HETATM   27  C9    D T1203     -29.384 -45.841  28.743  1.00 59.50     0.056 A 
HETATM   28  C8    D T1203     -28.295 -46.566  29.263  1.00 56.16     0.018 A 
HETATM   29  C7    D T1203     -28.432 -47.912  29.580  1.00 54.07     0.021 A 
BRANCH  27  30
HETATM   30  N5    D T1203     -29.214 -44.475  28.418  1.00 63.93    -0.344 N 
HETATM   31  C15   D T1203     -30.033 -43.486  29.158  1.00 67.51     0.137 C 
HETATM   32  C14   D T1203     -29.459 -42.068  28.934  1.00 69.71     0.274 C 
HETATM   33  N6    D T1203     -29.210 -41.792  27.496  1.00 69.00     0.143 N 
HETATM   34  C16   D T1203     -28.628 -40.458  27.298  1.00 69.97     0.286 C 
HETATM   35  C13   D T1203     -28.400 -42.821  26.809  1.00 66.91     0.274 C 
HETATM   36  C12   D T1203     -29.093 -44.183  26.973  1.00 65.09     0.137 C 
ENDBRANCH  27  30
ENDBRANCH  23  24
ENDBRANCH   3  23
TORSDOF 16
ENDMDL
MODEL 2
REMARK VINA RESULT:      -7.8     14.983     18.134
REMARK  16 active torsions:
REMARK  status: ('A' for Active; 'I' for Inactive)
REMARK    1  A    between atoms: S1_2  and  N7_4 
REMARK    2  A    between atoms: S1_2  and  C21_9 
REMARK    3  A    between atoms: N7_4  and  C23_5 
REMARK    4  A    between atoms: C17_14  and  N1_15 
REMARK    5  A    between atoms: N1_15  and  C1_16 
REMARK    6  A    between atoms: C4_18  and  N4_23 
REMARK    7  A    between atoms: N4_23  and  C6_24 
REMARK    8  A    between atoms: C9_27  and  N5_30 
REMARK    9  A    between atoms: S1_38  and  N7_40 
REMARK   10  A    between atoms: S1_38  and  C21_45 
REMARK   11  A    between atoms: N7_40  and  C23_41 
REMARK   12  A    between atoms: C17_50  and  N1_51 
REMARK   13  A    between atoms: N1_51  and  C1_52 
REMARK   14  A    between atoms: C4_54  and  N4_59 
REMARK   15  A    between atoms: N4_59  and  C6_60 
REMARK   16  A    between atoms: C9_63  and  N5_66 
ROOT
HETATM    1  C1    D T1203     -20.938 -59.528  22.307  1.00 49.34     0.178 A 
HETATM    2  N3    D T1203     -20.174 -59.799  23.367  1.00 50.63    -0.041 NA
HETATM    3  C4    D T1203     -19.601 -58.841  24.091  1.00 51.82     0.751 A 
HETATM    4  N2    D T1203     -19.789 -57.561  23.763  1.00 51.52    -0.058 NA
HETATM    5  C3    D T1203     -20.538 -57.213  22.718  1.00 50.15     0.117 A 
HETATM    6  C2    D T1203     -21.143 -58.192  21.939  1.00 48.53     0.034 A 
HETATM    7  C5    D T1203     -21.982 -57.817  20.735  1.00 47.20     0.036 C 
ENDROOT
BRANCH   1   8
HETATM    8  N1    D T1203     -21.497 -60.562  21.573  1.00 50.38    -0.227 NA
BRANCH   8   9
HETATM    9  C17   D T1203     -22.484 -61.377  22.125  1.00 49.63     0.084 A 
HETATM   10  C18   D T1203     -23.813 -60.938  22.171  1.00 49.59     0.019 A 
HETATM   11  C19   D T1203     -24.790 -61.761  22.711  1.00 49.93     0.002 A 
HETATM   12  C20   D T1203     -24.429 -62.992  23.257  1.00 49.85     0.013 A 
HETATM   13  C21   D T1203     -23.101 -63.416  23.222  1.00 48.62     0.106 A 
HETATM   14  C22   D T1203     -22.119 -62.612  22.654  1.00 48.38     0.032 A 
BRANCH  13  15
HETATM   15  S1    D T1203     -22.637 -64.971  23.907  1.00 45.71     0.281 S 
HETATM   16  O2    D T1203     -21.243 -65.131  23.727  1.00 47.80    -0.199 OA
HETATM   17  O1    D T1203     -23.271 -65.037  25.176  1.00 43.73    -0.199 OA
BRANCH  15  18
HETATM   18  N7    D T1203     -23.378 -66.185  23.053  1.00 47.42    -0.189 NA
BRANCH  18  19
HETATM   19  C23   D T1203     -23.498 -67.628  23.318  1.00 49.01     0.097 C 
HETATM   20  C26   D T1203     -24.416 -67.776  24.524  1.00 50.09     0.025 C 
HETATM   21  C25   D T1203     -22.198 -68.383  23.594  1.00 49.99     0.025 C 
HETATM   22  C24   D T1203     -24.168 -68.267  22.107  1.00 48.01     0.025 C 
ENDBRANCH  18  19
ENDBRANCH  15  18
ENDBRANCH  13  15
ENDBRANCH   8   9
ENDBRANCH   1   8
BRANCH   3  23
HETATM   23  N4    D T1203     -18.825 -59.136  25.219  1.00 53.04    -0.059 NA
BRANCH  23  24
HETATM   24  C6    D T1203     -17.422 -59.326  25.297  1.00 53.71     0.100 A 
HETATM   25  C11   D T1203     -16.722 -59.494  24.097  1.00 54.72     0.021 A 
HETATM   26  C10   D T1203     -15.344 -59.666  24.095  1.00 57.14     0.018 A 
HETATM   27  C9    D T1203     -14.623 -59.631  25.300  1.00 59.50     0.056 A 
HETATM   28  C8    D T1203     -15.322 -59.443  26.507  1.00 56.16     0.018 A 
HETATM   29  C7    D T1203     -16.703 -59.288  26.505  1.00 54.07     0.021 A 
BRANCH  27  30
HETATM   30  N5    D T1203     -13.219 -59.798  25.332  1.00 63.93    -0.344 N 
HETATM   31  C15   D T1203     -12.424 -58.785  26.067  1.00 67.51     0.137 C 
HETATM   32  C14   D T1203     -10.992 -59.321  26.298  1.00 69.71     0.274 C 
HETATM   33  N6    D T1203     -10.397 -59.866  25.051  1.00 69.00     0.143 N 
HETATM   34  C16   D T1203      -9.052 -60.407  25.289  1.00 69.97     0.286 C 
HETATM   35  C13   D T1203     -11.243 -60.860  24.356  1.00 66.91     0.274 C 
HETATM   36  C12   D T1203     -12.607 -60.220  24.053  1.00 65.09     0.137 C 
ENDBRANCH  27  30
ENDBRANCH  23  24
ENDBRANCH   3  23
TORSDOF 16
ENDMDL
MODEL 3
REMARK VINA RESULT:      -7.2     12.017     17.059
REMARK  16 active torsions:
REMARK  status: ('A' for Active; 'I' for Inactive)
REMARK    1  A    between atoms: S1_2  and  N7_4 
REMARK    2  A    between atoms: S1_2  and  C21_9 
REMARK    3  A    between atoms: N7_4  and  C23_5 
REMARK    4  A    between atoms: C17_14  and  N1_15 
REMARK    5  A    between atoms: N1_15  and  C1_16 
REMARK    6  A    between atoms: C4_18  and  N4_23 
REMARK    7  A    between atoms: N4_23  and  C6_24 
REMARK    8  A    between atoms: C9_27  and  N5_30 
REMARK    9  A    between atoms: S1_38  and  N7_40 
REMARK   10  A    between atoms: S1_38  and  C21_45 
REMARK   11  A    between atoms: N7_40  and  C23_41 
REMARK   12  A    between atoms: C17_50  and  N1_51 
REMARK   13  A    between atoms: N1_51  and  C1_52 
REMARK   14  A    between atoms: C4_54  and  N4_59 
REMARK   15  A    between atoms: N4_59  and  C6_60 
REMARK   16  A    between atoms: C9_63  and  N5_66 
ROOT
HETATM    1  C1    D T1203     -20.287 -56.665  23.797  1.00 49.34     0.178 A 
HETATM    2  N3    D T1203     -21.015 -57.499  23.052  1.00 50.63    -0.041 NA
HETATM    3  C4    D T1203     -20.457 -58.406  22.254  1.00 51.82     0.751 A 
HETATM    4  N2    D T1203     -19.126 -58.500  22.188  1.00 51.52    -0.058 NA
HETATM    5  C3    D T1203     -18.335 -57.701  22.901  1.00 50.15     0.117 A 
HETATM    6  C2    D T1203     -18.890 -56.740  23.737  1.00 48.53     0.034 A 
HETATM    7  C5    D T1203     -18.007 -55.808  24.541  1.00 47.20     0.036 C 
ENDROOT
BRANCH   1   8
HETATM    8  N1    D T1203     -20.916 -55.725  24.598  1.00 50.38    -0.227 NA
BRANCH   8   9
HETATM    9  C17   D T1203     -21.492 -54.584  24.042  1.00 49.63     0.084 A 
HETATM   10  C18   D T1203     -20.682 -53.595  23.470  1.00 49.59     0.019 A 
HETATM   11  C19   D T1203     -21.265 -52.469  22.909  1.00 49.93     0.002 A 
HETATM   12  C20   D T1203     -22.648 -52.304  22.974  1.00 49.85     0.013 A 
HETATM   13  C21   D T1203     -23.447 -53.285  23.560  1.00 48.62     0.106 A 
HETATM   14  C22   D T1203     -22.875 -54.433  24.097  1.00 48.38     0.032 A 
BRANCH  13  15
HETATM   15  S1    D T1203     -25.195 -53.086  23.645  1.00 45.71     0.281 S 
HETATM   16  O2    D T1203     -25.674 -53.866  24.724  1.00 47.80    -0.199 OA
HETATM   17  O1    D T1203     -25.430 -51.689  23.529  1.00 43.73    -0.199 OA
BRANCH  15  18
HETATM   18  N7    D T1203     -25.880 -53.697  22.264  1.00 47.42    -0.189 NA
BRANCH  18  19
HETATM   19  C23   D T1203     -25.767 -55.019  21.624  1.00 49.01     0.097 C 
HETATM   20  C26   D T1203     -26.977 -55.168  20.712  1.00 50.09     0.025 C 
HETATM   21  C25   D T1203     -25.705 -56.227  22.558  1.00 49.99     0.025 C 
HETATM   22  C24   D T1203     -24.504 -55.015  20.772  1.00 48.01     0.025 C 
ENDBRANCH  18  19
ENDBRANCH  15  18
ENDBRANCH  13  15
ENDBRANCH   8   9
ENDBRANCH   1   8
BRANCH   3  23
HETATM   23  N4    D T1203     -21.229 -59.297  21.499  1.00 53.04    -0.059 NA
BRANCH  23  24
HETATM   24  C6    D T1203     -21.601 -60.628  21.816  1.00 53.71     0.100 A 
HETATM   25  C11   D T1203     -22.578 -61.237  21.019  1.00 54.72     0.021 A 
HETATM   26  C10   D T1203     -22.977 -62.545  21.258  1.00 57.14     0.018 A 
HETATM   27  C9    D T1203     -22.374 -63.294  22.281  1.00 59.50     0.056 A 
HETATM   28  C8    D T1203     -21.377 -62.692  23.071  1.00 56.16     0.018 A 
HETATM   29  C7    D T1203     -20.993 -61.377  22.838  1.00 54.07     0.021 A 
BRANCH  27  30
HETATM   30  N5    D T1203     -22.754 -64.631  22.547  1.00 63.93    -0.344 N 
HETATM   31  C15   D T1203     -23.480 -65.364  21.481  1.00 67.51     0.137 C 
HETATM   32  C14   D T1203     -23.482 -66.876  21.804  1.00 69.71     0.274 C 
HETATM   33  N6    D T1203     -23.898 -67.142  23.205  1.00 69.00     0.143 N 
HETATM   34  C16   D T1203     -23.860 -68.578  23.513  1.00 69.97     0.286 C 
HETATM   35  C13   D T1203     -23.148 -66.371  24.220  1.00 66.91     0.274 C 
HETATM   36  C12   D T1203     -23.289 -64.874  23.904  1.00 65.09     0.137 C 
ENDBRANCH  27  30
ENDBRANCH  23  24
ENDBRANCH   3  23
TORSDOF 16
ENDMDL
MODEL 4
REMARK VINA RESULT:      -7.1     15.787     19.357
REMARK  16 active torsions:
REMARK  status: ('A' for Active; 'I' for Inactive)
REMARK    1  A    between atoms: S1_2  and  N7_4 
REMARK    2  A    between atoms: S1_2  and  C21_9 
REMARK    3  A    between atoms: N7_4  and  C23_5 
REMARK    4  A    between atoms: C17_14  and  N1_15 
REMARK    5  A    between atoms: N1_15  and  C1_16 
REMARK    6  A    between atoms: C4_18  and  N4_23 
REMARK    7  A    between atoms: N4_23  and  C6_24 
REMARK    8  A    between atoms: C9_27  and  N5_30 
REMARK    9  A    between atoms: S1_38  and  N7_40 
REMARK   10  A    between atoms: S1_38  and  C21_45 
REMARK   11  A    between atoms: N7_40  and  C23_41 
REMARK   12  A    between atoms: C17_50  and  N1_51 
REMARK   13  A    between atoms: N1_51  and  C1_52 
REMARK   14  A    between atoms: C4_54  and  N4_59 
REMARK   15  A    between atoms: N4_59  and  C6_60 
REMARK   16  A    between atoms: C9_63  and  N5_66 
ROOT
HETATM    1  C1    D T1203     -19.282 -58.858  24.394  1.00 49.34     0.178 A 
HETATM    2  N3    D T1203     -18.203 -59.323  25.029  1.00 50.63    -0.041 NA
HETATM    3  C4    D T1203     -17.169 -58.543  25.332  1.00 51.82     0.751 A 
HETATM    4  N2    D T1203     -17.196 -57.250  25.001  1.00 51.52    -0.058 NA
HETATM    5  C3    D T1203     -18.237 -56.715  24.365  1.00 50.15     0.117 A 
HETATM    6  C2    D T1203     -19.329 -57.507  24.030  1.00 48.53     0.034 A 
HETATM    7  C5    D T1203     -20.514 -56.922  23.290  1.00 47.20     0.036 C 
ENDROOT
BRANCH   1   8
HETATM    8  N1    D T1203     -20.325 -59.716  24.084  1.00 50.38    -0.227 NA
BRANCH   8   9
HETATM    9  C17   D T1203     -20.215 -60.625  23.033  1.00 49.63     0.084 A 
HETATM   10  C18   D T1203     -19.253 -60.430  22.034  1.00 49.59     0.019 A 
HETATM   11  C19   D T1203     -19.143 -61.347  20.999  1.00 49.93     0.002 A 
HETATM   12  C20   D T1203     -20.030 -62.421  20.932  1.00 49.85     0.013 A 
HETATM   13  C21   D T1203     -20.996 -62.599  21.922  1.00 48.62     0.106 A 
HETATM   14  C22   D T1203     -21.094 -61.703  22.981  1.00 48.38     0.032 A 
BRANCH  13  15
HETATM   15  S1    D T1203     -22.119 -63.953  21.846  1.00 45.71     0.281 S 
HETATM   16  O2    D T1203     -23.389 -63.494  22.267  1.00 47.80    -0.199 OA
HETATM   17  O1    D T1203     -21.892 -64.572  20.587  1.00 43.73    -0.199 OA
BRANCH  15  18
HETATM   18  N7    D T1203     -21.642 -65.117  22.927  1.00 47.42    -0.189 NA
BRANCH  18  19
HETATM   19  C23   D T1203     -22.345 -66.296  23.462  1.00 49.01     0.097 C 
HETATM   20  C26   D T1203     -23.220 -65.802  24.606  1.00 50.09     0.025 C 
HETATM   21  C25   D T1203     -21.470 -67.441  23.971  1.00 49.99     0.025 C 
HETATM   22  C24   D T1203     -23.241 -66.842  22.356  1.00 48.01     0.025 C 
ENDBRANCH  18  19
ENDBRANCH  15  18
ENDBRANCH  13  15
ENDBRANCH   8   9
ENDBRANCH   1   8
BRANCH   3  23
HETATM   23  N4    D T1203     -16.055 -59.034  26.023  1.00 53.04    -0.059 NA
BRANCH  23  24
HETATM   24  C6    D T1203     -14.749 -59.278  25.528  1.00 53.71     0.100 A 
HETATM   25  C11   D T1203     -14.627 -60.063  24.376  1.00 54.72     0.021 A 
HETATM   26  C10   D T1203     -13.382 -60.328  23.823  1.00 57.14     0.018 A 
HETATM   27  C9    D T1203     -12.222 -59.775  24.390  1.00 59.50     0.056 A 
HETATM   28  C8    D T1203     -12.342 -58.968  25.538  1.00 56.16     0.018 A 
HETATM   29  C7    D T1203     -13.590 -58.720  26.096  1.00 54.07     0.021 A 
BRANCH  27  30
HETATM   30  N5    D T1203     -10.938 -60.021  23.848  1.00 63.93    -0.344 N 
HETATM   31  C15   D T1203      -9.868 -60.441  24.784  1.00 67.51     0.137 C 
HETATM   32  C14   D T1203      -8.672 -61.004  23.980  1.00 69.71     0.274 C 
HETATM   33  N6    D T1203      -8.278 -60.101  22.869  1.00 69.00     0.143 N 
HETATM   34  C16   D T1203      -7.167 -60.663  22.089  1.00 69.97     0.286 C 
HETATM   35  C13   D T1203      -9.392 -59.707  21.980  1.00 66.91     0.274 C 
HETATM   36  C12   D T1203     -10.490 -59.048  22.829  1.00 65.09     0.137 C 
ENDBRANCH  27  30
ENDBRANCH  23  24
ENDBRANCH   3  23
TORSDOF 16
ENDMDL
MODEL 5
REMARK VINA RESULT:      -7.1      6.418     11.390
REMARK  16 active torsions:
REMARK  status: ('A' for Active; 'I' for Inactive)
REMARK    1  A    between atoms: S1_2  and  N7_4 
REMARK    2  A    between atoms: S1_2  and  C21_9 
REMARK    3  A    between atoms: N7_4  and  C23_5 
REMARK    4  A    between atoms: C17_14  and  N1_15 
REMARK    5  A    between atoms: N1_15  and  C1_16 
REMARK    6  A    between atoms: C4_18  and  N4_23 
REMARK    7  A    between atoms: N4_23  and  C6_24 
REMARK    8  A    between atoms: C9_27  and  N5_30 
REMARK    9  A    between atoms: S1_38  and  N7_40 
REMARK   10  A    between atoms: S1_38  and  C21_45 
REMARK   11  A    between atoms: N7_40  and  C23_41 
REMARK   12  A    between atoms: C17_50  and  N1_51 
REMARK   13  A    between atoms: N1_51  and  C1_52 
REMARK   14  A    between atoms: C4_54  and  N4_59 
REMARK   15  A    between atoms: N4_59  and  C6_60 
REMARK   16  A    between atoms: C9_63  and  N5_66 
ROOT
HETATM    1  C1    D T1203     -28.761 -48.966  25.750  1.00 49.34     0.178 A 
HETATM    2  N3    D T1203     -28.536 -48.909  27.064  1.00 50.63    -0.041 NA
HETATM    3  C4    D T1203     -29.434 -49.325  27.955  1.00 51.82     0.751 A 
HETATM    4  N2    D T1203     -30.601 -49.821  27.536  1.00 51.52    -0.058 NA
HETATM    5  C3    D T1203     -30.896 -49.908  26.241  1.00 50.15     0.117 A 
HETATM    6  C2    D T1203     -29.981 -49.475  25.288  1.00 48.53     0.034 A 
HETATM    7  C5    D T1203     -30.307 -49.548  23.811  1.00 47.20     0.036 C 
ENDROOT
BRANCH   1   8
HETATM    8  N1    D T1203     -27.802 -48.503  24.863  1.00 50.38    -0.227 NA
BRANCH   8   9
HETATM    9  C17   D T1203     -26.562 -49.131  24.759  1.00 49.63     0.084 A 
HETATM   10  C18   D T1203     -26.482 -50.530  24.743  1.00 49.59     0.019 A 
HETATM   11  C19   D T1203     -25.245 -51.145  24.627  1.00 49.93     0.002 A 
HETATM   12  C20   D T1203     -24.089 -50.367  24.589  1.00 49.85     0.013 A 
HETATM   13  C21   D T1203     -24.175 -48.976  24.621  1.00 48.62     0.106 A 
HETATM   14  C22   D T1203     -25.413 -48.348  24.705  1.00 48.38     0.032 A 
BRANCH  13  15
HETATM   15  S1    D T1203     -22.720 -47.986  24.570  1.00 45.71     0.281 S 
HETATM   16  O2    D T1203     -21.809 -48.589  23.671  1.00 47.80    -0.199 OA
HETATM   17  O1    D T1203     -23.170 -46.645  24.441  1.00 43.73    -0.199 OA
BRANCH  15  18
HETATM   18  N7    D T1203     -22.001 -47.998  26.066  1.00 47.42    -0.189 NA
BRANCH  18  19
HETATM   19  C23   D T1203     -20.672 -47.549  26.511  1.00 49.01     0.097 C 
HETATM   20  C26   D T1203     -19.911 -48.795  26.942  1.00 50.09     0.025 C 
HETATM   21  C25   D T1203     -20.639 -46.534  27.653  1.00 49.99     0.025 C 
HETATM   22  C24   D T1203     -19.965 -46.931  25.309  1.00 48.01     0.025 C 
ENDBRANCH  18  19
ENDBRANCH  15  18
ENDBRANCH  13  15
ENDBRANCH   8   9
ENDBRANCH   1   8
BRANCH   3  23
HETATM   23  N4    D T1203     -29.177 -49.288  29.331  1.00 53.04    -0.059 NA
BRANCH  23  24
HETATM   24  C6    D T1203     -28.842 -50.362  30.193  1.00 53.71     0.100 A 
HETATM   25  C11   D T1203     -29.220 -50.258  31.537  1.00 54.72     0.021 A 
HETATM   26  C10   D T1203     -28.943 -51.280  32.435  1.00 57.14     0.018 A 
HETATM   27  C9    D T1203     -28.315 -52.458  31.998  1.00 59.50     0.056 A 
HETATM   28  C8    D T1203     -27.952 -52.574  30.643  1.00 56.16     0.018 A 
HETATM   29  C7    D T1203     -28.216 -51.541  29.752  1.00 54.07     0.021 A 
BRANCH  27  30
HETATM   30  N5    D T1203     -28.024 -53.520  32.886  1.00 63.93    -0.344 N 
HETATM   31  C15   D T1203     -27.170 -54.622  32.382  1.00 67.51     0.137 C 
HETATM   32  C14   D T1203     -26.673 -55.475  33.572  1.00 69.71     0.274 C 
HETATM   33  N6    D T1203     -27.782 -55.849  34.487  1.00 69.00     0.143 N 
HETATM   34  C16   D T1203     -27.293 -56.626  35.633  1.00 69.97     0.286 C 
HETATM   35  C13   D T1203     -28.605 -54.709  34.943  1.00 66.91     0.274 C 
HETATM   36  C12   D T1203     -29.162 -53.979  33.711  1.00 65.09     0.137 C 
ENDBRANCH  27  30
ENDBRANCH  23  24
ENDBRANCH   3  23
TORSDOF 16
ENDMDL
MODEL 6
REMARK VINA RESULT:      -7.0     17.699     23.660
REMARK  16 active torsions:
REMARK  status: ('A' for Active; 'I' for Inactive)
REMARK    1  A    between atoms: S1_2  and  N7_4 
REMARK    2  A    between atoms: S1_2  and  C21_9 
REMARK    3  A    between atoms: N7_4  and  C23_5 
REMARK    4  A    between atoms: C17_14  and  N1_15 
REMARK    5  A    between atoms: N1_15  and  C1_16 
REMARK    6  A    between atoms: C4_18  and  N4_23 
REMARK    7  A    between atoms: N4_23  and  C6_24 
REMARK    8  A    between atoms: C9_27  and  N5_30 
REMARK    9  A    between atoms: S1_38  and  N7_40 
REMARK   10  A    between atoms: S1_38  and  C21_45 
REMARK   11  A    between atoms: N7_40  and  C23_41 
REMARK   12  A    between atoms: C17_50  and  N1_51 
REMARK   13  A    between atoms: N1_51  and  C1_52 
REMARK   14  A    between atoms: C4_54  and  N4_59 
REMARK   15  A    between atoms: N4_59  and  C6_60 
REMARK   16  A    between atoms: C9_63  and  N5_66 
ROOT
HETATM    1  C1    D T1203     -12.433 -31.732  29.943  1.00 49.34     0.178 A 
HETATM    2  N3    D T1203     -13.378 -32.064  29.061  1.00 50.63    -0.041 NA
HETATM    3  C4    D T1203     -14.342 -31.220  28.703  1.00 51.82     0.751 A 
HETATM    4  N2    D T1203     -14.378 -29.994  29.232  1.00 51.52    -0.058 NA
HETATM    5  C3    D T1203     -13.469 -29.592  30.119  1.00 50.15     0.117 A 
HETATM    6  C2    D T1203     -12.456 -30.455  30.516  1.00 48.53     0.034 A 
HETATM    7  C5    D T1203     -11.425 -30.022  31.539  1.00 47.20     0.036 C 
ENDROOT
BRANCH   1   8
HETATM    8  N1    D T1203     -11.462 -32.655  30.298  1.00 50.38    -0.227 NA
BRANCH   8   9
HETATM    9  C17   D T1203     -10.634 -33.226  29.333  1.00 49.63     0.084 A 
HETATM   10  C18   D T1203      -9.581 -32.485  28.782  1.00 49.59     0.019 A 
HETATM   11  C19   D T1203      -8.755 -33.067  27.832  1.00 49.93     0.002 A 
HETATM   12  C20   D T1203      -9.018 -34.363  27.391  1.00 49.85     0.013 A 
HETATM   13  C21   D T1203     -10.078 -35.090  27.932  1.00 48.62     0.106 A 
HETATM   14  C22   D T1203     -10.893 -34.527  28.908  1.00 48.38     0.032 A 
BRANCH  13  15
HETATM   15  S1    D T1203     -10.416 -36.728  27.382  1.00 45.71     0.281 S 
HETATM   16  O2    D T1203      -9.236 -37.248  26.802  1.00 47.80    -0.199 OA
HETATM   17  O1    D T1203     -11.103 -37.361  28.453  1.00 43.73    -0.199 OA
BRANCH  15  18
HETATM   18  N7    D T1203     -11.561 -36.673  26.183  1.00 47.42    -0.189 NA
BRANCH  18  19
HETATM   19  C23   D T1203     -11.671 -35.833  24.979  1.00 49.01     0.097 C 
HETATM   20  C26   D T1203     -12.610 -36.557  24.024  1.00 50.09     0.025 C 
HETATM   21  C25   D T1203     -10.369 -35.518  24.244  1.00 49.99     0.025 C 
HETATM   22  C24   D T1203     -12.311 -34.512  25.393  1.00 48.01     0.025 C 
ENDBRANCH  18  19
ENDBRANCH  15  18
ENDBRANCH  13  15
ENDBRANCH   8   9
ENDBRANCH   1   8
BRANCH   3  23
HETATM   23  N4    D T1203     -15.312 -31.568  27.755  1.00 53.04    -0.059 NA
BRANCH  23  24
HETATM   24  C6    D T1203     -16.455 -32.388  27.926  1.00 53.71     0.100 A 
HETATM   25  C11   D T1203     -17.119 -32.826  26.774  1.00 54.72     0.021 A 
HETATM   26  C10   D T1203     -18.234 -33.648  26.864  1.00 57.14     0.018 A 
HETATM   27  C9    D T1203     -18.691 -34.089  28.117  1.00 59.50     0.056 A 
HETATM   28  C8    D T1203     -18.014 -33.667  29.277  1.00 56.16     0.018 A 
HETATM   29  C7    D T1203     -16.908 -32.831  29.182  1.00 54.07     0.021 A 
BRANCH  27  30
HETATM   30  N5    D T1203     -19.821 -34.931  28.243  1.00 63.93    -0.344 N 
HETATM   31  C15   D T1203     -20.934 -34.734  27.283  1.00 67.51     0.137 C 
HETATM   32  C14   D T1203     -21.886 -35.951  27.341  1.00 69.71     0.274 C 
HETATM   33  N6    D T1203     -22.256 -36.299  28.737  1.00 69.00     0.143 N 
HETATM   34  C16   D T1203     -23.129 -37.480  28.783  1.00 69.97     0.286 C 
HETATM   35  C13   D T1203     -21.104 -36.468  29.648  1.00 66.91     0.274 C 
HETATM   36  C12   D T1203     -20.269 -35.178  29.630  1.00 65.09     0.137 C 
ENDBRANCH  27  30
ENDBRANCH  23  24
ENDBRANCH   3  23
TORSDOF 16
ENDMDL
MODEL 7
REMARK VINA RESULT:      -7.0     33.656     35.554
REMARK  16 active torsions:
REMARK  status: ('A' for Active; 'I' for Inactive)
REMARK    1  A    between atoms: S1_2  and  N7_4 
REMARK    2  A    between atoms: S1_2  and  C21_9 
REMARK    3  A    between atoms: N7_4  and  C23_5 
REMARK    4  A    between atoms: C17_14  and  N1_15 
REMARK    5  A    between atoms: N1_15  and  C1_16 
REMARK    6  A    between atoms: C4_18  and  N4_23 
REMARK    7  A    between atoms: N4_23  and  C6_24 
REMARK    8  A    between atoms: C9_27  and  N5_30 
REMARK    9  A    between atoms: S1_38  and  N7_40 
REMARK   10  A    between atoms: S1_38  and  C21_45 
REMARK   11  A    between atoms: N7_40  and  C23_41 
REMARK   12  A    between atoms: C17_50  and  N1_51 
REMARK   13  A    between atoms: N1_51  and  C1_52 
REMARK   14  A    between atoms: C4_54  and  N4_59 
REMARK   15  A    between atoms: N4_59  and  C6_60 
REMARK   16  A    between atoms: C9_63  and  N5_66 
ROOT
HETATM    1  C1    D T1203       4.957 -35.724  34.001  1.00 49.34     0.178 A 
HETATM    2  N3    D T1203       4.120 -36.606  33.449  1.00 50.63    -0.041 NA
HETATM    3  C4    D T1203       4.304 -37.083  32.221  1.00 51.82     0.751 A 
HETATM    4  N2    D T1203       5.356 -36.681  31.505  1.00 51.52    -0.058 NA
HETATM    5  C3    D T1203       6.233 -35.803  31.988  1.00 50.15     0.117 A 
HETATM    6  C2    D T1203       6.062 -35.282  33.265  1.00 48.53     0.034 A 
HETATM    7  C5    D T1203       7.038 -34.267  33.825  1.00 47.20     0.036 C 
ENDROOT
BRANCH   1   8
HETATM    8  N1    D T1203       4.711 -35.241  35.277  1.00 50.38    -0.227 NA
BRANCH   8   9
HETATM    9  C17   D T1203       3.884 -35.937  36.157  1.00 49.63     0.084 A 
HETATM   10  C18   D T1203       2.710 -35.343  36.637  1.00 49.59     0.019 A 
HETATM   11  C19   D T1203       1.888 -36.048  37.502  1.00 49.93     0.002 A 
HETATM   12  C20   D T1203       2.268 -37.318  37.934  1.00 49.85     0.013 A 
HETATM   13  C21   D T1203       3.447 -37.897  37.464  1.00 48.62     0.106 A 
HETATM   14  C22   D T1203       4.262 -37.211  36.571  1.00 48.38     0.032 A 
BRANCH  13  15
HETATM   15  S1    D T1203       3.934 -39.501  38.003  1.00 45.71     0.281 S 
HETATM   16  O2    D T1203       5.347 -39.538  38.050  1.00 47.80    -0.199 OA
HETATM   17  O1    D T1203       3.109 -39.800  39.120  1.00 43.73    -0.199 OA
BRANCH  15  18
HETATM   18  N7    D T1203       3.458 -40.621  36.875  1.00 47.42    -0.189 NA
BRANCH  18  19
HETATM   19  C23   D T1203       4.193 -41.268  35.775  1.00 49.01     0.097 C 
HETATM   20  C26   D T1203       4.972 -40.169  35.065  1.00 50.09     0.025 C 
HETATM   21  C25   D T1203       3.354 -42.021  34.742  1.00 49.99     0.025 C 
HETATM   22  C24   D T1203       5.179 -42.252  36.392  1.00 48.01     0.025 C 
ENDBRANCH  18  19
ENDBRANCH  15  18
ENDBRANCH  13  15
ENDBRANCH   8   9
ENDBRANCH   1   8
BRANCH   3  23
HETATM   23  N4    D T1203       3.436 -38.030  31.662  1.00 53.04    -0.059 NA
BRANCH  23  24
HETATM   24  C6    D T1203       3.642 -39.422  31.495  1.00 53.71     0.100 A 
HETATM   25  C11   D T1203       2.537 -40.206  31.145  1.00 54.72     0.021 A 
HETATM   26  C10   D T1203       2.667 -41.573  30.945  1.00 57.14     0.018 A 
HETATM   27  C9    D T1203       3.926 -42.188  31.049  1.00 59.50     0.056 A 
HETATM   28  C8    D T1203       5.044 -41.400  31.381  1.00 56.16     0.018 A 
HETATM   29  C7    D T1203       4.904 -40.034  31.596  1.00 54.07     0.021 A 
BRANCH  27  30
HETATM   30  N5    D T1203       4.094 -43.578  30.846  1.00 63.93    -0.344 N 
HETATM   31  C15   D T1203       4.469 -44.033  29.486  1.00 67.51     0.137 C 
HETATM   32  C14   D T1203       4.955 -45.499  29.548  1.00 69.71     0.274 C 
HETATM   33  N6    D T1203       4.016 -46.362  30.309  1.00 69.00     0.143 N 
HETATM   34  C16   D T1203       4.506 -47.744  30.395  1.00 69.97     0.286 C 
HETATM   35  C13   D T1203       3.669 -45.848  31.652  1.00 66.91     0.274 C 
HETATM   36  C12   D T1203       3.083 -44.435  31.502  1.00 65.09     0.137 C 
ENDBRANCH  27  30
ENDBRANCH  23  24
ENDBRANCH   3  23
TORSDOF 16
ENDMDL
MODEL 8
REMARK VINA RESULT:      -6.9     14.920     18.509
REMARK  16 active torsions:
REMARK  status: ('A' for Active; 'I' for Inactive)
REMARK    1  A    between atoms: S1_2  and  N7_4 
REMARK    2  A    between atoms: S1_2  and  C21_9 
REMARK    3  A    between atoms: N7_4  and  C23_5 
REMARK    4  A    between atoms: C17_14  and  N1_15 
REMARK    5  A    between atoms: N1_15  and  C1_16 
REMARK    6  A    between atoms: C4_18  and  N4_23 
REMARK    7  A    between atoms: N4_23  and  C6_24 
REMARK    8  A    between atoms: C9_27  and  N5_30 
REMARK    9  A    between atoms: S1_38  and  N7_40 
REMARK   10  A    between atoms: S1_38  and  C21_45 
REMARK   11  A    between atoms: N7_40  and  C23_41 
REMARK   12  A    between atoms: C17_50  and  N1_51 
REMARK   13  A    between atoms: N1_51  and  C1_52 
REMARK   14  A    between atoms: C4_54  and  N4_59 
REMARK   15  A    between atoms: N4_59  and  C6_60 
REMARK   16  A    between atoms: C9_63  and  N5_66 
ROOT
HETATM    1  C1    D T1203     -21.015 -58.365  22.568  1.00 49.34     0.178 A 
HETATM    2  N3    D T1203     -20.234 -58.993  23.450  1.00 50.63    -0.041 NA
HETATM    3  C4    D T1203     -19.279 -58.361  24.126  1.00 51.82     0.751 A 
HETATM    4  N2    D T1203     -19.084 -57.054  23.931  1.00 51.52    -0.058 NA
HETATM    5  C3    D T1203     -19.823 -56.361  23.066  1.00 50.15     0.117 A 
HETATM    6  C2    D T1203     -20.823 -56.997  22.341  1.00 48.53     0.034 A 
HETATM    7  C5    D T1203     -21.661 -56.230  21.338  1.00 47.20     0.036 C 
ENDROOT
BRANCH   1   8
HETATM    8  N1    D T1203     -21.984 -59.073  21.874  1.00 50.38    -0.227 NA
BRANCH   8   9
HETATM    9  C17   D T1203     -21.684 -60.294  21.273  1.00 49.63     0.084 A 
HETATM   10  C18   D T1203     -20.472 -60.463  20.591  1.00 49.59     0.019 A 
HETATM   11  C19   D T1203     -20.177 -61.685  20.007  1.00 49.93     0.002 A 
HETATM   12  C20   D T1203     -21.116 -62.715  20.052  1.00 49.85     0.013 A 
HETATM   13  C21   D T1203     -22.327 -62.535  20.719  1.00 48.62     0.106 A 
HETATM   14  C22   D T1203     -22.619 -61.323  21.335  1.00 48.38     0.032 A 
BRANCH  13  15
HETATM   15  S1    D T1203     -23.518 -63.831  20.782  1.00 45.71     0.281 S 
HETATM   16  O2    D T1203     -24.782 -63.253  21.048  1.00 47.80    -0.199 OA
HETATM   17  O1    D T1203     -23.258 -64.648  19.650  1.00 43.73    -0.199 OA
BRANCH  15  18
HETATM   18  N7    D T1203     -23.165 -64.832  22.056  1.00 47.42    -0.189 NA
BRANCH  18  19
HETATM   19  C23   D T1203     -22.925 -64.547  23.481  1.00 49.01     0.097 C 
HETATM   20  C26   D T1203     -21.507 -63.999  23.584  1.00 50.09     0.025 C 
HETATM   21  C25   D T1203     -23.069 -65.722  24.447  1.00 49.99     0.025 C 
HETATM   22  C24   D T1203     -23.905 -63.460  23.908  1.00 48.01     0.025 C 
ENDBRANCH  18  19
ENDBRANCH  15  18
ENDBRANCH  13  15
ENDBRANCH   8   9
ENDBRANCH   1   8
BRANCH   3  23
HETATM   23  N4    D T1203     -18.485 -59.022  25.070  1.00 53.04    -0.059 NA
BRANCH  23  24
HETATM   24  C6    D T1203     -17.083 -59.233  25.049  1.00 53.71     0.100 A 
HETATM   25  C11   D T1203     -16.389 -59.111  26.258  1.00 54.72     0.021 A 
HETATM   26  C10   D T1203     -15.018 -59.323  26.317  1.00 57.14     0.018 A 
HETATM   27  C9    D T1203     -14.310 -59.706  25.166  1.00 59.50     0.056 A 
HETATM   28  C8    D T1203     -15.007 -59.850  23.952  1.00 56.16     0.018 A 
HETATM   29  C7    D T1203     -16.377 -59.620  23.896  1.00 54.07     0.021 A 
BRANCH  27  30
HETATM   30  N5    D T1203     -12.914 -59.935  25.193  1.00 63.93    -0.344 N 
HETATM   31  C15   D T1203     -12.068 -58.938  25.892  1.00 67.51     0.137 C 
HETATM   32  C14   D T1203     -10.660 -59.531  26.129  1.00 69.71     0.274 C 
HETATM   33  N6    D T1203     -10.101 -60.139  24.895  1.00 69.00     0.143 N 
HETATM   34  C16   D T1203      -8.780 -60.733  25.140  1.00 69.97     0.286 C 
HETATM   35  C13   D T1203     -10.996 -61.114  24.236  1.00 66.91     0.274 C 
HETATM   36  C12   D T1203     -12.333 -60.422  23.924  1.00 65.09     0.137 C 
ENDBRANCH  27  30
ENDBRANCH  23  24
ENDBRANCH   3  23
TORSDOF 16
ENDMDL
MODEL 9
REMARK VINA RESULT:      -6.9     12.328     14.391
REMARK  16 active torsions:
REMARK  status: ('A' for Active; 'I' for Inactive)
REMARK    1  A    between atoms: S1_2  and  N7_4 
REMARK    2  A    between atoms: S1_2  and  C21_9 
REMARK    3  A    between atoms: N7_4  and  C23_5 
REMARK    4  A    between atoms: C17_14  and  N1_15 
REMARK    5  A    between atoms: N1_15  and  C1_16 
REMARK    6  A    between atoms: C4_18  and  N4_23 
REMARK    7  A    between atoms: N4_23  and  C6_24 
REMARK    8  A    between atoms: C9_27  and  N5_30 
REMARK    9  A    between atoms: S1_38  and  N7_40 
REMARK   10  A    between atoms: S1_38  and  C21_45 
REMARK   11  A    between atoms: N7_40  and  C23_41 
REMARK   12  A    between atoms: C17_50  and  N1_51 
REMARK   13  A    between atoms: N1_51  and  C1_52 
REMARK   14  A    between atoms: C4_54  and  N4_59 
REMARK   15  A    between atoms: N4_59  and  C6_60 
REMARK   16  A    between atoms: C9_63  and  N5_66 
ROOT
HETATM    1  C1    D T1203     -20.606 -59.809  21.810  1.00 49.34     0.178 A 
HETATM    2  N3    D T1203     -20.473 -58.976  22.845  1.00 50.63    -0.041 NA
HETATM    3  C4    D T1203     -20.619 -57.660  22.719  1.00 51.82     0.751 A 
HETATM    4  N2    D T1203     -20.913 -57.138  21.525  1.00 51.52    -0.058 NA
HETATM    5  C3    D T1203     -21.061 -57.906  20.447  1.00 50.15     0.117 A 
HETATM    6  C2    D T1203     -20.907 -59.283  20.548  1.00 48.53     0.034 A 
HETATM    7  C5    D T1203     -21.051 -60.171  19.329  1.00 47.20     0.036 C 
ENDROOT
BRANCH   1   8
HETATM    8  N1    D T1203     -20.425 -61.170  21.990  1.00 50.38    -0.227 NA
BRANCH   8   9
HETATM    9  C17   D T1203     -21.501 -62.000  22.300  1.00 49.63     0.084 A 
HETATM   10  C18   D T1203     -22.688 -61.453  22.804  1.00 49.59     0.019 A 
HETATM   11  C19   D T1203     -23.757 -62.285  23.098  1.00 49.93     0.002 A 
HETATM   12  C20   D T1203     -23.620 -63.664  22.945  1.00 49.85     0.013 A 
HETATM   13  C21   D T1203     -22.430 -64.204  22.457  1.00 48.62     0.106 A 
HETATM   14  C22   D T1203     -21.362 -63.375  22.130  1.00 48.38     0.032 A 
BRANCH  13  15
HETATM   15  S1    D T1203     -22.248 -65.944  22.259  1.00 45.71     0.281 S 
HETATM   16  O2    D T1203     -22.851 -66.311  21.033  1.00 47.80    -0.199 OA
HETATM   17  O1    D T1203     -20.894 -66.229  22.578  1.00 43.73    -0.199 OA
BRANCH  15  18
HETATM   18  N7    D T1203     -23.087 -66.718  23.462  1.00 47.42    -0.189 NA
BRANCH  18  19
HETATM   19  C23   D T1203     -23.499 -68.124  23.612  1.00 49.01     0.097 C 
HETATM   20  C26   D T1203     -22.222 -68.953  23.643  1.00 50.09     0.025 C 
HETATM   21  C25   D T1203     -24.423 -68.685  22.531  1.00 49.99     0.025 C 
HETATM   22  C24   D T1203     -24.208 -68.259  24.955  1.00 48.01     0.025 C 
ENDBRANCH  18  19
ENDBRANCH  15  18
ENDBRANCH  13  15
ENDBRANCH   8   9
ENDBRANCH   1   8
BRANCH   3  23
HETATM   23  N4    D T1203     -20.506 -56.797  23.816  1.00 53.04    -0.059 NA
BRANCH  23  24
HETATM   24  C6    D T1203     -21.086 -55.516  23.993  1.00 53.71     0.100 A 
HETATM   25  C11   D T1203     -20.234 -54.406  23.953  1.00 54.72     0.021 A 
HETATM   26  C10   D T1203     -20.734 -53.119  24.099  1.00 57.14     0.018 A 
HETATM   27  C9    D T1203     -22.115 -52.908  24.247  1.00 59.50     0.056 A 
HETATM   28  C8    D T1203     -22.977 -54.020  24.267  1.00 56.16     0.018 A 
HETATM   29  C7    D T1203     -22.469 -55.307  24.137  1.00 54.07     0.021 A 
BRANCH  27  30
HETATM   30  N5    D T1203     -22.657 -51.609  24.392  1.00 63.93    -0.344 N 
HETATM   31  C15   D T1203     -22.006 -50.698  25.364  1.00 67.51     0.137 C 
HETATM   32  C14   D T1203     -22.493 -49.251  25.120  1.00 69.71     0.274 C 
HETATM   33  N6    D T1203     -23.972 -49.174  25.015  1.00 69.00     0.143 N 
HETATM   34  C16   D T1203     -24.421 -47.802  24.745  1.00 69.97     0.286 C 
HETATM   35  C13   D T1203     -24.563 -50.117  24.041  1.00 66.91     0.274 C 
HETATM   36  C12   D T1203     -24.135 -51.545  24.414  1.00 65.09     0.137 C 
ENDBRANCH  27  30
ENDBRANCH  23  24
ENDBRANCH   3  23
TORSDOF 16
ENDMDL
