MODEL 1
REMARK VINA RESULT:    -8.048      0.000      0.000
REMARK INTER + INTRA:          -9.132
REMARK INTER:                  -8.989
REMARK INTRA:                  -0.143
REMARK UNBOUND:                -0.143
REMARK  2 active torsions:
REMARK  status: ('A' for Active; 'I' for Inactive)
REMARK    1  A    between atoms: C5_4  and  O7_13 
REMARK    2  A    between atoms: C8_10  and  O7_13 
ROOT
HETATM    1  O7    D T 301      18.353  -0.548   7.634  1.00 42.88    -0.304 OA
ENDROOT
BRANCH   1   2
HETATM    2  C5    D T 301      19.487   0.139   7.249  1.00 35.33     0.125 A 
HETATM    3  C6    D T 301      19.377   1.326   6.532  1.00 34.79     0.154 A 
HETATM    4  C1    D T 301      20.507   2.052   6.193  1.00 38.97     0.041 A 
HETATM    5  O17   D T 301      18.145   1.788   6.139  1.00 40.19    -0.188 OA
HETATM    6  C2    D T 301      21.754   1.603   6.580  1.00 40.76     0.060 A 
HETATM    7  C3    D T 301      21.873   0.426   7.307  1.00 43.24     0.014 A 
HETATM    8 CL14   D T 301      23.152   2.521   6.146  1.00 30.13    -0.082 Cl
HETATM    9  C4    D T 301      20.741  -0.303   7.648  1.00 37.13     0.028 A 
ENDBRANCH   1   2
BRANCH   1  10
HETATM   10  C8    D T 301      18.380  -1.925   7.526  1.00 30.60     0.111 A 
HETATM   11  C9    D T 301      18.411  -2.490   6.253  1.00 36.16     0.081 A 
HETATM   12  C10   D T 301      18.441  -3.859   6.081  1.00 47.83     0.025 A 
HETATM   13 CL16   D T 301      18.396  -1.513   4.834  1.00122.68    -0.080 Cl
HETATM   14  C11   D T 301      18.439  -4.681   7.188  1.00 42.00     0.059 A 
HETATM   15  C12   D T 301      18.408  -4.135   8.463  1.00 38.61     0.013 A 
HETATM   16 CL15   D T 301      18.472  -6.392   6.964  1.00 82.82    -0.082 Cl
HETATM   17  C13   D T 301      18.378  -2.755   8.640  1.00 37.01     0.026 A 
ENDBRANCH   1  10
TORSDOF 2
ENDMDL
MODEL 2
REMARK VINA RESULT:    -7.915      3.518      3.968
REMARK INTER + INTRA:          -8.984
REMARK INTER:                  -8.519
REMARK INTRA:                  -0.464
REMARK UNBOUND:                -0.143
REMARK  2 active torsions:
REMARK  status: ('A' for Active; 'I' for Inactive)
REMARK    1  A    between atoms: C5_4  and  O7_13 
REMARK    2  A    between atoms: C8_10  and  O7_13 
ROOT
HETATM    1  O7    D T 301      20.016  -1.075   8.507  1.00 42.88    -0.304 OA
ENDROOT
BRANCH   1   2
HETATM    2  C5    D T 301      20.031  -0.792   9.860  1.00 35.33     0.125 A 
HETATM    3  C6    D T 301      19.285   0.269  10.360  1.00 34.79     0.154 A 
HETATM    4  C1    D T 301      19.248   0.524  11.722  1.00 38.97     0.041 A 
HETATM    5  O17   D T 301      18.585   1.089   9.510  1.00 40.19    -0.188 OA
HETATM    6  C2    D T 301      19.946  -0.289  12.593  1.00 40.76     0.060 A 
HETATM    7  C3    D T 301      20.683  -1.359  12.102  1.00 43.24     0.014 A 
HETATM    8 CL14   D T 301      19.889   0.045  14.287  1.00 30.13    -0.082 Cl
HETATM    9  C4    D T 301      20.721  -1.616  10.738  1.00 37.13     0.028 A 
ENDBRANCH   1   2
BRANCH   1  10
HETATM   10  C8    D T 301      19.553  -2.320   8.128  1.00 30.60     0.111 A 
HETATM   11  C9    D T 301      20.371  -3.118   7.332  1.00 36.16     0.081 A 
HETATM   12  C10   D T 301      19.964  -4.371   6.922  1.00 47.83     0.025 A 
HETATM   13 CL16   D T 301      21.921  -2.577   6.807  1.00122.68    -0.080 Cl
HETATM   14  C11   D T 301      18.726  -4.840   7.306  1.00 42.00     0.059 A 
HETATM   15  C12   D T 301      17.897  -4.057   8.097  1.00 38.61     0.013 A 
HETATM   16 CL15   D T 301      18.222  -6.406   6.784  1.00 82.82    -0.082 Cl
HETATM   17  C13   D T 301      18.305  -2.794   8.513  1.00 37.01     0.026 A 
ENDBRANCH   1  10
TORSDOF 2
ENDMDL
MODEL 3
REMARK VINA RESULT:    -7.879      1.263      5.625
REMARK INTER + INTRA:          -8.943
REMARK INTER:                  -8.713
REMARK INTRA:                  -0.230
REMARK UNBOUND:                -0.143
REMARK  2 active torsions:
REMARK  status: ('A' for Active; 'I' for Inactive)
REMARK    1  A    between atoms: C5_4  and  O7_13 
REMARK    2  A    between atoms: C8_10  and  O7_13 
ROOT
HETATM    1  O7    D T 301      18.619  -0.589   7.376  1.00 42.88    -0.304 OA
ENDROOT
BRANCH   1   2
HETATM    2  C5    D T 301      18.472  -1.960   7.280  1.00 35.33     0.125 A 
HETATM    3  C6    D T 301      18.696  -2.605   6.069  1.00 34.79     0.154 A 
HETATM    4  C1    D T 301      18.609  -3.985   5.979  1.00 38.97     0.041 A 
HETATM    5  O17   D T 301      18.993  -1.881   4.941  1.00 40.19    -0.188 OA
HETATM    6  C2    D T 301      18.312  -4.730   7.102  1.00 40.76     0.060 A 
HETATM    7  C3    D T 301      18.099  -4.095   8.319  1.00 43.24     0.014 A 
HETATM    8 CL14   D T 301      18.206  -6.449   6.970  1.00 30.13    -0.082 Cl
HETATM    9  C4    D T 301      18.187  -2.712   8.411  1.00 37.13     0.028 A 
ENDBRANCH   1   2
BRANCH   1  10
HETATM   10  C8    D T 301      19.907  -0.094   7.435  1.00 30.60     0.111 A 
HETATM   11  C9    D T 301      20.287   0.876   6.510  1.00 36.16     0.081 A 
HETATM   12  C10   D T 301      21.560   1.410   6.520  1.00 47.83     0.025 A 
HETATM   13 CL16   D T 301      19.199   1.444   5.301  1.00122.68    -0.080 Cl
HETATM   14  C11   D T 301      22.470   0.975   7.460  1.00 42.00     0.059 A 
HETATM   15  C12   D T 301      22.107   0.008   8.388  1.00 38.61     0.013 A 
HETATM   16 CL15   D T 301      24.061   1.643   7.462  1.00 82.82    -0.082 Cl
HETATM   17  C13   D T 301      20.825  -0.531   8.381  1.00 37.01     0.026 A 
ENDBRANCH   1  10
TORSDOF 2
ENDMDL
MODEL 4
REMARK VINA RESULT:    -7.861      3.755      6.032
REMARK INTER + INTRA:          -8.923
REMARK INTER:                  -8.450
REMARK INTRA:                  -0.473
REMARK UNBOUND:                -0.143
REMARK  2 active torsions:
REMARK  status: ('A' for Active; 'I' for Inactive)
REMARK    1  A    between atoms: C5_4  and  O7_13 
REMARK    2  A    between atoms: C8_10  and  O7_13 
ROOT
HETATM    1  O7    D T 301      20.100  -1.065   8.620  1.00 42.88    -0.304 OA
ENDROOT
BRANCH   1   2
HETATM    2  C5    D T 301      19.639  -2.283   8.159  1.00 35.33     0.125 A 
HETATM    3  C6    D T 301      20.487  -3.131   7.456  1.00 34.79     0.154 A 
HETATM    4  C1    D T 301      20.051  -4.379   7.042  1.00 38.97     0.041 A 
HETATM    5  O17   D T 301      21.767  -2.737   7.150  1.00 40.19    -0.188 OA
HETATM    6  C2    D T 301      18.768  -4.793   7.340  1.00 40.76     0.060 A 
HETATM    7  C3    D T 301      17.918  -3.957   8.053  1.00 43.24     0.014 A 
HETATM    8 CL14   D T 301      18.241  -6.352   6.814  1.00 30.13    -0.082 Cl
HETATM    9  C4    D T 301      18.354  -2.706   8.470  1.00 37.13     0.028 A 
ENDBRANCH   1   2
BRANCH   1  10
HETATM   10  C8    D T 301      20.095  -0.863   9.986  1.00 30.60     0.111 A 
HETATM   11  C9    D T 301      19.434   0.255  10.489  1.00 36.16     0.081 A 
HETATM   12  C10   D T 301      19.393   0.509  11.845  1.00 47.83     0.025 A 
HETATM   13 CL16   D T 301      18.650   1.383   9.448  1.00122.68    -0.080 Cl
HETATM   14  C11   D T 301      20.019  -0.357  12.716  1.00 42.00     0.059 A 
HETATM   15  C12   D T 301      20.683  -1.475  12.231  1.00 38.61     0.013 A 
HETATM   16 CL15   D T 301      19.968  -0.030  14.410  1.00 82.82    -0.082 Cl
HETATM   17  C13   D T 301      20.725  -1.735  10.865  1.00 37.01     0.026 A 
ENDBRANCH   1  10
TORSDOF 2
ENDMDL
MODEL 5
REMARK VINA RESULT:    -7.635      9.331     11.739
REMARK INTER + INTRA:          -8.671
REMARK INTER:                  -8.222
REMARK INTRA:                  -0.449
REMARK UNBOUND:                -0.143
REMARK  2 active torsions:
REMARK  status: ('A' for Active; 'I' for Inactive)
REMARK    1  A    between atoms: C5_4  and  O7_13 
REMARK    2  A    between atoms: C8_10  and  O7_13 
ROOT
HETATM    1  O7    D T 301      26.690   7.135  12.044  1.00 42.88    -0.304 OA
ENDROOT
BRANCH   1   2
HETATM    2  C5    D T 301      25.795   7.522  13.023  1.00 35.33     0.125 A 
HETATM    3  C6    D T 301      25.173   8.763  12.951  1.00 34.79     0.154 A 
HETATM    4  C1    D T 301      24.230   9.134  13.896  1.00 38.97     0.041 A 
HETATM    5  O17   D T 301      25.494   9.644  11.948  1.00 40.19    -0.188 OA
HETATM    6  C2    D T 301      23.894   8.261  14.912  1.00 40.76     0.060 A 
HETATM    7  C3    D T 301      24.501   7.015  14.984  1.00 43.24     0.014 A 
HETATM    8 CL14   D T 301      22.718   8.743  16.082  1.00 30.13    -0.082 Cl
HETATM    9  C4    D T 301      25.446   6.641  14.037  1.00 37.13     0.028 A 
ENDBRANCH   1   2
BRANCH   1  10
HETATM   10  C8    D T 301      26.468   5.918  11.430  1.00 30.60     0.111 A 
HETATM   11  C9    D T 301      27.413   4.908  11.598  1.00 36.16     0.081 A 
HETATM   12  C10   D T 301      27.246   3.671  11.010  1.00 47.83     0.025 A 
HETATM   13 CL16   D T 301      28.841   5.156  12.529  1.00122.68    -0.080 Cl
HETATM   14  C11   D T 301      26.125   3.431  10.243  1.00 42.00     0.059 A 
HETATM   15  C12   D T 301      25.175   4.426  10.065  1.00 38.61     0.013 A 
HETATM   16 CL15   D T 301      25.926   1.882   9.507  1.00 82.82    -0.082 Cl
HETATM   17  C13   D T 301      25.340   5.674  10.657  1.00 37.01     0.026 A 
ENDBRANCH   1  10
TORSDOF 2
ENDMDL
MODEL 6
REMARK VINA RESULT:    -7.634      4.034      6.189
REMARK INTER + INTRA:          -8.670
REMARK INTER:                  -8.487
REMARK INTRA:                  -0.182
REMARK UNBOUND:                -0.143
REMARK  2 active torsions:
REMARK  status: ('A' for Active; 'I' for Inactive)
REMARK    1  A    between atoms: C5_4  and  O7_13 
REMARK    2  A    between atoms: C8_10  and  O7_13 
ROOT
HETATM    1  O7    D T 301      19.917  -0.493   9.600  1.00 42.88    -0.304 OA
ENDROOT
BRANCH   1   2
HETATM    2  C5    D T 301      19.534  -1.703   9.053  1.00 35.33     0.125 A 
HETATM    3  C6    D T 301      18.396  -1.783   8.260  1.00 34.79     0.154 A 
HETATM    4  C1    D T 301      18.038  -2.980   7.660  1.00 38.97     0.041 A 
HETATM    5  O17   D T 301      17.601  -0.679   8.071  1.00 40.19    -0.188 OA
HETATM    6  C2    D T 301      18.824  -4.100   7.839  1.00 40.76     0.060 A 
HETATM    7  C3    D T 301      19.971  -4.026   8.619  1.00 43.24     0.014 A 
HETATM    8 CL14   D T 301      18.361  -5.584   7.085  1.00 30.13    -0.082 Cl
HETATM    9  C4    D T 301      20.331  -2.827   9.220  1.00 37.13     0.028 A 
ENDBRANCH   1   2
BRANCH   1  10
HETATM   10  C8    D T 301      19.786  -0.347  10.967  1.00 30.60     0.111 A 
HETATM   11  C9    D T 301      20.434   0.720  11.585  1.00 36.16     0.081 A 
HETATM   12  C10   D T 301      20.339   0.919  12.947  1.00 47.83     0.025 A 
HETATM   13 CL16   D T 301      21.397   1.831  10.688  1.00122.68    -0.080 Cl
HETATM   14  C11   D T 301      19.591   0.046  13.709  1.00 42.00     0.059 A 
HETATM   15  C12   D T 301      18.940  -1.022  13.109  1.00 38.61     0.013 A 
HETATM   16 CL15   D T 301      19.481   0.299  15.413  1.00 82.82    -0.082 Cl
HETATM   17  C13   D T 301      19.033  -1.225  11.735  1.00 37.01     0.026 A 
ENDBRANCH   1  10
TORSDOF 2
ENDMDL
MODEL 7
REMARK VINA RESULT:    -7.475      2.391      2.748
REMARK INTER + INTRA:          -8.492
REMARK INTER:                  -8.067
REMARK INTRA:                  -0.425
REMARK UNBOUND:                -0.143
REMARK  2 active torsions:
REMARK  status: ('A' for Active; 'I' for Inactive)
REMARK    1  A    between atoms: C5_4  and  O7_13 
REMARK    2  A    between atoms: C8_10  and  O7_13 
ROOT
HETATM    1  O7    D T 301      21.632  -1.101   8.397  1.00 42.88    -0.304 OA
ENDROOT
BRANCH   1   2
HETATM    2  C5    D T 301      21.091   0.151   8.172  1.00 35.33     0.125 A 
HETATM    3  C6    D T 301      20.687   0.941   9.243  1.00 34.79     0.154 A 
HETATM    4  C1    D T 301      20.199   2.220   9.029  1.00 38.97     0.041 A 
HETATM    5  O17   D T 301      20.754   0.459  10.527  1.00 40.19    -0.188 OA
HETATM    6  C2    D T 301      20.124   2.722   7.745  1.00 40.76     0.060 A 
HETATM    7  C3    D T 301      20.537   1.944   6.672  1.00 43.24     0.014 A 
HETATM    8 CL14   D T 301      19.510   4.318   7.499  1.00 30.13    -0.082 Cl
HETATM    9  C4    D T 301      21.028   0.662   6.884  1.00 37.13     0.028 A 
ENDBRANCH   1   2
BRANCH   1  10
HETATM   10  C8    D T 301      20.838  -2.193   8.111  1.00 30.60     0.111 A 
HETATM   11  C9    D T 301      21.051  -2.873   6.914  1.00 36.16     0.081 A 
HETATM   12  C10   D T 301      20.290  -3.973   6.573  1.00 47.83     0.025 A 
HETATM   13 CL16   D T 301      22.258  -2.368   5.794  1.00122.68    -0.080 Cl
HETATM   14  C11   D T 301      19.301  -4.405   7.432  1.00 42.00     0.059 A 
HETATM   15  C12   D T 301      19.075  -3.738   8.628  1.00 38.61     0.013 A 
HETATM   16 CL15   D T 301      18.350  -5.778   6.996  1.00 82.82    -0.082 Cl
HETATM   17  C13   D T 301      19.841  -2.630   8.975  1.00 37.01     0.026 A 
ENDBRANCH   1  10
TORSDOF 2
ENDMDL
MODEL 8
REMARK VINA RESULT:    -7.354      2.343      6.124
REMARK INTER + INTRA:          -8.357
REMARK INTER:                  -7.958
REMARK INTRA:                  -0.399
REMARK UNBOUND:                -0.143
REMARK  2 active torsions:
REMARK  status: ('A' for Active; 'I' for Inactive)
REMARK    1  A    between atoms: C5_4  and  O7_13 
REMARK    2  A    between atoms: C8_10  and  O7_13 
ROOT
HETATM    1  O7    D T 301      22.040  -0.948   8.076  1.00 42.88    -0.304 OA
ENDROOT
BRANCH   1   2
HETATM    2  C5    D T 301      21.231  -2.030   7.787  1.00 35.33     0.125 A 
HETATM    3  C6    D T 301      20.557  -2.691   8.807  1.00 34.79     0.154 A 
HETATM    4  C1    D T 301      19.697  -3.739   8.520  1.00 38.97     0.041 A 
HETATM    5  O17   D T 301      20.746  -2.324  10.117  1.00 40.19    -0.188 OA
HETATM    6  C2    D T 301      19.495  -4.123   7.209  1.00 40.76     0.060 A 
HETATM    7  C3    D T 301      20.154  -3.459   6.183  1.00 43.24     0.014 A 
HETATM    8 CL14   D T 301      18.421  -5.433   6.871  1.00 30.13    -0.082 Cl
HETATM    9  C4    D T 301      21.016  -2.408   6.469  1.00 37.13     0.028 A 
ENDBRANCH   1   2
BRANCH   1  10
HETATM   10  C8    D T 301      21.496   0.311   7.912  1.00 30.60     0.111 A 
HETATM   11  C9    D T 301      22.128   1.199   7.045  1.00 36.16     0.081 A 
HETATM   12  C10   D T 301      21.631   2.470   6.838  1.00 47.83     0.025 A 
HETATM   13 CL16   D T 301      23.566   0.765   6.201  1.00122.68    -0.080 Cl
HETATM   14  C11   D T 301      20.490   2.867   7.503  1.00 42.00     0.059 A 
HETATM   15  C12   D T 301      19.849   1.995   8.372  1.00 38.61     0.013 A 
HETATM   16 CL15   D T 301      19.877   4.460   7.244  1.00 82.82    -0.082 Cl
HETATM   17  C13   D T 301      20.347   0.713   8.581  1.00 37.01     0.026 A 
ENDBRANCH   1  10
TORSDOF 2
ENDMDL
MODEL 9
REMARK VINA RESULT:    -7.289      2.091      5.845
REMARK INTER + INTRA:          -8.285
REMARK INTER:                  -7.770
REMARK INTRA:                  -0.515
REMARK UNBOUND:                -0.143
REMARK  2 active torsions:
REMARK  status: ('A' for Active; 'I' for Inactive)
REMARK    1  A    between atoms: C5_4  and  O7_13 
REMARK    2  A    between atoms: C8_10  and  O7_13 
ROOT
HETATM    1  O7    D T 301      20.645  -0.232   6.230  1.00 42.88    -0.304 OA
ENDROOT
BRANCH   1   2
HETATM    2  C5    D T 301      20.186  -1.509   6.488  1.00 35.33     0.125 A 
HETATM    3  C6    D T 301      18.823  -1.780   6.467  1.00 34.79     0.154 A 
HETATM    4  C1    D T 301      18.358  -3.071   6.667  1.00 38.97     0.041 A 
HETATM    5  O17   D T 301      17.916  -0.770   6.262  1.00 40.19    -0.188 OA
HETATM    6  C2    D T 301      19.254  -4.100   6.875  1.00 40.76     0.060 A 
HETATM    7  C3    D T 301      20.618  -3.840   6.885  1.00 43.24     0.014 A 
HETATM    8 CL14   D T 301      18.655  -5.701   7.124  1.00 30.13    -0.082 Cl
HETATM    9  C4    D T 301      21.086  -2.547   6.684  1.00 37.13     0.028 A 
ENDBRANCH   1   2
BRANCH   1  10
HETATM   10  C8    D T 301      21.103   0.505   7.305  1.00 30.60     0.111 A 
HETATM   11  C9    D T 301      22.461   0.804   7.373  1.00 36.16     0.081 A 
HETATM   12  C10   D T 301      22.979   1.537   8.421  1.00 47.83     0.025 A 
HETATM   13 CL16   D T 301      23.565   0.261   6.166  1.00122.68    -0.080 Cl
HETATM   14  C11   D T 301      22.136   1.980   9.419  1.00 42.00     0.059 A 
HETATM   15  C12   D T 301      20.780   1.690   9.367  1.00 38.61     0.013 A 
HETATM   16 CL15   D T 301      22.791   2.892  10.729  1.00 82.82    -0.082 Cl
HETATM   17  C13   D T 301      20.256   0.951   8.310  1.00 37.01     0.026 A 
ENDBRANCH   1  10
TORSDOF 2
ENDMDL
