MODEL 1
REMARK VINA RESULT:      -8.1      0.000      0.000
REMARK  2 active torsions:
REMARK  status: ('A' for Active; 'I' for Inactive)
REMARK    1  A    between atoms: C5_4  and  O7_13 
REMARK    2  A    between atoms: C8_10  and  O7_13 
ROOT
HETATM    1  O7    D T 301      18.290  -0.529   7.560  1.00 42.88    -0.304 OA
ENDROOT
BRANCH   1   2
HETATM    2  C5    D T 301      19.416   0.180   7.188  1.00 35.33     0.125 A 
HETATM    3  C6    D T 301      19.290   1.387   6.510  1.00 34.79     0.154 A 
HETATM    4  C1    D T 301      20.412   2.133   6.185  1.00 38.97     0.041 A 
HETATM    5  O17   D T 301      18.052   1.851   6.139  1.00 40.19    -0.188 OA
HETATM    6  C2    D T 301      21.666   1.683   6.549  1.00 40.76     0.060 A 
HETATM    7  C3    D T 301      21.799   0.485   7.238  1.00 43.24     0.014 A 
HETATM    8 CL14   D T 301      23.053   2.626   6.133  1.00 30.13    -0.082 Cl
HETATM    9  C4    D T 301      20.676  -0.264   7.564  1.00 37.13     0.028 A 
ENDBRANCH   1   2
BRANCH   1  10
HETATM   10  C8    D T 301      18.354  -1.906   7.479  1.00 30.60     0.111 A 
HETATM   11  C9    D T 301      18.433  -2.492   6.218  1.00 36.16     0.081 A 
HETATM   12  C10   D T 301      18.501  -3.863   6.072  1.00 47.83     0.025 A 
HETATM   13 CL16   D T 301      18.431  -1.543   4.781  1.00122.68    -0.080 Cl
HETATM   14  C11   D T 301      18.490  -4.665   7.194  1.00 42.00     0.059 A 
HETATM   15  C12   D T 301      18.411  -4.097   8.458  1.00 38.61     0.013 A 
HETATM   16 CL15   D T 301      18.570  -6.379   7.004  1.00 82.82    -0.082 Cl
HETATM   17  C13   D T 301      18.343  -2.715   8.608  1.00 37.01     0.026 A 
ENDBRANCH   1  10
TORSDOF 2
ENDMDL
MODEL 2
REMARK VINA RESULT:      -7.9      3.533      4.006
REMARK  2 active torsions:
REMARK  status: ('A' for Active; 'I' for Inactive)
REMARK    1  A    between atoms: C5_4  and  O7_13 
REMARK    2  A    between atoms: C8_10  and  O7_13 
ROOT
HETATM    1  O7    D T 301      19.962  -1.103   8.508  1.00 42.88    -0.304 OA
ENDROOT
BRANCH   1   2
HETATM    2  C5    D T 301      19.998  -0.839   9.864  1.00 35.33     0.125 A 
HETATM    3  C6    D T 301      19.247   0.204  10.394  1.00 34.79     0.154 A 
HETATM    4  C1    D T 301      19.231   0.438  11.760  1.00 38.97     0.041 A 
HETATM    5  O17   D T 301      18.522   1.028   9.568  1.00 40.19    -0.188 OA
HETATM    6  C2    D T 301      19.954  -0.379  12.606  1.00 40.76     0.060 A 
HETATM    7  C3    D T 301      20.697  -1.431  12.086  1.00 43.24     0.014 A 
HETATM    8 CL14   D T 301      19.923  -0.071  14.305  1.00 30.13    -0.082 Cl
HETATM    9  C4    D T 301      20.713  -1.667  10.717  1.00 37.13     0.028 A 
ENDBRANCH   1   2
BRANCH   1  10
HETATM   10  C8    D T 301      19.512  -2.348   8.118  1.00 30.60     0.111 A 
HETATM   11  C9    D T 301      20.334  -3.126   7.306  1.00 36.16     0.081 A 
HETATM   12  C10   D T 301      19.940  -4.380   6.884  1.00 47.83     0.025 A 
HETATM   13 CL16   D T 301      21.871  -2.559   6.772  1.00122.68    -0.080 Cl
HETATM   14  C11   D T 301      18.711  -4.870   7.273  1.00 42.00     0.059 A 
HETATM   15  C12   D T 301      17.880  -4.107   8.082  1.00 38.61     0.013 A 
HETATM   16 CL15   D T 301      18.223  -6.436   6.738  1.00 82.82    -0.082 Cl
HETATM   17  C13   D T 301      18.275  -2.844   8.509  1.00 37.01     0.026 A 
ENDBRANCH   1  10
TORSDOF 2
ENDMDL
MODEL 3
REMARK VINA RESULT:      -7.9      3.745      6.048
REMARK  2 active torsions:
REMARK  status: ('A' for Active; 'I' for Inactive)
REMARK    1  A    between atoms: C5_4  and  O7_13 
REMARK    2  A    between atoms: C8_10  and  O7_13 
ROOT
HETATM    1  O7    D T 301      20.209  -1.164   8.580  1.00 42.88    -0.304 OA
ENDROOT
BRANCH   1   2
HETATM    2  C5    D T 301      19.708  -2.371   8.130  1.00 35.33     0.125 A 
HETATM    3  C6    D T 301      20.505  -3.218   7.369  1.00 34.79     0.154 A 
HETATM    4  C1    D T 301      20.031  -4.456   6.963  1.00 38.97     0.041 A 
HETATM    5  O17   D T 301      21.771  -2.835   6.997  1.00 40.19    -0.188 OA
HETATM    6  C2    D T 301      18.761  -4.858   7.327  1.00 40.76     0.060 A 
HETATM    7  C3    D T 301      17.963  -4.023   8.097  1.00 43.24     0.014 A 
HETATM    8 CL14   D T 301      18.187  -6.403   6.809  1.00 30.13    -0.082 Cl
HETATM    9  C4    D T 301      18.438  -2.783   8.506  1.00 37.13     0.028 A 
ENDBRANCH   1   2
BRANCH   1  10
HETATM   10  C8    D T 301      20.124  -0.912   9.935  1.00 30.60     0.111 A 
HETATM   11  C9    D T 301      19.383   0.189  10.359  1.00 36.16     0.081 A 
HETATM   12  C10   D T 301      19.260   0.492  11.700  1.00 47.83     0.025 A 
HETATM   13 CL16   D T 301      18.600   1.235   9.237  1.00122.68    -0.080 Cl
HETATM   14  C11   D T 301      19.883  -0.308  12.635  1.00 42.00     0.059 A 
HETATM   15  C12   D T 301      20.625  -1.407  12.230  1.00 38.61     0.013 A 
HETATM   16 CL15   D T 301      19.729   0.081  14.310  1.00 82.82    -0.082 Cl
HETATM   17  C13   D T 301      20.750  -1.716  10.879  1.00 37.01     0.026 A 
ENDBRANCH   1  10
TORSDOF 2
ENDMDL
MODEL 4
REMARK VINA RESULT:      -7.9      1.144      5.654
REMARK  2 active torsions:
REMARK  status: ('A' for Active; 'I' for Inactive)
REMARK    1  A    between atoms: C5_4  and  O7_13 
REMARK    2  A    between atoms: C8_10  and  O7_13 
ROOT
HETATM    1  O7    D T 301      18.447  -0.599   7.539  1.00 42.88    -0.304 OA
ENDROOT
BRANCH   1   2
HETATM    2  C5    D T 301      18.394  -1.973   7.403  1.00 35.33     0.125 A 
HETATM    3  C6    D T 301      18.510  -2.557   6.147  1.00 34.79     0.154 A 
HETATM    4  C1    D T 301      18.518  -3.936   6.010  1.00 38.97     0.041 A 
HETATM    5  O17   D T 301      18.604  -1.775   5.023  1.00 40.19    -0.188 OA
HETATM    6  C2    D T 301      18.424  -4.739   7.129  1.00 40.76     0.060 A 
HETATM    7  C3    D T 301      18.321  -4.164   8.388  1.00 43.24     0.014 A 
HETATM    8 CL14   D T 301      18.433  -6.456   6.937  1.00 30.13    -0.082 Cl
HETATM    9  C4    D T 301      18.314  -2.782   8.528  1.00 37.13     0.028 A 
ENDBRANCH   1   2
BRANCH   1  10
HETATM   10  C8    D T 301      19.655   0.016   7.276  1.00 30.60     0.111 A 
HETATM   11  C9    D T 301      19.657   1.166   6.490  1.00 36.16     0.081 A 
HETATM   12  C10   D T 301      20.833   1.826   6.195  1.00 47.83     0.025 A 
HETATM   13 CL16   D T 301      18.201   1.813   5.835  1.00122.68    -0.080 Cl
HETATM   14  C11   D T 301      22.026   1.337   6.684  1.00 42.00     0.059 A 
HETATM   15  C12   D T 301      22.041   0.192   7.468  1.00 38.61     0.013 A 
HETATM   16 CL15   D T 301      23.492   2.165   6.306  1.00 82.82    -0.082 Cl
HETATM   17  C13   D T 301      20.858  -0.475   7.768  1.00 37.01     0.026 A 
ENDBRANCH   1  10
TORSDOF 2
ENDMDL
MODEL 5
REMARK VINA RESULT:      -7.8      1.214      5.874
REMARK  2 active torsions:
REMARK  status: ('A' for Active; 'I' for Inactive)
REMARK    1  A    between atoms: C5_4  and  O7_13 
REMARK    2  A    between atoms: C8_10  and  O7_13 
ROOT
HETATM    1  O7    D T 301      18.724  -0.554   7.816  1.00 42.88    -0.304 OA
ENDROOT
BRANCH   1   2
HETATM    2  C5    D T 301      18.755  -1.921   7.615  1.00 35.33     0.125 A 
HETATM    3  C6    D T 301      18.910  -2.783   8.695  1.00 34.79     0.154 A 
HETATM    4  C1    D T 301      18.883  -4.156   8.510  1.00 38.97     0.041 A 
HETATM    5  O17   D T 301      19.108  -2.285   9.959  1.00 40.19    -0.188 OA
HETATM    6  C2    D T 301      18.685  -4.675   7.246  1.00 40.76     0.060 A 
HETATM    7  C3    D T 301      18.516  -3.821   6.164  1.00 43.24     0.014 A 
HETATM    8 CL14   D T 301      18.656  -6.389   7.035  1.00 30.13    -0.082 Cl
HETATM    9  C4    D T 301      18.543  -2.445   6.348  1.00 37.13     0.028 A 
ENDBRANCH   1   2
BRANCH   1  10
HETATM   10  C8    D T 301      19.836   0.167   7.427  1.00 30.60     0.111 A 
HETATM   11  C9    D T 301      19.648   1.309   6.653  1.00 36.16     0.081 A 
HETATM   12  C10   D T 301      20.721   2.072   6.235  1.00 47.83     0.025 A 
HETATM   13 CL16   D T 301      18.077   1.819   6.165  1.00122.68    -0.080 Cl
HETATM   14  C11   D T 301      21.999   1.694   6.589  1.00 42.00     0.059 A 
HETATM   15  C12   D T 301      22.203   0.558   7.359  1.00 38.61     0.013 A 
HETATM   16 CL15   D T 301      23.335   2.650   6.058  1.00 82.82    -0.082 Cl
HETATM   17  C13   D T 301      21.124  -0.212   7.783  1.00 37.01     0.026 A 
ENDBRANCH   1  10
TORSDOF 2
ENDMDL
MODEL 6
REMARK VINA RESULT:      -7.7      1.369      1.793
REMARK  2 active torsions:
REMARK  status: ('A' for Active; 'I' for Inactive)
REMARK    1  A    between atoms: C5_4  and  O7_13 
REMARK    2  A    between atoms: C8_10  and  O7_13 
ROOT
HETATM    1  O7    D T 301      18.657  -0.421   7.732  1.00 42.88    -0.304 OA
ENDROOT
BRANCH   1   2
HETATM    2  C5    D T 301      19.757   0.292   7.296  1.00 35.33     0.125 A 
HETATM    3  C6    D T 301      19.586   1.447   6.541  1.00 34.79     0.154 A 
HETATM    4  C1    D T 301      20.682   2.201   6.150  1.00 38.97     0.041 A 
HETATM    5  O17   D T 301      18.330   1.850   6.160  1.00 40.19    -0.188 OA
HETATM    6  C2    D T 301      21.952   1.812   6.523  1.00 40.76     0.060 A 
HETATM    7  C3    D T 301      22.130   0.667   7.288  1.00 43.24     0.014 A 
HETATM    8 CL14   D T 301      23.305   2.764   6.024  1.00 30.13    -0.082 Cl
HETATM    9  C4    D T 301      21.034  -0.089   7.682  1.00 37.13     0.028 A 
ENDBRANCH   1   2
BRANCH   1  10
HETATM   10  C8    D T 301      18.670  -1.788   7.531  1.00 30.60     0.111 A 
HETATM   11  C9    D T 301      18.872  -2.618   8.631  1.00 36.16     0.081 A 
HETATM   12  C10   D T 301      18.894  -3.991   8.494  1.00 47.83     0.025 A 
HETATM   13 CL16   D T 301      19.121  -1.976  10.210  1.00122.68    -0.080 Cl
HETATM   14  C11   D T 301      18.715  -4.550   7.246  1.00 42.00     0.059 A 
HETATM   15  C12   D T 301      18.513  -3.737   6.139  1.00 38.61     0.013 A 
HETATM   16 CL15   D T 301      18.749  -6.268   7.081  1.00 82.82    -0.082 Cl
HETATM   17  C13   D T 301      18.490  -2.352   6.275  1.00 37.01     0.026 A 
ENDBRANCH   1  10
TORSDOF 2
ENDMDL
MODEL 7
REMARK VINA RESULT:      -7.6      2.312      2.703
REMARK  2 active torsions:
REMARK  status: ('A' for Active; 'I' for Inactive)
REMARK    1  A    between atoms: C5_4  and  O7_13 
REMARK    2  A    between atoms: C8_10  and  O7_13 
ROOT
HETATM    1  O7    D T 301      20.801  -0.726   6.094  1.00 42.88    -0.304 OA
ENDROOT
BRANCH   1   2
HETATM    2  C5    D T 301      21.133   0.032   7.200  1.00 35.33     0.125 A 
HETATM    3  C6    D T 301      22.417   0.547   7.335  1.00 34.79     0.154 A 
HETATM    4  C1    D T 301      22.742   1.357   8.412  1.00 38.97     0.041 A 
HETATM    5  O17   D T 301      23.387   0.248   6.410  1.00 40.19    -0.188 OA
HETATM    6  C2    D T 301      21.780   1.669   9.352  1.00 40.76     0.060 A 
HETATM    7  C3    D T 301      20.492   1.169   9.218  1.00 43.24     0.014 A 
HETATM    8 CL14   D T 301      22.205   2.678  10.688  1.00 30.13    -0.082 Cl
HETATM    9  C4    D T 301      20.164   0.358   8.139  1.00 37.13     0.028 A 
ENDBRANCH   1   2
BRANCH   1  10
HETATM   10  C8    D T 301      20.304  -1.994   6.323  1.00 30.60     0.111 A 
HETATM   11  C9    D T 301      19.015  -2.290   5.885  1.00 36.16     0.081 A 
HETATM   12  C10   D T 301      18.464  -3.539   6.084  1.00 47.83     0.025 A 
HETATM   13 CL16   D T 301      18.039  -1.111   5.093  1.00122.68    -0.080 Cl
HETATM   14  C11   D T 301      19.202  -4.511   6.727  1.00 42.00     0.059 A 
HETATM   15  C12   D T 301      20.487  -4.232   7.170  1.00 38.61     0.013 A 
HETATM   16 CL15   D T 301      18.504  -6.069   6.976  1.00 82.82    -0.082 Cl
HETATM   17  C13   D T 301      21.045  -2.973   6.971  1.00 37.01     0.026 A 
ENDBRANCH   1  10
TORSDOF 2
ENDMDL
MODEL 8
REMARK VINA RESULT:      -7.6      4.091      6.199
REMARK  2 active torsions:
REMARK  status: ('A' for Active; 'I' for Inactive)
REMARK    1  A    between atoms: C5_4  and  O7_13 
REMARK    2  A    between atoms: C8_10  and  O7_13 
ROOT
HETATM    1  O7    D T 301      19.732  -0.223   9.630  1.00 42.88    -0.304 OA
ENDROOT
BRANCH   1   2
HETATM    2  C5    D T 301      19.408  -1.449   9.080  1.00 35.33     0.125 A 
HETATM    3  C6    D T 301      18.337  -1.559   8.200  1.00 34.79     0.154 A 
HETATM    4  C1    D T 301      18.043  -2.772   7.598  1.00 38.97     0.041 A 
HETATM    5  O17   D T 301      17.548  -0.470   7.925  1.00 40.19    -0.188 OA
HETATM    6  C2    D T 301      18.825  -3.879   7.862  1.00 40.76     0.060 A 
HETATM    7  C3    D T 301      19.904  -3.774   8.730  1.00 43.24     0.014 A 
HETATM    8 CL14   D T 301      18.440  -5.383   7.104  1.00 30.13    -0.082 Cl
HETATM    9  C4    D T 301      20.201  -2.559   9.333  1.00 37.13     0.028 A 
ENDBRANCH   1   2
BRANCH   1  10
HETATM   10  C8    D T 301      19.679  -0.115  11.006  1.00 30.60     0.111 A 
HETATM   11  C9    D T 301      20.460   0.859  11.624  1.00 36.16     0.081 A 
HETATM   12  C10   D T 301      20.449   1.017  12.996  1.00 47.83     0.025 A 
HETATM   13 CL16   D T 301      21.488   1.901  10.716  1.00122.68    -0.080 Cl
HETATM   14  C11   D T 301      19.652   0.196  13.766  1.00 42.00     0.059 A 
HETATM   15  C12   D T 301      18.869  -0.780  13.165  1.00 38.61     0.013 A 
HETATM   16 CL15   D T 301      19.648   0.396  15.480  1.00 82.82    -0.082 Cl
HETATM   17  C13   D T 301      18.878  -0.941  11.783  1.00 37.01     0.026 A 
ENDBRANCH   1  10
TORSDOF 2
ENDMDL
MODEL 9
REMARK VINA RESULT:      -7.5      2.155      5.625
REMARK  2 active torsions:
REMARK  status: ('A' for Active; 'I' for Inactive)
REMARK    1  A    between atoms: C5_4  and  O7_13 
REMARK    2  A    between atoms: C8_10  and  O7_13 
ROOT
HETATM    1  O7    D T 301      18.349  -0.389   7.080  1.00 42.88    -0.304 OA
ENDROOT
BRANCH   1   2
HETATM    2  C5    D T 301      18.301  -1.769   7.054  1.00 35.33     0.125 A 
HETATM    3  C6    D T 301      18.590  -2.457   5.881  1.00 34.79     0.154 A 
HETATM    4  C1    D T 301      18.602  -3.843   5.861  1.00 38.97     0.041 A 
HETATM    5  O17   D T 301      18.855  -1.772   4.720  1.00 40.19    -0.188 OA
HETATM    6  C2    D T 301      18.338  -4.549   7.018  1.00 40.76     0.060 A 
HETATM    7  C3    D T 301      18.061  -3.869   8.197  1.00 43.24     0.014 A 
HETATM    8 CL14   D T 301      18.355  -6.276   6.973  1.00 30.13    -0.082 Cl
HETATM    9  C4    D T 301      18.049  -2.481   8.218  1.00 37.13     0.028 A 
ENDBRANCH   1   2
BRANCH   1  10
HETATM   10  C8    D T 301      19.098   0.199   8.081  1.00 30.60     0.111 A 
HETATM   11  C9    D T 301      20.456   0.408   7.857  1.00 36.16     0.081 A 
HETATM   12  C10   D T 301      21.256   0.992   8.819  1.00 47.83     0.025 A 
HETATM   13 CL16   D T 301      21.210  -0.064   6.382  1.00122.68    -0.080 Cl
HETATM   14  C11   D T 301      20.699   1.373  10.022  1.00 42.00     0.059 A 
HETATM   15  C12   D T 301      19.348   1.170  10.262  1.00 38.61     0.013 A 
HETATM   16 CL15   D T 301      21.707   2.097  11.222  1.00 82.82    -0.082 Cl
HETATM   17  C13   D T 301      18.539   0.582   9.293  1.00 37.01     0.026 A 
ENDBRANCH   1  10
TORSDOF 2
ENDMDL
