MODEL 1
REMARK VINA RESULT:      -7.7      0.000      0.000
REMARK  10 active torsions:
REMARK  status: ('A' for Active; 'I' for Inactive)
REMARK    1  A    between atoms: C7_7  and  C8_8 
REMARK       I    between atoms: C8_8  and  N9_9 
REMARK    2  A    between atoms: N9_9  and  C40_40 
REMARK    3  A    between atoms: C16_16  and  N18_18 
REMARK    4  A    between atoms: N18_18  and  C19_19 
REMARK    5  A    between atoms: C20_20  and  O25_25 
REMARK    6  A    between atoms: C22_22  and  C26_26 
REMARK    7  A    between atoms: O25_25  and  C36_36 
REMARK       I    between atoms: C26_26  and  N27_27 
REMARK    8  A    between atoms: N27_27  and  C29_29 
REMARK    9  A    between atoms: C41_41  and  C48_48 
REMARK   10  A    between atoms: C45_45  and  C46_46 
ROOT
HETATM    1  C1    D T 801       2.127  -9.401 -10.955  1.00 74.99     0.034 C 
HETATM    2  C2    D T 801       3.177  -8.717 -10.099  1.00 74.87     0.034 C 
HETATM    3  C3    D T 801       2.269 -10.892 -10.990  1.00 77.80     0.021 A 
HETATM    4  C4    D T 801       3.020 -11.574 -10.062  1.00 79.05     0.094 A 
HETATM    5  N5    D T 801       2.922 -12.910 -10.372  1.00 81.59    -0.248 N 
HETATM    6  N6    D T 801       2.120 -13.093 -11.460  1.00 81.45    -0.165 NA
HETATM    7  C7    D T 801       1.722 -11.864 -11.826  1.00 80.71     0.156 A 
HETATM    8  C11   D T 801       3.520 -14.083  -9.738  1.00 82.60     0.154 C 
HETATM    9  C12   D T 801       3.763 -10.949  -9.057  1.00 77.18     0.114 A 
HETATM   10  C13   D T 801       3.872  -9.546  -9.056  1.00 75.62     0.018 A 
HETATM   11  C14   D T 801       4.647  -8.951  -8.063  1.00 74.52     0.115 A 
HETATM   12  N15   D T 801       5.281  -9.679  -7.147  1.00 75.06    -0.058 NA
HETATM   13  C16   D T 801       5.153 -11.017  -7.220  1.00 77.13     0.750 A 
HETATM   14  N17   D T 801       4.432 -11.668  -8.147  1.00 77.25    -0.058 NA
ENDROOT
BRANCH  13  15
HETATM   15  N18   D T 801       5.773 -11.804  -6.308  1.00 80.81    -0.057 NA
BRANCH  15  16
HETATM   16  C19   D T 801       6.666 -12.881  -6.518  1.00 85.48     0.122 A 
HETATM   17  C20   D T 801       8.026 -12.619  -6.743  1.00 89.67     0.120 A 
HETATM   18  C21   D T 801       8.884 -13.685  -6.939  1.00 92.22     0.031 A 
HETATM   19  C22   D T 801       8.415 -14.998  -6.929  1.00 92.18     0.060 A 
HETATM   20  C23   D T 801       7.065 -15.241  -6.709  1.00 88.35     0.006 A 
HETATM   21  C24   D T 801       6.194 -14.198  -6.502  1.00 86.43     0.022 A 
BRANCH  17  22
HETATM   22  O25   D T 801       8.376 -11.271  -6.727  1.00 91.30    -0.252 OA
BRANCH  22  23
HETATM   23  C36   D T 801       8.691 -10.630  -7.862  1.00 94.98     0.530 C 
HETATM   24  F37   D T 801       8.016 -11.062  -8.914  1.00 94.67    -0.144 F 
HETATM   25  F38   D T 801       9.975 -10.709  -8.159  1.00 98.40    -0.144 F 
HETATM   26  F39   D T 801       8.420  -9.347  -7.734  1.00 96.99    -0.144 F 
ENDBRANCH  22  23
ENDBRANCH  17  22
BRANCH  19  27
HETATM   27  C26   D T 801       9.307 -16.183  -7.142  1.00 96.79     0.275 C 
HETATM   28  N27   D T 801       9.394 -16.688  -8.422  1.00 99.53    -0.236 NA
HETATM   29  O28   D T 801       9.930 -16.656  -6.192  1.00 99.48    -0.266 OA
BRANCH  28  30
HETATM   30  C29   D T 801      10.422 -17.657  -8.819  1.00102.51     0.111 C 
HETATM   31  C30   D T 801       9.888 -19.081  -8.760  1.00104.02     0.060 C 
HETATM   32  C31   D T 801      10.963 -20.065  -9.198  1.00106.53     0.252 C 
HETATM   33  N32   D T 801      11.450 -19.756 -10.552  1.00109.08     0.139 N 
HETATM   34  C33   D T 801      11.991 -18.390 -10.626  1.00106.98     0.252 C 
HETATM   35  C35   D T 801      12.453 -20.754 -11.000  1.00111.30     0.285 C 
HETATM   36  C34   D T 801      10.946 -17.362 -10.219  1.00105.21     0.060 C 
ENDBRANCH  28  30
ENDBRANCH  19  27
ENDBRANCH  15  16
ENDBRANCH  13  15
BRANCH   7  37
HETATM   37  C8    D T 801       0.841 -11.679 -13.000  1.00 82.40     0.298 C 
HETATM   38  N9    D T 801       1.453 -11.779 -14.202  1.00 84.60    -0.207 NA
HETATM   39  O10   D T 801      -0.351 -11.426 -12.854  1.00 81.21    -0.263 OA
BRANCH  38  40
HETATM   40  C40   D T 801       0.839 -11.722 -15.487  1.00 86.27     0.077 A 
HETATM   41  C41   D T 801       0.739 -10.482 -16.135  1.00 87.01    -0.005 A 
HETATM   42  C42   D T 801       0.129 -10.455 -17.392  1.00 88.25    -0.003 A 
HETATM   43  C43   D T 801      -0.349 -11.603 -17.985  1.00 88.58    -0.001 A 
HETATM   44  C44   D T 801      -0.238 -12.810 -17.330  1.00 87.85    -0.003 A 
HETATM   45  C45   D T 801       0.360 -12.906 -16.070  1.00 86.05    -0.005 A 
BRANCH  41  46
HETATM   46  C48   D T 801       1.239  -9.194 -15.514  1.00 86.36     0.028 C 
HETATM   47  C49   D T 801       0.169  -8.239 -15.044  1.00 87.21     0.005 C 
ENDBRANCH  41  46
BRANCH  45  48
HETATM   48  C46   D T 801       0.457 -14.262 -15.401  1.00 83.09     0.028 C 
HETATM   49  C47   D T 801       1.673 -15.086 -15.762  1.00 82.23     0.005 C 
ENDBRANCH  45  48
ENDBRANCH  38  40
ENDBRANCH   7  37
TORSDOF 10
ENDMDL
MODEL 2
REMARK VINA RESULT:      -7.7      0.639      1.974
REMARK  10 active torsions:
REMARK  status: ('A' for Active; 'I' for Inactive)
REMARK    1  A    between atoms: C7_7  and  C8_8 
REMARK       I    between atoms: C8_8  and  N9_9 
REMARK    2  A    between atoms: N9_9  and  C40_40 
REMARK    3  A    between atoms: C16_16  and  N18_18 
REMARK    4  A    between atoms: N18_18  and  C19_19 
REMARK    5  A    between atoms: C20_20  and  O25_25 
REMARK    6  A    between atoms: C22_22  and  C26_26 
REMARK    7  A    between atoms: O25_25  and  C36_36 
REMARK       I    between atoms: C26_26  and  N27_27 
REMARK    8  A    between atoms: N27_27  and  C29_29 
REMARK    9  A    between atoms: C41_41  and  C48_48 
REMARK   10  A    between atoms: C45_45  and  C46_46 
ROOT
HETATM    1  C1    D T 801       2.049  -9.124 -11.043  1.00 74.99     0.034 C 
HETATM    2  C2    D T 801       3.073  -8.458 -10.143  1.00 74.87     0.034 C 
HETATM    3  C3    D T 801       2.220 -10.609 -11.138  1.00 77.80     0.021 A 
HETATM    4  C4    D T 801       2.971 -11.316 -10.229  1.00 79.05     0.094 A 
HETATM    5  N5    D T 801       2.903 -12.639 -10.596  1.00 81.59    -0.248 N 
HETATM    6  N6    D T 801       2.120 -12.791 -11.703  1.00 81.45    -0.165 NA
HETATM    7  C7    D T 801       1.703 -11.555 -12.023  1.00 80.71     0.156 A 
HETATM    8  C11   D T 801       3.515 -13.827 -10.003  1.00 82.60     0.154 C 
HETATM    9  C12   D T 801       3.688 -10.720  -9.187  1.00 77.18     0.114 A 
HETATM   10  C13   D T 801       3.769  -9.317  -9.125  1.00 75.62     0.018 A 
HETATM   11  C14   D T 801       4.519  -8.751  -8.097  1.00 74.52     0.115 A 
HETATM   12  N15   D T 801       5.154  -9.505  -7.203  1.00 75.06    -0.058 NA
HETATM   13  C16   D T 801       5.053 -10.841  -7.335  1.00 77.13     0.750 A 
HETATM   14  N17   D T 801       4.357 -11.464  -8.299  1.00 77.25    -0.058 NA
ENDROOT
BRANCH  13  15
HETATM   15  N18   D T 801       5.675 -11.654  -6.448  1.00 80.81    -0.057 NA
BRANCH  15  16
HETATM   16  C19   D T 801       6.372 -12.862  -6.681  1.00 85.48     0.122 A 
HETATM   17  C20   D T 801       7.754 -12.828  -6.925  1.00 89.67     0.120 A 
HETATM   18  C21   D T 801       8.418 -14.020  -7.144  1.00 92.22     0.031 A 
HETATM   19  C22   D T 801       7.738 -15.237  -7.138  1.00 92.18     0.060 A 
HETATM   20  C23   D T 801       6.369 -15.254  -6.899  1.00 88.35     0.006 A 
HETATM   21  C24   D T 801       5.687 -14.082  -6.668  1.00 86.43     0.022 A 
BRANCH  17  22
HETATM   22  O25   D T 801       8.324 -11.557  -6.903  1.00 91.30    -0.252 OA
BRANCH  22  23
HETATM   23  C36   D T 801       8.564 -10.893  -8.042  1.00 94.98     0.530 C 
HETATM   24  F37   D T 801       7.918 -11.388  -9.085  1.00 94.67    -0.144 F 
HETATM   25  F38   D T 801       9.847 -10.855  -8.356  1.00 98.40    -0.144 F 
HETATM   26  F39   D T 801       8.180  -9.640  -7.913  1.00 96.99    -0.144 F 
ENDBRANCH  22  23
ENDBRANCH  17  22
BRANCH  19  27
HETATM   27  C26   D T 801       8.416 -16.551  -7.375  1.00 96.79     0.275 C 
HETATM   28  N27   D T 801       9.018 -16.741  -8.601  1.00 99.53    -0.236 NA
HETATM   29  O28   D T 801       8.425 -17.402  -6.487  1.00 99.48    -0.266 OA
BRANCH  28  30
HETATM   30  C29   D T 801       9.938 -17.854  -8.864  1.00102.51     0.111 C 
HETATM   31  C30   D T 801       9.349 -18.825  -9.877  1.00104.02     0.060 C 
HETATM   32  C31   D T 801      10.328 -19.956 -10.152  1.00106.53     0.252 C 
HETATM   33  N32   D T 801      11.622 -19.440 -10.629  1.00109.08     0.139 N 
HETATM   34  C33   D T 801      12.218 -18.514  -9.654  1.00106.98     0.252 C 
HETATM   35  C35   D T 801      12.552 -20.548 -10.954  1.00111.30     0.285 C 
HETATM   36  C34   D T 801      11.287 -17.348  -9.361  1.00105.21     0.060 C 
ENDBRANCH  28  30
ENDBRANCH  19  27
ENDBRANCH  15  16
ENDBRANCH  13  15
BRANCH   7  37
HETATM   37  C8    D T 801       0.836 -11.337 -13.200  1.00 82.40     0.298 C 
HETATM   38  N9    D T 801       1.454 -11.439 -14.399  1.00 84.60    -0.207 NA
HETATM   39  O10   D T 801      -0.351 -11.057 -13.060  1.00 81.21    -0.263 OA
BRANCH  38  40
HETATM   40  C40   D T 801       0.851 -11.354 -15.688  1.00 86.27     0.077 A 
HETATM   41  C41   D T 801       0.248 -12.499 -16.229  1.00 87.01    -0.005 A 
HETATM   42  C42   D T 801      -0.333 -12.389 -17.496  1.00 88.25    -0.003 A 
HETATM   43  C43   D T 801      -0.328 -11.197 -18.188  1.00 88.58    -0.001 A 
HETATM   44  C44   D T 801       0.268 -10.086 -17.634  1.00 87.85    -0.003 A 
HETATM   45  C45   D T 801       0.868 -10.129 -16.373  1.00 86.05    -0.005 A 
BRANCH  41  46
HETATM   46  C48   D T 801       0.232 -13.832 -15.509  1.00 86.36     0.028 C 
HETATM   47  C49   D T 801       1.156 -14.886 -16.068  1.00 87.21     0.005 C 
ENDBRANCH  41  46
BRANCH  45  48
HETATM   48  C46   D T 801       1.505  -8.873 -15.815  1.00 83.09     0.028 C 
HETATM   49  C47   D T 801       1.946  -7.850 -16.840  1.00 82.23     0.005 C 
ENDBRANCH  45  48
ENDBRANCH  38  40
ENDBRANCH   7  37
TORSDOF 10
ENDMDL
MODEL 3
REMARK VINA RESULT:      -7.2      5.972      8.963
REMARK  10 active torsions:
REMARK  status: ('A' for Active; 'I' for Inactive)
REMARK    1  A    between atoms: C7_7  and  C8_8 
REMARK       I    between atoms: C8_8  and  N9_9 
REMARK    2  A    between atoms: N9_9  and  C40_40 
REMARK    3  A    between atoms: C16_16  and  N18_18 
REMARK    4  A    between atoms: N18_18  and  C19_19 
REMARK    5  A    between atoms: C20_20  and  O25_25 
REMARK    6  A    between atoms: C22_22  and  C26_26 
REMARK    7  A    between atoms: O25_25  and  C36_36 
REMARK       I    between atoms: C26_26  and  N27_27 
REMARK    8  A    between atoms: N27_27  and  C29_29 
REMARK    9  A    between atoms: C41_41  and  C48_48 
REMARK   10  A    between atoms: C45_45  and  C46_46 
ROOT
HETATM    1  C1    D T 801       1.624  -9.843 -17.021  1.00 74.99     0.034 C 
HETATM    2  C2    D T 801       2.103 -11.242 -16.680  1.00 74.87     0.034 C 
HETATM    3  C3    D T 801       0.914  -9.167 -15.889  1.00 77.80     0.021 A 
HETATM    4  C4    D T 801       1.020  -9.613 -14.593  1.00 79.05     0.094 A 
HETATM    5  N5    D T 801       0.267  -8.765 -13.815  1.00 81.59    -0.248 N 
HETATM    6  N6    D T 801      -0.301  -7.788 -14.580  1.00 81.45    -0.165 NA
HETATM    7  C7    D T 801       0.102  -8.034 -15.837  1.00 80.71     0.156 A 
HETATM    8  C11   D T 801       0.007  -8.767 -12.377  1.00 82.60     0.154 C 
HETATM    9  C12   D T 801       1.731 -10.757 -14.223  1.00 77.18     0.114 A 
HETATM   10  C13   D T 801       2.264 -11.587 -15.226  1.00 75.62     0.018 A 
HETATM   11  C14   D T 801       2.938 -12.740 -14.831  1.00 74.52     0.115 A 
HETATM   12  N15   D T 801       3.069 -13.063 -13.547  1.00 75.06    -0.058 NA
HETATM   13  C16   D T 801       2.515 -12.237 -12.640  1.00 77.13     0.750 A 
HETATM   14  N17   D T 801       1.845 -11.112 -12.937  1.00 77.25    -0.058 NA
ENDROOT
BRANCH  13  15
HETATM   15  N18   D T 801       2.625 -12.516 -11.318  1.00 80.81    -0.057 NA
BRANCH  15  16
HETATM   16  C19   D T 801       1.854 -13.397 -10.525  1.00 85.48     0.122 A 
HETATM   17  C20   D T 801       0.889 -12.876  -9.648  1.00 89.67     0.120 A 
HETATM   18  C21   D T 801       0.142 -13.754  -8.887  1.00 92.22     0.031 A 
HETATM   19  C22   D T 801       0.343 -15.132  -8.969  1.00 92.18     0.060 A 
HETATM   20  C23   D T 801       1.305 -15.632  -9.839  1.00 88.35     0.006 A 
HETATM   21  C24   D T 801       2.054 -14.779 -10.614  1.00 86.43     0.022 A 
BRANCH  17  22
HETATM   22  O25   D T 801       0.777 -11.488  -9.656  1.00 91.30    -0.252 OA
BRANCH  22  23
HETATM   23  C36   D T 801       1.247 -10.756  -8.635  1.00 94.98     0.530 C 
HETATM   24  F37   D T 801       1.812  -9.624  -9.017  1.00 94.67    -0.144 F 
HETATM   25  F38   D T 801       2.128 -11.407  -7.897  1.00 98.40    -0.144 F 
HETATM   26  F39   D T 801       0.256 -10.436  -7.829  1.00 96.99    -0.144 F 
ENDBRANCH  22  23
ENDBRANCH  17  22
BRANCH  19  27
HETATM   27  C26   D T 801      -0.440 -16.119  -8.159  1.00 96.79     0.275 C 
HETATM   28  N27   D T 801      -1.811 -15.981  -8.145  1.00 99.53    -0.236 NA
HETATM   29  O28   D T 801       0.149 -17.011  -7.548  1.00 99.48    -0.266 OA
BRANCH  28  30
HETATM   30  C29   D T 801      -2.704 -17.023  -7.625  1.00102.51     0.111 C 
HETATM   31  C30   D T 801      -3.945 -16.415  -6.987  1.00104.02     0.060 C 
HETATM   32  C31   D T 801      -4.866 -17.514  -6.477  1.00106.53     0.252 C 
HETATM   33  N32   D T 801      -5.245 -18.439  -7.557  1.00109.08     0.139 N 
HETATM   34  C33   D T 801      -4.059 -19.054  -8.174  1.00106.98     0.252 C 
HETATM   35  C35   D T 801      -6.191 -19.472  -7.069  1.00111.30     0.285 C 
HETATM   36  C34   D T 801      -3.114 -17.997  -8.724  1.00105.21     0.060 C 
ENDBRANCH  28  30
ENDBRANCH  19  27
ENDBRANCH  15  16
ENDBRANCH  13  15
BRANCH   7  37
HETATM   37  C8    D T 801      -0.344  -7.170 -16.951  1.00 82.40     0.298 C 
HETATM   38  N9    D T 801      -1.070  -7.791 -17.908  1.00 84.60    -0.207 NA
HETATM   39  O10   D T 801      -0.033  -5.983 -16.985  1.00 81.21    -0.263 OA
BRANCH  38  40
HETATM   40  C40   D T 801      -1.688  -7.190 -19.044  1.00 86.27     0.077 A 
HETATM   41  C41   D T 801      -3.009  -6.733 -18.933  1.00 87.01    -0.005 A 
HETATM   42  C42   D T 801      -3.591  -6.152 -20.063  1.00 88.25    -0.003 A 
HETATM   43  C43   D T 801      -2.894  -6.018 -21.244  1.00 88.58    -0.001 A 
HETATM   44  C44   D T 801      -1.597  -6.473 -21.327  1.00 87.85    -0.003 A 
HETATM   45  C45   D T 801      -0.956  -7.065 -20.236  1.00 86.05    -0.005 A 
BRANCH  41  46
HETATM   46  C48   D T 801      -3.817  -6.871 -17.658  1.00 86.36     0.028 C 
HETATM   47  C49   D T 801      -5.263  -6.448 -17.754  1.00 87.21     0.005 C 
ENDBRANCH  41  46
BRANCH  45  48
HETATM   48  C46   D T 801       0.473  -7.544 -20.388  1.00 83.09     0.028 C 
HETATM   49  C47   D T 801       1.541  -6.489 -20.195  1.00 82.23     0.005 C 
ENDBRANCH  45  48
ENDBRANCH  38  40
ENDBRANCH   7  37
TORSDOF 10
ENDMDL
MODEL 4
REMARK VINA RESULT:      -7.1      2.399      3.347
REMARK  10 active torsions:
REMARK  status: ('A' for Active; 'I' for Inactive)
REMARK    1  A    between atoms: C7_7  and  C8_8 
REMARK       I    between atoms: C8_8  and  N9_9 
REMARK    2  A    between atoms: N9_9  and  C40_40 
REMARK    3  A    between atoms: C16_16  and  N18_18 
REMARK    4  A    between atoms: N18_18  and  C19_19 
REMARK    5  A    between atoms: C20_20  and  O25_25 
REMARK    6  A    between atoms: C22_22  and  C26_26 
REMARK    7  A    between atoms: O25_25  and  C36_36 
REMARK       I    between atoms: C26_26  and  N27_27 
REMARK    8  A    between atoms: N27_27  and  C29_29 
REMARK    9  A    between atoms: C41_41  and  C48_48 
REMARK   10  A    between atoms: C45_45  and  C46_46 
ROOT
HETATM    1  C1    D T 801       2.165  -8.490 -11.168  1.00 74.99     0.034 C 
HETATM    2  C2    D T 801       3.173  -7.829 -10.245  1.00 74.87     0.034 C 
HETATM    3  C3    D T 801       2.383  -9.964 -11.325  1.00 77.80     0.021 A 
HETATM    4  C4    D T 801       3.161 -10.683 -10.449  1.00 79.05     0.094 A 
HETATM    5  N5    D T 801       3.133 -11.991 -10.870  1.00 81.59    -0.248 N 
HETATM    6  N6    D T 801       2.349 -12.123 -11.979  1.00 81.45    -0.165 NA
HETATM    7  C7    D T 801       1.892 -10.889 -12.246  1.00 80.71     0.156 A 
HETATM    8  C11   D T 801       3.785 -13.183 -10.329  1.00 82.60     0.154 C 
HETATM    9  C12   D T 801       3.864 -10.109  -9.386  1.00 77.18     0.114 A 
HETATM   10  C13   D T 801       3.901  -8.708  -9.267  1.00 75.62     0.018 A 
HETATM   11  C14   D T 801       4.638  -8.160  -8.219  1.00 74.52     0.115 A 
HETATM   12  N15   D T 801       5.301  -8.930  -7.359  1.00 75.06    -0.058 NA
HETATM   13  C16   D T 801       5.242 -10.262  -7.546  1.00 77.13     0.750 A 
HETATM   14  N17   D T 801       4.562 -10.867  -8.532  1.00 77.25    -0.058 NA
ENDROOT
BRANCH  13  15
HETATM   15  N18   D T 801       5.894 -11.091  -6.695  1.00 80.81    -0.057 NA
BRANCH  15  16
HETATM   16  C19   D T 801       6.209 -12.461  -6.850  1.00 85.48     0.122 A 
HETATM   17  C20   D T 801       7.520 -12.838  -7.180  1.00 89.67     0.120 A 
HETATM   18  C21   D T 801       7.808 -14.182  -7.319  1.00 92.22     0.031 A 
HETATM   19  C22   D T 801       6.821 -15.153  -7.152  1.00 92.18     0.060 A 
HETATM   20  C23   D T 801       5.527 -14.763  -6.829  1.00 88.35     0.006 A 
HETATM   21  C24   D T 801       5.217 -13.433  -6.675  1.00 86.43     0.022 A 
BRANCH  17  22
HETATM   22  O25   D T 801       8.418 -11.782  -7.318  1.00 91.30    -0.252 OA
BRANCH  22  23
HETATM   23  C36   D T 801       8.879 -11.428  -8.526  1.00 94.98     0.530 C 
HETATM   24  F37   D T 801       9.658 -10.360  -8.498  1.00 94.67    -0.144 F 
HETATM   25  F38   D T 801       7.916 -11.191  -9.397  1.00 98.40    -0.144 F 
HETATM   26  F39   D T 801       9.597 -12.411  -9.030  1.00 96.99    -0.144 F 
ENDBRANCH  22  23
ENDBRANCH  17  22
BRANCH  19  27
HETATM   27  C26   D T 801       7.088 -16.619  -7.299  1.00 96.79     0.275 C 
HETATM   28  N27   D T 801       6.001 -17.467  -7.265  1.00 99.53    -0.236 NA
HETATM   29  O28   D T 801       8.243 -17.017  -7.450  1.00 99.48    -0.266 OA
BRANCH  28  30
HETATM   30  C29   D T 801       6.088 -18.877  -7.663  1.00102.51     0.111 C 
HETATM   31  C30   D T 801       6.108 -19.792  -6.447  1.00104.02     0.060 C 
HETATM   32  C31   D T 801       6.174 -21.247  -6.885  1.00106.53     0.252 C 
HETATM   33  N32   D T 801       5.047 -21.592  -7.768  1.00109.08     0.139 N 
HETATM   34  C33   D T 801       5.022 -20.732  -8.961  1.00106.98     0.252 C 
HETATM   35  C35   D T 801       5.082 -23.027  -8.142  1.00111.30     0.285 C 
HETATM   36  C34   D T 801       4.932 -19.263  -8.579  1.00105.21     0.060 C 
ENDBRANCH  28  30
ENDBRANCH  19  27
ENDBRANCH  15  16
ENDBRANCH  13  15
BRANCH   7  37
HETATM   37  C8    D T 801       1.012 -10.650 -13.410  1.00 82.40     0.298 C 
HETATM   38  N9    D T 801       1.568 -10.909 -14.616  1.00 84.60    -0.207 NA
HETATM   39  O10   D T 801      -0.128 -10.220 -13.255  1.00 81.21    -0.263 OA
BRANCH  38  40
HETATM   40  C40   D T 801       0.929 -10.841 -15.889  1.00 86.27     0.077 A 
HETATM   41  C41   D T 801       0.301 -11.990 -16.392  1.00 87.01    -0.005 A 
HETATM   42  C42   D T 801      -0.314 -11.897 -17.644  1.00 88.25    -0.003 A 
HETATM   43  C43   D T 801      -0.318 -10.718 -18.358  1.00 88.58    -0.001 A 
HETATM   44  C44   D T 801       0.304  -9.603 -17.841  1.00 87.85    -0.003 A 
HETATM   45  C45   D T 801       0.938  -9.628 -16.596  1.00 86.05    -0.005 A 
BRANCH  41  46
HETATM   46  C48   D T 801       0.293 -13.309 -15.648  1.00 86.36     0.028 C 
HETATM   47  C49   D T 801       0.514 -14.538 -16.496  1.00 87.21     0.005 C 
ENDBRANCH  41  46
BRANCH  45  48
HETATM   48  C46   D T 801       1.602  -8.368 -16.079  1.00 83.09     0.028 C 
HETATM   49  C47   D T 801       2.247  -7.490 -17.128  1.00 82.23     0.005 C 
ENDBRANCH  45  48
ENDBRANCH  38  40
ENDBRANCH   7  37
TORSDOF 10
ENDMDL
MODEL 5
REMARK VINA RESULT:      -7.0      3.806      5.107
REMARK  10 active torsions:
REMARK  status: ('A' for Active; 'I' for Inactive)
REMARK    1  A    between atoms: C7_7  and  C8_8 
REMARK       I    between atoms: C8_8  and  N9_9 
REMARK    2  A    between atoms: N9_9  and  C40_40 
REMARK    3  A    between atoms: C16_16  and  N18_18 
REMARK    4  A    between atoms: N18_18  and  C19_19 
REMARK    5  A    between atoms: C20_20  and  O25_25 
REMARK    6  A    between atoms: C22_22  and  C26_26 
REMARK    7  A    between atoms: O25_25  and  C36_36 
REMARK       I    between atoms: C26_26  and  N27_27 
REMARK    8  A    between atoms: N27_27  and  C29_29 
REMARK    9  A    between atoms: C41_41  and  C48_48 
REMARK   10  A    between atoms: C45_45  and  C46_46 
ROOT
HETATM    1  C1    D T 801       0.261 -10.077 -10.894  1.00 74.99     0.034 C 
HETATM    2  C2    D T 801       1.041 -11.356 -11.138  1.00 74.87     0.034 C 
HETATM    3  C3    D T 801       0.203  -9.684  -9.449  1.00 77.80     0.021 A 
HETATM    4  C4    D T 801       1.065 -10.209  -8.517  1.00 79.05     0.094 A 
HETATM    5  N5    D T 801       0.752  -9.628  -7.310  1.00 81.59    -0.248 N 
HETATM    6  N6    D T 801      -0.273  -8.741  -7.456  1.00 81.45    -0.165 NA
HETATM    7  C7    D T 801      -0.598  -8.775  -8.759  1.00 80.71     0.156 A 
HETATM    8  C11   D T 801       1.329  -9.819  -5.981  1.00 82.60     0.154 C 
HETATM    9  C12   D T 801       2.017 -11.191  -8.807  1.00 77.18     0.114 A 
HETATM   10  C13   D T 801       2.021 -11.785 -10.082  1.00 75.62     0.018 A 
HETATM   11  C14   D T 801       2.957 -12.785 -10.335  1.00 74.52     0.115 A 
HETATM   12  N15   D T 801       3.816 -13.184  -9.400  1.00 75.06    -0.058 NA
HETATM   13  C16   D T 801       3.742 -12.591  -8.194  1.00 77.13     0.750 A 
HETATM   14  N17   D T 801       2.867 -11.626  -7.869  1.00 77.25    -0.058 NA
ENDROOT
BRANCH  13  15
HETATM   15  N18   D T 801       4.597 -12.956  -7.209  1.00 80.81    -0.057 NA
BRANCH  15  16
HETATM   16  C19   D T 801       5.777 -13.732  -7.292  1.00 85.48     0.122 A 
HETATM   17  C20   D T 801       7.028 -13.095  -7.267  1.00 89.67     0.120 A 
HETATM   18  C21   D T 801       8.168 -13.872  -7.343  1.00 92.22     0.031 A 
HETATM   19  C22   D T 801       8.089 -15.260  -7.457  1.00 92.18     0.060 A 
HETATM   20  C23   D T 801       6.844 -15.874  -7.485  1.00 88.35     0.006 A 
HETATM   21  C24   D T 801       5.694 -15.125  -7.401  1.00 86.43     0.022 A 
BRANCH  17  22
HETATM   22  O25   D T 801       6.979 -11.709  -7.147  1.00 91.30    -0.252 OA
BRANCH  22  23
HETATM   23  C36   D T 801       7.355 -10.919  -8.163  1.00 94.98     0.530 C 
HETATM   24  F37   D T 801       8.666 -10.843  -8.312  1.00 94.67    -0.144 F 
HETATM   25  F38   D T 801       6.898  -9.685  -8.053  1.00 98.40    -0.144 F 
HETATM   26  F39   D T 801       6.869 -11.392  -9.292  1.00 96.99    -0.144 F 
ENDBRANCH  22  23
ENDBRANCH  17  22
BRANCH  19  27
HETATM   27  C26   D T 801       9.299 -16.139  -7.547  1.00 96.79     0.275 C 
HETATM   28  N27   D T 801       9.154 -17.351  -8.188  1.00 99.53    -0.236 NA
HETATM   29  O28   D T 801      10.366 -15.761  -7.064  1.00 99.48    -0.266 OA
BRANCH  28  30
HETATM   30  C29   D T 801      10.302 -18.177  -8.582  1.00102.51     0.111 C 
HETATM   31  C30   D T 801       9.979 -19.660  -8.460  1.00104.02     0.060 C 
HETATM   32  C31   D T 801      11.174 -20.495  -8.896  1.00106.53     0.252 C 
HETATM   33  N32   D T 801      11.580 -20.170 -10.273  1.00109.08     0.139 N 
HETATM   34  C33   D T 801      11.917 -18.744 -10.407  1.00106.98     0.252 C 
HETATM   35  C35   D T 801      12.705 -21.030 -10.715  1.00111.30     0.285 C 
HETATM   36  C34   D T 801      10.745 -17.862 -10.005  1.00105.21     0.060 C 
ENDBRANCH  28  30
ENDBRANCH  19  27
ENDBRANCH  15  16
ENDBRANCH  13  15
BRANCH   7  37
HETATM   37  C8    D T 801      -1.699  -7.938  -9.280  1.00 82.40     0.298 C 
HETATM   38  N9    D T 801      -2.811  -8.613  -9.652  1.00 84.60    -0.207 NA
HETATM   39  O10   D T 801      -1.567  -6.721  -9.380  1.00 81.21    -0.263 OA
BRANCH  38  40
HETATM   40  C40   D T 801      -4.041  -8.057 -10.111  1.00 86.27     0.077 A 
HETATM   41  C41   D T 801      -4.233  -7.888 -11.490  1.00 87.01    -0.005 A 
HETATM   42  C42   D T 801      -5.447  -7.338 -11.913  1.00 88.25    -0.003 A 
HETATM   43  C43   D T 801      -6.428  -6.983 -11.013  1.00 88.58    -0.001 A 
HETATM   44  C44   D T 801      -6.216  -7.160  -9.664  1.00 87.85    -0.003 A 
HETATM   45  C45   D T 801      -5.025  -7.704  -9.175  1.00 86.05    -0.005 A 
BRANCH  41  46
HETATM   46  C48   D T 801      -3.177  -8.252 -12.513  1.00 86.36     0.028 C 
HETATM   47  C49   D T 801      -3.292  -9.636 -13.105  1.00 87.21     0.005 C 
ENDBRANCH  41  46
BRANCH  45  48
HETATM   48  C46   D T 801      -4.852  -7.878  -7.680  1.00 83.09     0.028 C 
HETATM   49  C47   D T 801      -4.839  -6.601  -6.869  1.00 82.23     0.005 C 
ENDBRANCH  45  48
ENDBRANCH  38  40
ENDBRANCH   7  37
TORSDOF 10
ENDMDL
MODEL 6
REMARK VINA RESULT:      -7.0      7.581     12.450
REMARK  10 active torsions:
REMARK  status: ('A' for Active; 'I' for Inactive)
REMARK    1  A    between atoms: C7_7  and  C8_8 
REMARK       I    between atoms: C8_8  and  N9_9 
REMARK    2  A    between atoms: N9_9  and  C40_40 
REMARK    3  A    between atoms: C16_16  and  N18_18 
REMARK    4  A    between atoms: N18_18  and  C19_19 
REMARK    5  A    between atoms: C20_20  and  O25_25 
REMARK    6  A    between atoms: C22_22  and  C26_26 
REMARK    7  A    between atoms: O25_25  and  C36_36 
REMARK       I    between atoms: C26_26  and  N27_27 
REMARK    8  A    between atoms: N27_27  and  C29_29 
REMARK    9  A    between atoms: C41_41  and  C48_48 
REMARK   10  A    between atoms: C45_45  and  C46_46 
ROOT
HETATM    1  C1    D T 801       1.948  -8.957 -19.433  1.00 74.99     0.034 C 
HETATM    2  C2    D T 801       2.158 -10.369 -18.915  1.00 74.87     0.034 C 
HETATM    3  C3    D T 801       0.688  -8.322 -18.929  1.00 77.80     0.021 A 
HETATM    4  C4    D T 801       0.008  -8.816 -17.842  1.00 79.05     0.094 A 
HETATM    5  N5    D T 801      -1.078  -7.996 -17.644  1.00 81.59    -0.248 N 
HETATM    6  N6    D T 801      -1.096  -6.991 -18.566  1.00 81.45    -0.165 NA
HETATM    7  C7    D T 801      -0.017  -7.192 -19.339  1.00 80.71     0.156 A 
HETATM    8  C11   D T 801      -2.145  -8.050 -16.646  1.00 82.60     0.154 C 
HETATM    9  C12   D T 801       0.382  -9.974 -17.155  1.00 77.18     0.114 A 
HETATM   10  C13   D T 801       1.425 -10.767 -17.665  1.00 75.62     0.018 A 
HETATM   11  C14   D T 801       1.754 -11.935 -16.980  1.00 74.52     0.115 A 
HETATM   12  N15   D T 801       1.098 -12.305 -15.883  1.00 75.06    -0.058 NA
HETATM   13  C16   D T 801       0.095 -11.512 -15.462  1.00 77.13     0.750 A 
HETATM   14  N17   D T 801      -0.288 -10.376 -16.068  1.00 77.25    -0.058 NA
ENDROOT
BRANCH  13  15
HETATM   15  N18   D T 801      -0.601 -11.839 -14.347  1.00 80.81    -0.057 NA
BRANCH  15  16
HETATM   16  C19   D T 801      -1.034 -11.008 -13.288  1.00 85.48     0.122 A 
HETATM   17  C20   D T 801      -0.166 -10.740 -12.218  1.00 89.67     0.120 A 
HETATM   18  C21   D T 801      -0.606  -9.920 -11.197  1.00 92.22     0.031 A 
HETATM   19  C22   D T 801      -1.889  -9.375 -11.212  1.00 92.18     0.060 A 
HETATM   20  C23   D T 801      -2.738  -9.652 -12.276  1.00 88.35     0.006 A 
HETATM   21  C24   D T 801      -2.321 -10.457 -13.309  1.00 86.43     0.022 A 
BRANCH  17  22
HETATM   22  O25   D T 801       1.089 -11.337 -12.316  1.00 91.30    -0.252 OA
BRANCH  22  23
HETATM   23  C36   D T 801       2.169 -10.614 -12.641  1.00 94.98     0.530 C 
HETATM   24  F37   D T 801       1.882  -9.522 -13.329  1.00 94.67    -0.144 F 
HETATM   25  F38   D T 801       3.056 -11.298 -13.340  1.00 98.40    -0.144 F 
HETATM   26  F39   D T 801       2.786 -10.224 -11.544  1.00 96.99    -0.144 F 
ENDBRANCH  22  23
ENDBRANCH  17  22
BRANCH  19  27
HETATM   27  C26   D T 801      -2.408  -8.485 -10.124  1.00 96.79     0.275 C 
HETATM   28  N27   D T 801      -3.661  -7.938 -10.297  1.00 99.53    -0.236 NA
HETATM   29  O28   D T 801      -1.721  -8.279  -9.124  1.00 99.48    -0.266 OA
BRANCH  28  30
HETATM   30  C29   D T 801      -4.393  -7.280  -9.208  1.00102.51     0.111 C 
HETATM   31  C30   D T 801      -4.188  -5.772  -9.240  1.00104.02     0.060 C 
HETATM   32  C31   D T 801      -4.974  -5.111  -8.117  1.00106.53     0.252 C 
HETATM   33  N32   D T 801      -6.407  -5.436  -8.205  1.00109.08     0.139 N 
HETATM   34  C33   D T 801      -6.629  -6.889  -8.155  1.00106.98     0.252 C 
HETATM   35  C35   D T 801      -7.178  -4.740  -7.146  1.00111.30     0.285 C 
HETATM   36  C34   D T 801      -5.882  -7.599  -9.274  1.00105.21     0.060 C 
ENDBRANCH  28  30
ENDBRANCH  19  27
ENDBRANCH  15  16
ENDBRANCH  13  15
BRANCH   7  37
HETATM   37  C8    D T 801       0.273  -6.286 -20.472  1.00 82.40     0.298 C 
HETATM   38  N9    D T 801       0.466  -6.896 -21.664  1.00 84.60    -0.207 NA
HETATM   39  O10   D T 801       0.353  -5.073 -20.299  1.00 81.21    -0.263 OA
BRANCH  38  40
HETATM   40  C40   D T 801       0.683  -6.269 -22.926  1.00 86.27     0.077 A 
HETATM   41  C41   D T 801      -0.423  -5.994 -23.743  1.00 87.01    -0.005 A 
HETATM   42  C42   D T 801      -0.182  -5.382 -24.976  1.00 88.25    -0.003 A 
HETATM   43  C43   D T 801       1.094  -5.047 -25.376  1.00 88.58    -0.001 A 
HETATM   44  C44   D T 801       2.164  -5.326 -24.555  1.00 87.85    -0.003 A 
HETATM   45  C45   D T 801       1.992  -5.938 -23.310  1.00 86.05    -0.005 A 
BRANCH  41  46
HETATM   46  C48   D T 801      -1.840  -6.356 -23.349  1.00 86.36     0.028 C 
HETATM   47  C49   D T 801      -2.642  -5.250 -22.707  1.00 87.21     0.005 C 
ENDBRANCH  41  46
BRANCH  45  48
HETATM   48  C46   D T 801       3.208  -6.216 -22.450  1.00 83.09     0.028 C 
HETATM   49  C47   D T 801       3.929  -4.996 -21.919  1.00 82.23     0.005 C 
ENDBRANCH  45  48
ENDBRANCH  38  40
ENDBRANCH   7  37
TORSDOF 10
ENDMDL
MODEL 7
REMARK VINA RESULT:      -7.0      6.479      8.165
REMARK  10 active torsions:
REMARK  status: ('A' for Active; 'I' for Inactive)
REMARK    1  A    between atoms: C7_7  and  C8_8 
REMARK       I    between atoms: C8_8  and  N9_9 
REMARK    2  A    between atoms: N9_9  and  C40_40 
REMARK    3  A    between atoms: C16_16  and  N18_18 
REMARK    4  A    between atoms: N18_18  and  C19_19 
REMARK    5  A    between atoms: C20_20  and  O25_25 
REMARK    6  A    between atoms: C22_22  and  C26_26 
REMARK    7  A    between atoms: O25_25  and  C36_36 
REMARK       I    between atoms: C26_26  and  N27_27 
REMARK    8  A    between atoms: N27_27  and  C29_29 
REMARK    9  A    between atoms: C41_41  and  C48_48 
REMARK   10  A    between atoms: C45_45  and  C46_46 
ROOT
HETATM    1  C1    D T 801      -1.782  -6.850  -7.165  1.00 74.99     0.034 C 
HETATM    2  C2    D T 801      -0.390  -7.148  -6.638  1.00 74.87     0.034 C 
HETATM    3  C3    D T 801      -1.966  -7.232  -8.602  1.00 77.80     0.021 A 
HETATM    4  C4    D T 801      -1.103  -8.087  -9.245  1.00 79.05     0.094 A 
HETATM    5  N5    D T 801      -1.568  -8.233 -10.530  1.00 81.59    -0.248 N 
HETATM    6  N6    D T 801      -2.708  -7.506 -10.714  1.00 81.45    -0.165 NA
HETATM    7  C7    D T 801      -2.947  -6.905  -9.537  1.00 80.71     0.156 A 
HETATM    8  C11   D T 801      -1.044  -9.009 -11.653  1.00 82.60     0.154 C 
HETATM    9  C12   D T 801       0.045  -8.620  -8.651  1.00 77.18     0.114 A 
HETATM   10  C13   D T 801       0.430  -8.169  -7.376  1.00 75.62     0.018 A 
HETATM   11  C14   D T 801       1.597  -8.691  -6.822  1.00 74.52     0.115 A 
HETATM   12  N15   D T 801       2.338  -9.581  -7.477  1.00 75.06    -0.058 NA
HETATM   13  C16   D T 801       1.925  -9.952  -8.703  1.00 77.13     0.750 A 
HETATM   14  N17   D T 801       0.818  -9.492  -9.309  1.00 77.25    -0.058 NA
ENDROOT
BRANCH  13  15
HETATM   15  N18   D T 801       2.640 -10.860  -9.410  1.00 80.81    -0.057 NA
BRANCH  15  16
HETATM   16  C19   D T 801       3.210 -12.080  -8.978  1.00 85.48     0.122 A 
HETATM   17  C20   D T 801       2.485 -13.273  -9.128  1.00 89.67     0.120 A 
HETATM   18  C21   D T 801       3.062 -14.456  -8.706  1.00 92.22     0.031 A 
HETATM   19  C22   D T 801       4.331 -14.474  -8.129  1.00 92.18     0.060 A 
HETATM   20  C23   D T 801       5.034 -13.284  -7.984  1.00 88.35     0.006 A 
HETATM   21  C24   D T 801       4.486 -12.096  -8.405  1.00 86.43     0.022 A 
BRANCH  17  22
HETATM   22  O25   D T 801       1.232 -13.130  -9.718  1.00 91.30    -0.252 OA
BRANCH  22  23
HETATM   23  C36   D T 801       0.113 -13.257  -8.992  1.00 94.98     0.530 C 
HETATM   24  F37   D T 801      -0.299 -14.508  -8.875  1.00 94.67    -0.144 F 
HETATM   25  F38   D T 801      -0.897 -12.554  -9.473  1.00 98.40    -0.144 F 
HETATM   26  F39   D T 801       0.325 -12.809  -7.772  1.00 96.99    -0.144 F 
ENDBRANCH  22  23
ENDBRANCH  17  22
BRANCH  19  27
HETATM   27  C26   D T 801       4.992 -15.732  -7.653  1.00 96.79     0.275 C 
HETATM   28  N27   D T 801       4.477 -16.928  -8.106  1.00 99.53    -0.236 NA
HETATM   29  O28   D T 801       5.959 -15.664  -6.895  1.00 99.48    -0.266 OA
BRANCH  28  30
HETATM   30  C29   D T 801       5.183 -18.204  -7.941  1.00102.51     0.111 C 
HETATM   31  C30   D T 801       4.731 -18.923  -6.678  1.00104.02     0.060 C 
HETATM   32  C31   D T 801       5.459 -20.252  -6.541  1.00106.53     0.252 C 
HETATM   33  N32   D T 801       5.243 -21.104  -7.721  1.00109.08     0.139 N 
HETATM   34  C33   D T 801       5.693 -20.435  -8.952  1.00106.98     0.252 C 
HETATM   35  C35   D T 801       5.903 -22.423  -7.556  1.00111.30     0.285 C 
HETATM   36  C34   D T 801       4.977 -19.108  -9.150  1.00105.21     0.060 C 
ENDBRANCH  28  30
ENDBRANCH  19  27
ENDBRANCH  15  16
ENDBRANCH  13  15
BRANCH   7  37
HETATM   37  C8    D T 801      -4.112  -6.010  -9.375  1.00 82.40     0.298 C 
HETATM   38  N9    D T 801      -5.114  -6.499  -8.609  1.00 84.60    -0.207 NA
HETATM   39  O10   D T 801      -4.145  -4.918  -9.935  1.00 81.21    -0.263 OA
BRANCH  38  40
HETATM   40  C40   D T 801      -6.310  -5.825  -8.224  1.00 86.27     0.077 A 
HETATM   41  C41   D T 801      -6.307  -5.060  -7.049  1.00 87.01    -0.005 A 
HETATM   42  C42   D T 801      -7.495  -4.413  -6.694  1.00 88.25    -0.003 A 
HETATM   43  C43   D T 801      -8.627  -4.509  -7.473  1.00 88.58    -0.001 A 
HETATM   44  C44   D T 801      -8.604  -5.265  -8.624  1.00 87.85    -0.003 A 
HETATM   45  C45   D T 801      -7.450  -5.938  -9.035  1.00 86.05    -0.005 A 
BRANCH  41  46
HETATM   46  C48   D T 801      -5.090  -4.938  -6.156  1.00 86.36     0.028 C 
HETATM   47  C49   D T 801      -4.180  -3.771  -6.451  1.00 87.21     0.005 C 
ENDBRANCH  41  46
BRANCH  45  48
HETATM   48  C46   D T 801      -7.485  -6.751 -10.313  1.00 83.09     0.028 C 
HETATM   49  C47   D T 801      -7.156  -5.994 -11.581  1.00 82.23     0.005 C 
ENDBRANCH  45  48
ENDBRANCH  38  40
ENDBRANCH   7  37
TORSDOF 10
ENDMDL
MODEL 8
REMARK VINA RESULT:      -7.0      3.986      5.059
REMARK  10 active torsions:
REMARK  status: ('A' for Active; 'I' for Inactive)
REMARK    1  A    between atoms: C7_7  and  C8_8 
REMARK       I    between atoms: C8_8  and  N9_9 
REMARK    2  A    between atoms: N9_9  and  C40_40 
REMARK    3  A    between atoms: C16_16  and  N18_18 
REMARK    4  A    between atoms: N18_18  and  C19_19 
REMARK    5  A    between atoms: C20_20  and  O25_25 
REMARK    6  A    between atoms: C22_22  and  C26_26 
REMARK    7  A    between atoms: O25_25  and  C36_36 
REMARK       I    between atoms: C26_26  and  N27_27 
REMARK    8  A    between atoms: N27_27  and  C29_29 
REMARK    9  A    between atoms: C41_41  and  C48_48 
REMARK   10  A    between atoms: C45_45  and  C46_46 
ROOT
HETATM    1  C1    D T 801       1.903  -6.315 -12.852  1.00 74.99     0.034 C 
HETATM    2  C2    D T 801       2.679  -5.603 -11.759  1.00 74.87     0.034 C 
HETATM    3  C3    D T 801       2.117  -7.798 -12.861  1.00 77.80     0.021 A 
HETATM    4  C4    D T 801       2.648  -8.464 -11.783  1.00 79.05     0.094 A 
HETATM    5  N5    D T 801       2.690  -9.797 -12.117  1.00 81.59    -0.248 N 
HETATM    6  N6    D T 801       2.189  -9.995 -13.370  1.00 81.45    -0.165 NA
HETATM    7  C7    D T 801       1.836  -8.777 -13.813  1.00 80.71     0.156 A 
HETATM    8  C11   D T 801       3.168 -10.955 -11.363  1.00 82.60     0.154 C 
HETATM    9  C12   D T 801       3.093  -7.826 -10.621  1.00 77.18     0.114 A 
HETATM   10  C13   D T 801       3.134  -6.421 -10.583  1.00 75.62     0.018 A 
HETATM   11  C14   D T 801       3.615  -5.812  -9.427  1.00 74.52     0.115 A 
HETATM   12  N15   D T 801       4.037  -6.528  -8.388  1.00 75.06    -0.058 NA
HETATM   13  C16   D T 801       3.993  -7.869  -8.500  1.00 77.13     0.750 A 
HETATM   14  N17   D T 801       3.551  -8.532  -9.580  1.00 77.25    -0.058 NA
ENDROOT
BRANCH  13  15
HETATM   15  N18   D T 801       4.406  -8.646  -7.469  1.00 80.81    -0.057 NA
BRANCH  15  16
HETATM   16  C19   D T 801       4.651 -10.038  -7.443  1.00 85.48     0.122 A 
HETATM   17  C20   D T 801       3.680 -10.903  -6.915  1.00 89.67     0.120 A 
HETATM   18  C21   D T 801       3.936 -12.261  -6.905  1.00 92.22     0.031 A 
HETATM   19  C22   D T 801       5.138 -12.771  -7.393  1.00 92.18     0.060 A 
HETATM   20  C23   D T 801       6.092 -11.902  -7.909  1.00 88.35     0.006 A 
HETATM   21  C24   D T 801       5.857 -10.548  -7.939  1.00 86.43     0.022 A 
BRANCH  17  22
HETATM   22  O25   D T 801       2.521 -10.278  -6.461  1.00 91.30    -0.252 OA
BRANCH  22  23
HETATM   23  C36   D T 801       1.342 -10.499  -7.060  1.00 94.98     0.530 C 
HETATM   24  F37   D T 801       0.489  -9.498  -6.927  1.00 94.67    -0.144 F 
HETATM   25  F38   D T 801       0.740 -11.591  -6.625  1.00 98.40    -0.144 F 
HETATM   26  F39   D T 801       1.529 -10.673  -8.353  1.00 96.99    -0.144 F 
ENDBRANCH  22  23
ENDBRANCH  17  22
BRANCH  19  27
HETATM   27  C26   D T 801       5.459 -14.234  -7.397  1.00 96.79     0.275 C 
HETATM   28  N27   D T 801       4.461 -15.102  -7.784  1.00 99.53    -0.236 NA
HETATM   29  O28   D T 801       6.584 -14.613  -7.068  1.00 99.48    -0.266 OA
BRANCH  28  30
HETATM   30  C29   D T 801       4.716 -16.514  -8.090  1.00102.51     0.111 C 
HETATM   31  C30   D T 801       4.071 -17.427  -7.057  1.00104.02     0.060 C 
HETATM   32  C31   D T 801       4.330 -18.884  -7.409  1.00106.53     0.252 C 
HETATM   33  N32   D T 801       3.834 -19.205  -8.757  1.00109.08     0.139 N 
HETATM   34  C33   D T 801       4.462 -18.348  -9.774  1.00106.98     0.252 C 
HETATM   35  C35   D T 801       4.032 -20.641  -9.071  1.00111.30     0.285 C 
HETATM   36  C34   D T 801       4.213 -16.876  -9.483  1.00105.21     0.060 C 
ENDBRANCH  28  30
ENDBRANCH  19  27
ENDBRANCH  15  16
ENDBRANCH  13  15
BRANCH   7  37
HETATM   37  C8    D T 801       1.263  -8.609 -15.166  1.00 82.40     0.298 C 
HETATM   38  N9    D T 801       2.157  -8.328 -16.141  1.00 84.60    -0.207 NA
HETATM   39  O10   D T 801       0.052  -8.696 -15.347  1.00 81.21    -0.263 OA
BRANCH  38  40
HETATM   40  C40   D T 801       1.894  -8.194 -17.536  1.00 86.27     0.077 A 
HETATM   41  C41   D T 801       1.660  -6.914 -18.060  1.00 87.01    -0.005 A 
HETATM   42  C42   D T 801       1.401  -6.812 -19.430  1.00 88.25    -0.003 A 
HETATM   43  C43   D T 801       1.388  -7.923 -20.245  1.00 88.58    -0.001 A 
HETATM   44  C44   D T 801       1.623  -9.169 -19.707  1.00 87.85    -0.003 A 
HETATM   45  C45   D T 801       1.886  -9.341 -18.345  1.00 86.05    -0.005 A 
BRANCH  41  46
HETATM   46  C48   D T 801       1.652  -5.668 -17.199  1.00 86.36     0.028 C 
HETATM   47  C49   D T 801       2.941  -4.882 -17.178  1.00 87.21     0.005 C 
ENDBRANCH  41  46
BRANCH  45  48
HETATM   48  C46   D T 801       2.141 -10.737 -17.813  1.00 83.09     0.028 C 
HETATM   49  C47   D T 801       0.908 -11.533 -17.446  1.00 82.23     0.005 C 
ENDBRANCH  45  48
ENDBRANCH  38  40
ENDBRANCH   7  37
TORSDOF 10
ENDMDL
MODEL 9
REMARK VINA RESULT:      -6.9      8.383     13.414
REMARK  10 active torsions:
REMARK  status: ('A' for Active; 'I' for Inactive)
REMARK    1  A    between atoms: C7_7  and  C8_8 
REMARK       I    between atoms: C8_8  and  N9_9 
REMARK    2  A    between atoms: N9_9  and  C40_40 
REMARK    3  A    between atoms: C16_16  and  N18_18 
REMARK    4  A    between atoms: N18_18  and  C19_19 
REMARK    5  A    between atoms: C20_20  and  O25_25 
REMARK    6  A    between atoms: C22_22  and  C26_26 
REMARK    7  A    between atoms: O25_25  and  C36_36 
REMARK       I    between atoms: C26_26  and  N27_27 
REMARK    8  A    between atoms: N27_27  and  C29_29 
REMARK    9  A    between atoms: C41_41  and  C48_48 
REMARK   10  A    between atoms: C45_45  and  C46_46 
ROOT
HETATM    1  C1    D T 801      -2.142  -8.651  -9.718  1.00 74.99     0.034 C 
HETATM    2  C2    D T 801      -0.655  -8.921  -9.859  1.00 74.87     0.034 C 
HETATM    3  C3    D T 801      -2.788  -8.210 -10.996  1.00 77.80     0.021 A 
HETATM    4  C4    D T 801      -2.186  -8.393 -12.218  1.00 79.05     0.094 A 
HETATM    5  N5    D T 801      -3.047  -7.896 -13.167  1.00 81.59    -0.248 N 
HETATM    6  N6    D T 801      -4.183  -7.416 -12.582  1.00 81.45    -0.165 NA
HETATM    7  C7    D T 801      -4.021  -7.616 -11.264  1.00 80.71     0.156 A 
HETATM    8  C11   D T 801      -2.922  -7.816 -14.621  1.00 82.60     0.154 C 
HETATM    9  C12   D T 801      -0.909  -8.937 -12.378  1.00 77.18     0.114 A 
HETATM   10  C13   D T 801      -0.125  -9.195 -11.238  1.00 75.62     0.018 A 
HETATM   11  C14   D T 801       1.157  -9.704 -11.428  1.00 74.52     0.115 A 
HETATM   12  N15   D T 801       1.641  -9.932 -12.646  1.00 75.06    -0.058 NA
HETATM   13  C16   D T 801       0.847  -9.641 -13.694  1.00 77.13     0.750 A 
HETATM   14  N17   D T 801      -0.395  -9.143 -13.597  1.00 77.25    -0.058 NA
ENDROOT
BRANCH  13  15
HETATM   15  N18   D T 801       1.289  -9.860 -14.956  1.00 80.81    -0.057 NA
BRANCH  15  16
HETATM   16  C19   D T 801       1.328  -8.970 -16.055  1.00 85.48     0.122 A 
HETATM   17  C20   D T 801       0.502  -9.206 -17.165  1.00 89.67     0.120 A 
HETATM   18  C21   D T 801       0.550  -8.322 -18.226  1.00 92.22     0.031 A 
HETATM   19  C22   D T 801       1.408  -7.222 -18.211  1.00 92.18     0.060 A 
HETATM   20  C23   D T 801       2.222  -7.005 -17.106  1.00 88.35     0.006 A 
HETATM   21  C24   D T 801       2.186  -7.865 -16.034  1.00 86.43     0.022 A 
BRANCH  17  22
HETATM   22  O25   D T 801      -0.312 -10.331 -17.065  1.00 91.30    -0.252 OA
BRANCH  22  23
HETATM   23  C36   D T 801      -0.055 -11.431 -17.787  1.00 94.98     0.530 C 
HETATM   24  F37   D T 801      -0.563 -12.534 -17.264  1.00 94.67    -0.144 F 
HETATM   25  F38   D T 801       1.237 -11.639 -17.967  1.00 98.40    -0.144 F 
HETATM   26  F39   D T 801      -0.578 -11.301 -18.989  1.00 96.99    -0.144 F 
ENDBRANCH  22  23
ENDBRANCH  17  22
BRANCH  19  27
HETATM   27  C26   D T 801       1.496  -6.242 -19.340  1.00 96.79     0.275 C 
HETATM   28  N27   D T 801       1.775  -6.743 -20.593  1.00 99.53    -0.236 NA
HETATM   29  O28   D T 801       1.313  -5.044 -19.124  1.00 99.48    -0.266 OA
BRANCH  28  30
HETATM   30  C29   D T 801       1.623  -5.944 -21.815  1.00102.51     0.111 C 
HETATM   31  C30   D T 801       2.872  -6.019 -22.681  1.00104.02     0.060 C 
HETATM   32  C31   D T 801       2.682  -5.203 -23.950  1.00106.53     0.252 C 
HETATM   33  N32   D T 801       1.505  -5.659 -24.708  1.00109.08     0.139 N 
HETATM   34  C33   D T 801       0.282  -5.574 -23.895  1.00106.98     0.252 C 
HETATM   35  C35   D T 801       1.360  -4.902 -25.975  1.00111.30     0.285 C 
HETATM   36  C34   D T 801       0.410  -6.394 -22.620  1.00105.21     0.060 C 
ENDBRANCH  28  30
ENDBRANCH  19  27
ENDBRANCH  15  16
ENDBRANCH  13  15
BRANCH   7  37
HETATM   37  C8    D T 801      -5.067  -7.194 -10.307  1.00 82.40     0.298 C 
HETATM   38  N9    D T 801      -4.728  -6.161  -9.502  1.00 84.60    -0.207 NA
HETATM   39  O10   D T 801      -6.144  -7.781 -10.257  1.00 81.21    -0.263 OA
BRANCH  38  40
HETATM   40  C40   D T 801      -5.562  -5.505  -8.549  1.00 86.27     0.077 A 
HETATM   41  C41   D T 801      -6.380  -4.450  -8.979  1.00 87.01    -0.005 A 
HETATM   42  C42   D T 801      -7.184  -3.822  -8.023  1.00 88.25    -0.003 A 
HETATM   43  C43   D T 801      -7.188  -4.229  -6.707  1.00 88.58    -0.001 A 
HETATM   44  C44   D T 801      -6.378  -5.269  -6.309  1.00 87.85    -0.003 A 
HETATM   45  C45   D T 801      -5.548  -5.939  -7.213  1.00 86.05    -0.005 A 
BRANCH  41  46
HETATM   46  C48   D T 801      -6.397  -3.962 -10.413  1.00 86.36     0.028 C 
HETATM   47  C49   D T 801      -7.503  -4.517 -11.277  1.00 87.21     0.005 C 
ENDBRANCH  41  46
BRANCH  45  48
HETATM   48  C46   D T 801      -4.682  -7.078  -6.717  1.00 83.09     0.028 C 
HETATM   49  C47   D T 801      -3.264  -6.708  -6.343  1.00 82.23     0.005 C 
ENDBRANCH  45  48
ENDBRANCH  38  40
ENDBRANCH   7  37
TORSDOF 10
ENDMDL
