MODEL 1
REMARK VINA RESULT:    -9.201      0.000      0.000
REMARK INTER + INTRA:         -16.457
REMARK INTER:                 -14.580
REMARK INTRA:                  -1.878
REMARK UNBOUND:                -1.878
REMARK  10 active torsions:
REMARK  status: ('A' for Active; 'I' for Inactive)
REMARK    1  A    between atoms: C7_7  and  C8_8 
REMARK       I    between atoms: C8_8  and  N9_9 
REMARK    2  A    between atoms: N9_9  and  C40_40 
REMARK    3  A    between atoms: C16_16  and  N18_18 
REMARK    4  A    between atoms: N18_18  and  C19_19 
REMARK    5  A    between atoms: C20_20  and  O25_25 
REMARK    6  A    between atoms: C22_22  and  C26_26 
REMARK    7  A    between atoms: O25_25  and  C36_36 
REMARK       I    between atoms: C26_26  and  N27_27 
REMARK    8  A    between atoms: N27_27  and  C29_29 
REMARK    9  A    between atoms: C41_41  and  C48_48 
REMARK   10  A    between atoms: C45_45  and  C46_46 
ROOT
HETATM    1  C1    D T 801       8.262  -6.430  -5.788  1.00 74.99     0.034 C 
HETATM    2  C2    D T 801       6.979  -5.712  -5.408  1.00 74.87     0.034 C 
HETATM    3  C3    D T 801       8.027  -7.742  -6.471  1.00 77.80     0.021 A 
HETATM    4  C4    D T 801       6.810  -8.070  -7.019  1.00 79.05     0.094 A 
HETATM    5  N5    D T 801       6.946  -9.321  -7.573  1.00 81.59    -0.248 N 
HETATM    6  N6    D T 801       8.217  -9.787  -7.403  1.00 81.45    -0.165 NA
HETATM    7  C7    D T 801       8.869  -8.820  -6.738  1.00 80.71     0.156 A 
HETATM    8  C11   D T 801       5.979 -10.165  -8.273  1.00 82.60     0.154 C 
HETATM    9  C12   D T 801       5.678  -7.255  -6.936  1.00 77.18     0.114 A 
HETATM   10  C13   D T 801       5.724  -6.097  -6.140  1.00 75.62     0.018 A 
HETATM   11  C14   D T 801       4.571  -5.321  -6.046  1.00 74.52     0.115 A 
HETATM   12  N15   D T 801       3.450  -5.664  -6.676  1.00 75.06    -0.058 NA
HETATM   13  C16   D T 801       3.468  -6.798  -7.402  1.00 77.13     0.750 A 
HETATM   14  N17   D T 801       4.533  -7.603  -7.537  1.00 77.25    -0.058 NA
ENDROOT
BRANCH  13  15
HETATM   15  N18   D T 801       2.355  -7.190  -8.067  1.00 80.81    -0.057 NA
BRANCH  15  16
HETATM   16  C19   D T 801       1.000  -7.109  -7.668  1.00 85.48     0.122 A 
HETATM   17  C20   D T 801       0.542  -7.906  -6.608  1.00 89.67     0.120 A 
HETATM   18  C21   D T 801      -0.783  -7.807  -6.229  1.00 92.22     0.031 A 
HETATM   19  C22   D T 801      -1.660  -6.946  -6.888  1.00 92.18     0.060 A 
HETATM   20  C23   D T 801      -1.192  -6.166  -7.938  1.00 88.35     0.006 A 
HETATM   21  C24   D T 801       0.125  -6.239  -8.328  1.00 86.43     0.022 A 
BRANCH  17  22
HETATM   22  O25   D T 801       1.508  -8.723  -6.026  1.00 91.30    -0.252 OA
BRANCH  22  23
HETATM   23  C36   D T 801       1.396 -10.058  -6.071  1.00 94.98     0.530 C 
HETATM   24  F37   D T 801       0.655 -10.556  -5.096  1.00 94.67    -0.144 F 
HETATM   25  F38   D T 801       2.563 -10.675  -6.034  1.00 98.40    -0.144 F 
HETATM   26  F39   D T 801       0.827 -10.415  -7.205  1.00 96.99    -0.144 F 
ENDBRANCH  22  23
ENDBRANCH  17  22
BRANCH  19  27
HETATM   27  C26   D T 801      -3.104  -6.811  -6.514  1.00 96.79     0.275 C 
HETATM   28  N27   D T 801      -3.864  -5.915  -7.235  1.00 99.53    -0.236 NA
HETATM   29  O28   D T 801      -3.563  -7.493  -5.598  1.00 99.48    -0.266 OA
BRANCH  28  30
HETATM   30  C29   D T 801      -5.329  -5.882  -7.158  1.00102.51     0.111 C 
HETATM   31  C30   D T 801      -5.820  -4.553  -6.603  1.00104.02     0.060 C 
HETATM   32  C31   D T 801      -7.341  -4.533  -6.554  1.00106.53     0.252 C 
HETATM   33  N32   D T 801      -7.922  -4.779  -7.884  1.00109.08     0.139 N 
HETATM   34  C33   D T 801      -7.476  -6.070  -8.430  1.00106.98     0.252 C 
HETATM   35  C35   D T 801      -9.403  -4.697  -7.844  1.00111.30     0.285 C 
HETATM   36  C34   D T 801      -5.959  -6.134  -8.523  1.00105.21     0.060 C 
ENDBRANCH  28  30
ENDBRANCH  19  27
ENDBRANCH  15  16
ENDBRANCH  13  15
BRANCH   7  37
HETATM   37  C8    D T 801      10.289  -8.995  -6.362  1.00 82.40     0.298 C 
HETATM   38  N9    D T 801      10.526  -9.091  -5.034  1.00 84.60    -0.207 NA
HETATM   39  O10   D T 801      11.165  -9.020  -7.221  1.00 81.21    -0.263 OA
BRANCH  38  40
HETATM   40  C40   D T 801      11.779  -9.339  -4.400  1.00 86.27     0.077 A 
HETATM   41  C41   D T 801      12.712  -8.295  -4.315  1.00 87.01    -0.005 A 
HETATM   42  C42   D T 801      13.933  -8.567  -3.692  1.00 88.25    -0.003 A 
HETATM   43  C43   D T 801      14.212  -9.810  -3.166  1.00 88.58    -0.001 A 
HETATM   44  C44   D T 801      13.278 -10.819  -3.261  1.00 87.85    -0.003 A 
HETATM   45  C45   D T 801      12.039 -10.614  -3.872  1.00 86.05    -0.005 A 
BRANCH  41  46
HETATM   46  C48   D T 801      12.453  -6.918  -4.890  1.00 86.36     0.028 C 
HETATM   47  C49   D T 801      13.564  -6.344  -5.735  1.00 87.21     0.005 C 
ENDBRANCH  41  46
BRANCH  45  48
HETATM   48  C46   D T 801      11.051 -11.761  -3.942  1.00 83.09     0.028 C 
HETATM   49  C47   D T 801      10.161 -11.934  -2.732  1.00 82.23     0.005 C 
ENDBRANCH  45  48
ENDBRANCH  38  40
ENDBRANCH   7  37
TORSDOF 10
ENDMDL
MODEL 2
REMARK VINA RESULT:    -9.190      3.854      5.984
REMARK INTER + INTRA:         -16.440
REMARK INTER:                 -14.230
REMARK INTRA:                  -2.210
REMARK UNBOUND:                -1.878
REMARK  10 active torsions:
REMARK  status: ('A' for Active; 'I' for Inactive)
REMARK    1  A    between atoms: C7_7  and  C8_8 
REMARK       I    between atoms: C8_8  and  N9_9 
REMARK    2  A    between atoms: N9_9  and  C40_40 
REMARK    3  A    between atoms: C16_16  and  N18_18 
REMARK    4  A    between atoms: N18_18  and  C19_19 
REMARK    5  A    between atoms: C20_20  and  O25_25 
REMARK    6  A    between atoms: C22_22  and  C26_26 
REMARK    7  A    between atoms: O25_25  and  C36_36 
REMARK       I    between atoms: C26_26  and  N27_27 
REMARK    8  A    between atoms: N27_27  and  C29_29 
REMARK    9  A    between atoms: C41_41  and  C48_48 
REMARK   10  A    between atoms: C45_45  and  C46_46 
ROOT
HETATM    1  C1    D T 801       8.880  -5.832  -6.598  1.00 74.99     0.034 C 
HETATM    2  C2    D T 801       7.843  -4.730  -6.470  1.00 74.87     0.034 C 
HETATM    3  C3    D T 801       8.284  -7.178  -6.878  1.00 77.80     0.021 A 
HETATM    4  C4    D T 801       6.996  -7.323  -7.334  1.00 79.05     0.094 A 
HETATM    5  N5    D T 801       6.780  -8.671  -7.500  1.00 81.59    -0.248 N 
HETATM    6  N6    D T 801       7.899  -9.380  -7.175  1.00 81.45    -0.165 NA
HETATM    7  C7    D T 801       8.810  -8.466  -6.804  1.00 80.71     0.156 A 
HETATM    8  C11   D T 801       5.594  -9.399  -7.947  1.00 82.60     0.154 C 
HETATM    9  C12   D T 801       6.112  -6.255  -7.515  1.00 77.18     0.114 A 
HETATM   10  C13   D T 801       6.494  -4.970  -7.087  1.00 75.62     0.018 A 
HETATM   11  C14   D T 801       5.581  -3.930  -7.247  1.00 74.52     0.115 A 
HETATM   12  N15   D T 801       4.377  -4.137  -7.774  1.00 75.06    -0.058 NA
HETATM   13  C16   D T 801       4.068  -5.395  -8.141  1.00 77.13     0.750 A 
HETATM   14  N17   D T 801       4.887  -6.452  -8.014  1.00 77.25    -0.058 NA
ENDROOT
BRANCH  13  15
HETATM   15  N18   D T 801       2.858  -5.659  -8.689  1.00 80.81    -0.057 NA
BRANCH  15  16
HETATM   16  C19   D T 801       2.365  -6.873  -9.222  1.00 85.48     0.122 A 
HETATM   17  C20   D T 801       1.330  -7.551  -8.559  1.00 89.67     0.120 A 
HETATM   18  C21   D T 801       0.858  -8.732  -9.100  1.00 92.22     0.031 A 
HETATM   19  C22   D T 801       1.400  -9.255 -10.273  1.00 92.18     0.060 A 
HETATM   20  C23   D T 801       2.426  -8.574 -10.916  1.00 88.35     0.006 A 
HETATM   21  C24   D T 801       2.907  -7.392 -10.403  1.00 86.43     0.022 A 
BRANCH  17  22
HETATM   22  O25   D T 801       0.868  -6.931  -7.400  1.00 91.30    -0.252 OA
BRANCH  22  23
HETATM   23  C36   D T 801       1.115  -7.460  -6.194  1.00 94.98     0.530 C 
HETATM   24  F37   D T 801       2.265  -8.109  -6.130  1.00 94.67    -0.144 F 
HETATM   25  F38   D T 801       0.170  -8.292  -5.793  1.00 98.40    -0.144 F 
HETATM   26  F39   D T 801       1.166  -6.500  -5.293  1.00 96.99    -0.144 F 
ENDBRANCH  22  23
ENDBRANCH  17  22
BRANCH  19  27
HETATM   27  C26   D T 801       0.922 -10.533 -10.892  1.00 96.79     0.275 C 
HETATM   28  N27   D T 801       0.817 -10.571 -12.265  1.00 99.53    -0.236 NA
HETATM   29  O28   D T 801       0.650 -11.494 -10.173  1.00 99.48    -0.266 OA
BRANCH  28  30
HETATM   30  C29   D T 801       0.628 -11.823 -13.008  1.00102.51     0.111 C 
HETATM   31  C30   D T 801      -0.099 -11.578 -14.323  1.00104.02     0.060 C 
HETATM   32  C31   D T 801      -0.263 -12.885 -15.084  1.00106.53     0.252 C 
HETATM   33  N32   D T 801       1.039 -13.528 -15.329  1.00109.08     0.139 N 
HETATM   34  C33   D T 801       1.749 -13.793 -14.068  1.00106.98     0.252 C 
HETATM   35  C35   D T 801       0.880 -14.770 -16.126  1.00111.30     0.285 C 
HETATM   36  C34   D T 801       1.960 -12.512 -13.276  1.00105.21     0.060 C 
ENDBRANCH  28  30
ENDBRANCH  19  27
ENDBRANCH  15  16
ENDBRANCH  13  15
BRANCH   7  37
HETATM   37  C8    D T 801      10.157  -8.887  -6.362  1.00 82.40     0.298 C 
HETATM   38  N9    D T 801      10.429  -8.672  -5.055  1.00 84.60    -0.207 NA
HETATM   39  O10   D T 801      10.956  -9.368  -7.161  1.00 81.21    -0.263 OA
BRANCH  38  40
HETATM   40  C40   D T 801      11.610  -9.047  -4.349  1.00 86.27     0.077 A 
HETATM   41  C41   D T 801      11.619 -10.258  -3.642  1.00 87.01    -0.005 A 
HETATM   42  C42   D T 801      12.788 -10.600  -2.956  1.00 88.25    -0.003 A 
HETATM   43  C43   D T 801      13.900  -9.787  -2.980  1.00 88.58    -0.001 A 
HETATM   44  C44   D T 801      13.868  -8.603  -3.684  1.00 87.85    -0.003 A 
HETATM   45  C45   D T 801      12.730  -8.202  -4.390  1.00 86.05    -0.005 A 
BRANCH  41  46
HETATM   46  C48   D T 801      10.415 -11.176  -3.578  1.00 86.36     0.028 C 
HETATM   47  C49   D T 801      10.223 -11.909  -2.272  1.00 87.21     0.005 C 
ENDBRANCH  41  46
BRANCH  45  48
HETATM   48  C46   D T 801      12.756  -6.891  -5.148  1.00 83.09     0.028 C 
HETATM   49  C47   D T 801      13.953  -6.678  -6.049  1.00 82.23     0.005 C 
ENDBRANCH  45  48
ENDBRANCH  38  40
ENDBRANCH   7  37
TORSDOF 10
ENDMDL
MODEL 3
REMARK VINA RESULT:    -9.164      3.947      5.728
REMARK INTER + INTRA:         -16.399
REMARK INTER:                 -14.173
REMARK INTRA:                  -2.226
REMARK UNBOUND:                -1.878
REMARK  10 active torsions:
REMARK  status: ('A' for Active; 'I' for Inactive)
REMARK    1  A    between atoms: C7_7  and  C8_8 
REMARK       I    between atoms: C8_8  and  N9_9 
REMARK    2  A    between atoms: N9_9  and  C40_40 
REMARK    3  A    between atoms: C16_16  and  N18_18 
REMARK    4  A    between atoms: N18_18  and  C19_19 
REMARK    5  A    between atoms: C20_20  and  O25_25 
REMARK    6  A    between atoms: C22_22  and  C26_26 
REMARK    7  A    between atoms: O25_25  and  C36_36 
REMARK       I    between atoms: C26_26  and  N27_27 
REMARK    8  A    between atoms: N27_27  and  C29_29 
REMARK    9  A    between atoms: C41_41  and  C48_48 
REMARK   10  A    between atoms: C45_45  and  C46_46 
ROOT
HETATM    1  C1    D T 801       8.932  -5.904  -6.680  1.00 74.99     0.034 C 
HETATM    2  C2    D T 801       7.921  -4.775  -6.591  1.00 74.87     0.034 C 
HETATM    3  C3    D T 801       8.308  -7.241  -6.941  1.00 77.80     0.021 A 
HETATM    4  C4    D T 801       7.024  -7.364  -7.414  1.00 79.05     0.094 A 
HETATM    5  N5    D T 801       6.777  -8.710  -7.556  1.00 81.59    -0.248 N 
HETATM    6  N6    D T 801       7.874  -9.439  -7.199  1.00 81.45    -0.165 NA
HETATM    7  C7    D T 801       8.801  -8.540  -6.833  1.00 80.71     0.156 A 
HETATM    8  C11   D T 801       5.581  -9.419  -8.006  1.00 82.60     0.154 C 
HETATM    9  C12   D T 801       6.169  -6.279  -7.630  1.00 77.18     0.114 A 
HETATM   10  C13   D T 801       6.576  -4.996  -7.223  1.00 75.62     0.018 A 
HETATM   11  C14   D T 801       5.691  -3.937  -7.418  1.00 74.52     0.115 A 
HETATM   12  N15   D T 801       4.490  -4.126  -7.960  1.00 75.06    -0.058 NA
HETATM   13  C16   D T 801       4.156  -5.384  -8.305  1.00 77.13     0.750 A 
HETATM   14  N17   D T 801       4.947  -6.457  -8.145  1.00 77.25    -0.058 NA
ENDROOT
BRANCH  13  15
HETATM   15  N18   D T 801       2.948  -5.630  -8.866  1.00 80.81    -0.057 NA
BRANCH  15  16
HETATM   16  C19   D T 801       2.437  -6.840  -9.392  1.00 85.48     0.122 A 
HETATM   17  C20   D T 801       1.408  -7.510  -8.713  1.00 89.67     0.120 A 
HETATM   18  C21   D T 801       0.918  -8.687  -9.247  1.00 92.22     0.031 A 
HETATM   19  C22   D T 801       1.438  -9.215 -10.428  1.00 92.18     0.060 A 
HETATM   20  C23   D T 801       2.460  -8.542 -11.086  1.00 88.35     0.006 A 
HETATM   21  C24   D T 801       2.958  -7.364 -10.581  1.00 86.43     0.022 A 
BRANCH  17  22
HETATM   22  O25   D T 801       0.968  -6.886  -7.548  1.00 91.30    -0.252 OA
BRANCH  22  23
HETATM   23  C36   D T 801       1.428  -7.269  -6.349  1.00 94.98     0.530 C 
HETATM   24  F37   D T 801       1.601  -6.265  -5.507  1.00 94.67    -0.144 F 
HETATM   25  F38   D T 801       2.573  -7.924  -6.421  1.00 98.40    -0.144 F 
HETATM   26  F39   D T 801       0.567  -8.094  -5.789  1.00 96.99    -0.144 F 
ENDBRANCH  22  23
ENDBRANCH  17  22
BRANCH  19  27
HETATM   27  C26   D T 801       0.942 -10.489 -11.038  1.00 96.79     0.275 C 
HETATM   28  N27   D T 801       0.988 -10.594 -12.412  1.00 99.53    -0.236 NA
HETATM   29  O28   D T 801       0.522 -11.390 -10.312  1.00 99.48    -0.266 OA
BRANCH  28  30
HETATM   30  C29   D T 801       0.792 -11.868 -13.113  1.00102.51     0.111 C 
HETATM   31  C30   D T 801      -0.074 -11.686 -14.352  1.00104.02     0.060 C 
HETATM   32  C31   D T 801      -0.243 -13.015 -15.074  1.00106.53     0.252 C 
HETATM   33  N32   D T 801       1.060 -13.594 -15.440  1.00109.08     0.139 N 
HETATM   34  C33   D T 801       1.905 -13.797 -14.254  1.00106.98     0.252 C 
HETATM   35  C35   D T 801       0.888 -14.857 -16.199  1.00111.30     0.285 C 
HETATM   36  C34   D T 801       2.127 -12.492 -13.505  1.00105.21     0.060 C 
ENDBRANCH  28  30
ENDBRANCH  19  27
ENDBRANCH  15  16
ENDBRANCH  13  15
BRANCH   7  37
HETATM   37  C8    D T 801      10.131  -8.984  -6.362  1.00 82.40     0.298 C 
HETATM   38  N9    D T 801      10.417  -8.683  -5.075  1.00 84.60    -0.207 NA
HETATM   39  O10   D T 801      10.905  -9.557  -7.123  1.00 81.21    -0.263 OA
BRANCH  38  40
HETATM   40  C40   D T 801      11.584  -9.055  -4.344  1.00 86.27     0.077 A 
HETATM   41  C41   D T 801      12.693  -8.197  -4.358  1.00 87.01    -0.005 A 
HETATM   42  C42   D T 801      13.824  -8.587  -3.636  1.00 88.25    -0.003 A 
HETATM   43  C43   D T 801      13.851  -9.767  -2.923  1.00 88.58    -0.001 A 
HETATM   44  C44   D T 801      12.748 -10.592  -2.923  1.00 87.85    -0.003 A 
HETATM   45  C45   D T 801      11.586 -10.261  -3.625  1.00 86.05    -0.005 A 
BRANCH  41  46
HETATM   46  C48   D T 801      12.711  -6.898  -5.138  1.00 86.36     0.028 C 
HETATM   47  C49   D T 801      13.960  -6.640  -5.944  1.00 87.21     0.005 C 
ENDBRANCH  41  46
BRANCH  45  48
HETATM   48  C46   D T 801      10.404 -11.208  -3.584  1.00 83.09     0.028 C 
HETATM   49  C47   D T 801      10.156 -11.889  -2.256  1.00 82.23     0.005 C 
ENDBRANCH  45  48
ENDBRANCH  38  40
ENDBRANCH   7  37
TORSDOF 10
ENDMDL
MODEL 4
REMARK VINA RESULT:    -9.057      6.678      8.248
REMARK INTER + INTRA:         -16.229
REMARK INTER:                 -14.301
REMARK INTRA:                  -1.929
REMARK UNBOUND:                -1.878
REMARK  10 active torsions:
REMARK  status: ('A' for Active; 'I' for Inactive)
REMARK    1  A    between atoms: C7_7  and  C8_8 
REMARK       I    between atoms: C8_8  and  N9_9 
REMARK    2  A    between atoms: N9_9  and  C40_40 
REMARK    3  A    between atoms: C16_16  and  N18_18 
REMARK    4  A    between atoms: N18_18  and  C19_19 
REMARK    5  A    between atoms: C20_20  and  O25_25 
REMARK    6  A    between atoms: C22_22  and  C26_26 
REMARK    7  A    between atoms: O25_25  and  C36_36 
REMARK       I    between atoms: C26_26  and  N27_27 
REMARK    8  A    between atoms: N27_27  and  C29_29 
REMARK    9  A    between atoms: C41_41  and  C48_48 
REMARK   10  A    between atoms: C45_45  and  C46_46 
ROOT
HETATM    1  C1    D T 801       9.496 -13.186  -5.255  1.00 74.99     0.034 C 
HETATM    2  C2    D T 801       9.182 -14.666  -5.387  1.00 74.87     0.034 C 
HETATM    3  C3    D T 801       8.853 -12.346  -6.316  1.00 77.80     0.021 A 
HETATM    4  C4    D T 801       7.811 -12.812  -7.081  1.00 79.05     0.094 A 
HETATM    5  N5    D T 801       7.454 -11.793  -7.932  1.00 81.59    -0.248 N 
HETATM    6  N6    D T 801       8.231 -10.693  -7.718  1.00 81.45    -0.165 NA
HETATM    7  C7    D T 801       9.075 -11.034  -6.731  1.00 80.71     0.156 A 
HETATM    8  C11   D T 801       6.423 -11.731  -8.968  1.00 82.60     0.154 C 
HETATM    9  C12   D T 801       7.303 -14.111  -6.991  1.00 77.18     0.114 A 
HETATM   10  C13   D T 801       7.963 -15.050  -6.178  1.00 75.62     0.018 A 
HETATM   11  C14   D T 801       7.457 -16.347  -6.133  1.00 74.52     0.115 A 
HETATM   12  N15   D T 801       6.389 -16.701  -6.845  1.00 75.06    -0.058 NA
HETATM   13  C16   D T 801       5.820 -15.759  -7.620  1.00 77.13     0.750 A 
HETATM   14  N17   D T 801       6.249 -14.491  -7.723  1.00 77.25    -0.058 NA
ENDROOT
BRANCH  13  15
HETATM   15  N18   D T 801       4.727 -16.065  -8.359  1.00 80.81    -0.057 NA
BRANCH  15  16
HETATM   16  C19   D T 801       3.454 -16.508  -7.931  1.00 85.48     0.122 A 
HETATM   17  C20   D T 801       2.299 -15.962  -8.512  1.00 89.67     0.120 A 
HETATM   18  C21   D T 801       1.065 -16.413  -8.085  1.00 92.22     0.031 A 
HETATM   19  C22   D T 801       0.957 -17.381  -7.087  1.00 92.18     0.060 A 
HETATM   20  C23   D T 801       2.109 -17.909  -6.518  1.00 88.35     0.006 A 
HETATM   21  C24   D T 801       3.349 -17.484  -6.933  1.00 86.43     0.022 A 
BRANCH  17  22
HETATM   22  O25   D T 801       2.533 -15.007  -9.499  1.00 91.30    -0.252 OA
BRANCH  22  23
HETATM   23  C36   D T 801       2.335 -13.704  -9.253  1.00 94.98     0.530 C 
HETATM   24  F37   D T 801       1.195 -13.245  -9.741  1.00 94.67    -0.144 F 
HETATM   25  F38   D T 801       3.302 -12.938  -9.725  1.00 98.40    -0.144 F 
HETATM   26  F39   D T 801       2.304 -13.500  -7.952  1.00 96.99    -0.144 F 
ENDBRANCH  22  23
ENDBRANCH  17  22
BRANCH  19  27
HETATM   27  C26   D T 801      -0.359 -17.895  -6.590  1.00 96.79     0.275 C 
HETATM   28  N27   D T 801      -1.493 -17.488  -7.261  1.00 99.53    -0.236 NA
HETATM   29  O28   D T 801      -0.392 -18.655  -5.622  1.00 99.48    -0.266 OA
BRANCH  28  30
HETATM   30  C29   D T 801      -2.801 -18.120  -7.055  1.00102.51     0.111 C 
HETATM   31  C30   D T 801      -3.853 -17.091  -6.666  1.00104.02     0.060 C 
HETATM   32  C31   D T 801      -5.205 -17.766  -6.481  1.00106.53     0.252 C 
HETATM   33  N32   D T 801      -5.615 -18.483  -7.699  1.00109.08     0.139 N 
HETATM   34  C33   D T 801      -4.621 -19.497  -8.082  1.00106.98     0.252 C 
HETATM   35  C35   D T 801      -6.961 -19.086  -7.536  1.00111.30     0.285 C 
HETATM   36  C34   D T 801      -3.253 -18.871  -8.303  1.00105.21     0.060 C 
ENDBRANCH  28  30
ENDBRANCH  19  27
ENDBRANCH  15  16
ENDBRANCH  13  15
BRANCH   7  37
HETATM   37  C8    D T 801      10.088 -10.073  -6.245  1.00 82.40     0.298 C 
HETATM   38  N9    D T 801      10.126  -9.903  -4.903  1.00 84.60    -0.207 NA
HETATM   39  O10   D T 801      10.809  -9.470  -7.035  1.00 81.21    -0.263 OA
BRANCH  38  40
HETATM   40  C40   D T 801      11.047  -9.105  -4.163  1.00 86.27     0.077 A 
HETATM   41  C41   D T 801      10.763  -7.744  -3.975  1.00 87.01    -0.005 A 
HETATM   42  C42   D T 801      11.684  -6.984  -3.249  1.00 88.25    -0.003 A 
HETATM   43  C43   D T 801      12.827  -7.548  -2.723  1.00 88.58    -0.001 A 
HETATM   44  C44   D T 801      13.082  -8.887  -2.920  1.00 87.85    -0.003 A 
HETATM   45  C45   D T 801      12.203  -9.703  -3.638  1.00 86.05    -0.005 A 
BRANCH  41  46
HETATM   46  C48   D T 801       9.526  -7.081  -4.546  1.00 86.36     0.028 C 
HETATM   47  C49   D T 801       9.742  -6.269  -5.800  1.00 87.21     0.005 C 
ENDBRANCH  41  46
BRANCH  45  48
HETATM   48  C46   D T 801      12.537 -11.169  -3.818  1.00 83.09     0.028 C 
HETATM   49  C47   D T 801      13.946 -11.572  -3.441  1.00 82.23     0.005 C 
ENDBRANCH  45  48
ENDBRANCH  38  40
ENDBRANCH   7  37
TORSDOF 10
ENDMDL
MODEL 5
REMARK VINA RESULT:    -8.831      5.594     13.411
REMARK INTER + INTRA:         -15.872
REMARK INTER:                 -13.711
REMARK INTRA:                  -2.161
REMARK UNBOUND:                -1.878
REMARK  10 active torsions:
REMARK  status: ('A' for Active; 'I' for Inactive)
REMARK    1  A    between atoms: C7_7  and  C8_8 
REMARK       I    between atoms: C8_8  and  N9_9 
REMARK    2  A    between atoms: N9_9  and  C40_40 
REMARK    3  A    between atoms: C16_16  and  N18_18 
REMARK    4  A    between atoms: N18_18  and  C19_19 
REMARK    5  A    between atoms: C20_20  and  O25_25 
REMARK    6  A    between atoms: C22_22  and  C26_26 
REMARK    7  A    between atoms: O25_25  and  C36_36 
REMARK       I    between atoms: C26_26  and  N27_27 
REMARK    8  A    between atoms: N27_27  and  C29_29 
REMARK    9  A    between atoms: C41_41  and  C48_48 
REMARK   10  A    between atoms: C45_45  and  C46_46 
ROOT
HETATM    1  C1    D T 801       1.572 -10.016 -11.223  1.00 74.99     0.034 C 
HETATM    2  C2    D T 801       1.764 -10.126  -9.722  1.00 74.87     0.034 C 
HETATM    3  C3    D T 801       1.982  -8.686 -11.778  1.00 77.80     0.021 A 
HETATM    4  C4    D T 801       2.781  -7.818 -11.073  1.00 79.05     0.094 A 
HETATM    5  N5    D T 801       2.975  -6.715 -11.871  1.00 81.59    -0.248 N 
HETATM    6  N6    D T 801       2.333  -6.867 -13.065  1.00 81.45    -0.165 NA
HETATM    7  C7    D T 801       1.738  -8.069 -13.004  1.00 80.71     0.156 A 
HETATM    8  C11   D T 801       3.725  -5.483 -11.631  1.00 82.60     0.154 C 
HETATM    9  C12   D T 801       3.225  -8.058  -9.770  1.00 77.18     0.114 A 
HETATM   10  C13   D T 801       2.732  -9.176  -9.073  1.00 75.62     0.018 A 
HETATM   11  C14   D T 801       3.163  -9.373  -7.763  1.00 74.52     0.115 A 
HETATM   12  N15   D T 801       4.006  -8.527  -7.175  1.00 75.06    -0.058 NA
HETATM   13  C16   D T 801       4.420  -7.465  -7.891  1.00 77.13     0.750 A 
HETATM   14  N17   D T 801       4.047  -7.201  -9.153  1.00 77.25    -0.058 NA
ENDROOT
BRANCH  13  15
HETATM   15  N18   D T 801       5.283  -6.577  -7.341  1.00 80.81    -0.057 NA
BRANCH  15  16
HETATM   16  C19   D T 801       6.578  -6.797  -6.817  1.00 85.48     0.122 A 
HETATM   17  C20   D T 801       7.018  -6.041  -5.719  1.00 89.67     0.120 A 
HETATM   18  C21   D T 801       8.285  -6.276  -5.219  1.00 92.22     0.031 A 
HETATM   19  C22   D T 801       9.122  -7.231  -5.793  1.00 92.18     0.060 A 
HETATM   20  C23   D T 801       8.674  -7.968  -6.883  1.00 88.35     0.006 A 
HETATM   21  C24   D T 801       7.414  -7.760  -7.393  1.00 86.43     0.022 A 
BRANCH  17  22
HETATM   22  O25   D T 801       6.094  -5.121  -5.230  1.00 91.30    -0.252 OA
BRANCH  22  23
HETATM   23  C36   D T 801       6.140  -3.836  -5.607  1.00 94.98     0.530 C 
HETATM   24  F37   D T 801       6.978  -3.611  -6.604  1.00 94.67    -0.144 F 
HETATM   25  F38   D T 801       6.473  -3.022  -4.622  1.00 98.40    -0.144 F 
HETATM   26  F39   D T 801       4.948  -3.452  -6.015  1.00 96.99    -0.144 F 
ENDBRANCH  22  23
ENDBRANCH  17  22
BRANCH  19  27
HETATM   27  C26   D T 801      10.503  -7.514  -5.287  1.00 96.79     0.275 C 
HETATM   28  N27   D T 801      10.656  -8.580  -4.426  1.00 99.53    -0.236 NA
HETATM   29  O28   D T 801      11.443  -6.807  -5.650  1.00 99.48    -0.266 OA
BRANCH  28  30
HETATM   30  C29   D T 801      11.972  -9.128  -4.075  1.00102.51     0.111 C 
HETATM   31  C30   D T 801      12.479  -8.544  -2.764  1.00104.02     0.060 C 
HETATM   32  C31   D T 801      13.831  -9.144  -2.410  1.00106.53     0.252 C 
HETATM   33  N32   D T 801      13.759 -10.612  -2.323  1.00109.08     0.139 N 
HETATM   34  C33   D T 801      13.290 -11.198  -3.588  1.00106.98     0.252 C 
HETATM   35  C35   D T 801      15.064 -11.188  -1.916  1.00111.30     0.285 C 
HETATM   36  C34   D T 801      11.927 -10.648  -3.978  1.00105.21     0.060 C 
ENDBRANCH  28  30
ENDBRANCH  19  27
ENDBRANCH  15  16
ENDBRANCH  13  15
BRANCH   7  37
HETATM   37  C8    D T 801       0.925  -8.562 -14.137  1.00 82.40     0.298 C 
HETATM   38  N9    D T 801       1.409  -9.662 -14.758  1.00 84.60    -0.207 NA
HETATM   39  O10   D T 801      -0.095  -7.972 -14.479  1.00 81.21    -0.263 OA
BRANCH  38  40
HETATM   40  C40   D T 801       0.796 -10.389 -15.820  1.00 86.27     0.077 A 
HETATM   41  C41   D T 801       1.071 -10.015 -17.144  1.00 87.01    -0.005 A 
HETATM   42  C42   D T 801       0.453 -10.743 -18.165  1.00 88.25    -0.003 A 
HETATM   43  C43   D T 801      -0.387 -11.799 -17.889  1.00 88.58    -0.001 A 
HETATM   44  C44   D T 801      -0.641 -12.149 -16.581  1.00 87.85    -0.003 A 
HETATM   45  C45   D T 801      -0.057 -11.462 -15.513  1.00 86.05    -0.005 A 
BRANCH  41  46
HETATM   46  C48   D T 801       1.978  -8.853 -17.492  1.00 86.36     0.028 C 
HETATM   47  C49   D T 801       1.285  -7.534 -17.732  1.00 87.21     0.005 C 
ENDBRANCH  41  46
BRANCH  45  48
HETATM   48  C46   D T 801      -0.371 -11.895 -14.096  1.00 83.09     0.028 C 
HETATM   49  C47   D T 801      -1.483 -11.133 -13.408  1.00 82.23     0.005 C 
ENDBRANCH  45  48
ENDBRANCH  38  40
ENDBRANCH   7  37
TORSDOF 10
ENDMDL
MODEL 6
REMARK VINA RESULT:    -8.783      5.445     13.160
REMARK INTER + INTRA:         -15.795
REMARK INTER:                 -13.713
REMARK INTRA:                  -2.083
REMARK UNBOUND:                -1.878
REMARK  10 active torsions:
REMARK  status: ('A' for Active; 'I' for Inactive)
REMARK    1  A    between atoms: C7_7  and  C8_8 
REMARK       I    between atoms: C8_8  and  N9_9 
REMARK    2  A    between atoms: N9_9  and  C40_40 
REMARK    3  A    between atoms: C16_16  and  N18_18 
REMARK    4  A    between atoms: N18_18  and  C19_19 
REMARK    5  A    between atoms: C20_20  and  O25_25 
REMARK    6  A    between atoms: C22_22  and  C26_26 
REMARK    7  A    between atoms: O25_25  and  C36_36 
REMARK       I    between atoms: C26_26  and  N27_27 
REMARK    8  A    between atoms: N27_27  and  C29_29 
REMARK    9  A    between atoms: C41_41  and  C48_48 
REMARK   10  A    between atoms: C45_45  and  C46_46 
ROOT
HETATM    1  C1    D T 801       1.733  -7.709 -12.410  1.00 74.99     0.034 C 
HETATM    2  C2    D T 801       2.692  -6.579 -12.083  1.00 74.87     0.034 C 
HETATM    3  C3    D T 801       1.889  -8.898 -11.512  1.00 77.80     0.021 A 
HETATM    4  C4    D T 801       2.555  -8.822 -10.312  1.00 79.05     0.094 A 
HETATM    5  N5    D T 801       2.498 -10.073  -9.743  1.00 81.59    -0.248 N 
HETATM    6  N6    D T 801       1.803 -10.933 -10.542  1.00 81.45    -0.165 NA
HETATM    7  C7    D T 801       1.432 -10.212 -11.612  1.00 80.71     0.156 A 
HETATM    8  C11   D T 801       3.043 -10.574  -8.483  1.00 82.60     0.154 C 
HETATM    9  C12   D T 801       3.195  -7.668  -9.853  1.00 77.18     0.114 A 
HETATM   10  C13   D T 801       3.292  -6.553 -10.705  1.00 75.62     0.018 A 
HETATM   11  C14   D T 801       3.965  -5.428 -10.236  1.00 74.52     0.115 A 
HETATM   12  N15   D T 801       4.516  -5.403  -9.024  1.00 75.06    -0.058 NA
HETATM   13  C16   D T 801       4.406  -6.512  -8.270  1.00 77.13     0.750 A 
HETATM   14  N17   D T 801       3.781  -7.637  -8.650  1.00 77.25    -0.058 NA
ENDROOT
BRANCH  13  15
HETATM   15  N18   D T 801       4.944  -6.537  -7.026  1.00 80.81    -0.057 NA
BRANCH  15  16
HETATM   16  C19   D T 801       6.278  -6.797  -6.635  1.00 85.48     0.122 A 
HETATM   17  C20   D T 801       6.884  -5.987  -5.662  1.00 89.67     0.120 A 
HETATM   18  C21   D T 801       8.187  -6.262  -5.289  1.00 92.22     0.031 A 
HETATM   19  C22   D T 801       8.898  -7.311  -5.871  1.00 92.18     0.060 A 
HETATM   20  C23   D T 801       8.285  -8.100  -6.836  1.00 88.35     0.006 A 
HETATM   21  C24   D T 801       6.987  -7.854  -7.217  1.00 86.43     0.022 A 
BRANCH  17  22
HETATM   22  O25   D T 801       6.075  -4.975  -5.152  1.00 91.30    -0.252 OA
BRANCH  22  23
HETATM   23  C36   D T 801       6.143  -3.730  -5.643  1.00 94.98     0.530 C 
HETATM   24  F37   D T 801       7.066  -3.584  -6.578  1.00 94.67    -0.144 F 
HETATM   25  F38   D T 801       6.377  -2.821  -4.713  1.00 98.40    -0.144 F 
HETATM   26  F39   D T 801       4.989  -3.407  -6.190  1.00 96.99    -0.144 F 
ENDBRANCH  22  23
ENDBRANCH  17  22
BRANCH  19  27
HETATM   27  C26   D T 801      10.311  -7.640  -5.501  1.00 96.79     0.275 C 
HETATM   28  N27   D T 801      10.504  -8.581  -4.511  1.00 99.53    -0.236 NA
HETATM   29  O28   D T 801      11.241  -7.080  -6.082  1.00 99.48    -0.266 OA
BRANCH  28  30
HETATM   30  C29   D T 801      11.813  -9.188  -4.245  1.00102.51     0.111 C 
HETATM   31  C30   D T 801      12.568  -8.419  -3.170  1.00104.02     0.060 C 
HETATM   32  C31   D T 801      13.910  -9.080  -2.894  1.00106.53     0.252 C 
HETATM   33  N32   D T 801      13.741 -10.487  -2.495  1.00109.08     0.139 N 
HETATM   34  C33   D T 801      13.032 -11.254  -3.530  1.00106.98     0.252 C 
HETATM   35  C35   D T 801      15.047 -11.110  -2.167  1.00111.30     0.285 C 
HETATM   36  C34   D T 801      11.669 -10.647  -3.828  1.00105.21     0.060 C 
ENDBRANCH  28  30
ENDBRANCH  19  27
ENDBRANCH  15  16
ENDBRANCH  13  15
BRANCH   7  37
HETATM   37  C8    D T 801       0.664 -10.838 -12.710  1.00 82.40     0.298 C 
HETATM   38  N9    D T 801       1.351 -11.026 -13.860  1.00 84.60    -0.207 NA
HETATM   39  O10   D T 801      -0.519 -11.128 -12.560  1.00 81.21    -0.263 OA
BRANCH  38  40
HETATM   40  C40   D T 801       0.887 -11.673 -15.043  1.00 86.27     0.077 A 
HETATM   41  C41   D T 801       0.198 -10.916 -16.002  1.00 87.01    -0.005 A 
HETATM   42  C42   D T 801      -0.249 -11.576 -17.150  1.00 88.25    -0.003 A 
HETATM   43  C43   D T 801      -0.014 -12.919 -17.345  1.00 88.58    -0.001 A 
HETATM   44  C44   D T 801       0.667 -13.641 -16.389  1.00 87.85    -0.003 A 
HETATM   45  C45   D T 801       1.139 -13.043 -15.218  1.00 86.05    -0.005 A 
BRANCH  41  46
HETATM   46  C48   D T 801      -0.094  -9.440 -15.822  1.00 86.36     0.028 C 
HETATM   47  C49   D T 801      -1.528  -9.093 -15.504  1.00 87.21     0.005 C 
ENDBRANCH  41  46
BRANCH  45  48
HETATM   48  C46   D T 801       1.884 -13.888 -14.206  1.00 83.09     0.028 C 
HETATM   49  C47   D T 801       1.446 -15.333 -14.109  1.00 82.23     0.005 C 
ENDBRANCH  45  48
ENDBRANCH  38  40
ENDBRANCH   7  37
TORSDOF 10
ENDMDL
MODEL 7
REMARK VINA RESULT:    -8.727      5.462     13.271
REMARK INTER + INTRA:         -15.707
REMARK INTER:                 -13.736
REMARK INTRA:                  -1.971
REMARK UNBOUND:                -1.878
REMARK  10 active torsions:
REMARK  status: ('A' for Active; 'I' for Inactive)
REMARK    1  A    between atoms: C7_7  and  C8_8 
REMARK       I    between atoms: C8_8  and  N9_9 
REMARK    2  A    between atoms: N9_9  and  C40_40 
REMARK    3  A    between atoms: C16_16  and  N18_18 
REMARK    4  A    between atoms: N18_18  and  C19_19 
REMARK    5  A    between atoms: C20_20  and  O25_25 
REMARK    6  A    between atoms: C22_22  and  C26_26 
REMARK    7  A    between atoms: O25_25  and  C36_36 
REMARK       I    between atoms: C26_26  and  N27_27 
REMARK    8  A    between atoms: N27_27  and  C29_29 
REMARK    9  A    between atoms: C41_41  and  C48_48 
REMARK   10  A    between atoms: C45_45  and  C46_46 
ROOT
HETATM    1  C1    D T 801       1.801  -7.566 -12.386  1.00 74.99     0.034 C 
HETATM    2  C2    D T 801       2.773  -6.452 -12.043  1.00 74.87     0.034 C 
HETATM    3  C3    D T 801       1.947  -8.772 -11.509  1.00 77.80     0.021 A 
HETATM    4  C4    D T 801       2.617  -8.723 -10.310  1.00 79.05     0.094 A 
HETATM    5  N5    D T 801       2.548  -9.983  -9.762  1.00 81.59    -0.248 N 
HETATM    6  N6    D T 801       1.842 -10.822 -10.574  1.00 81.45    -0.165 NA
HETATM    7  C7    D T 801       1.474 -10.078 -11.630  1.00 80.71     0.156 A 
HETATM    8  C11   D T 801       3.091 -10.511  -8.512  1.00 82.60     0.154 C 
HETATM    9  C12   D T 801       3.271  -7.584  -9.833  1.00 77.18     0.114 A 
HETATM   10  C13   D T 801       3.377  -6.456 -10.667  1.00 75.62     0.018 A 
HETATM   11  C14   D T 801       4.064  -5.346 -10.180  1.00 74.52     0.115 A 
HETATM   12  N15   D T 801       4.619  -5.348  -8.970  1.00 75.06    -0.058 NA
HETATM   13  C16   D T 801       4.500  -6.468  -8.235  1.00 77.13     0.750 A 
HETATM   14  N17   D T 801       3.861  -7.580  -8.632  1.00 77.25    -0.058 NA
ENDROOT
BRANCH  13  15
HETATM   15  N18   D T 801       5.041  -6.521  -6.994  1.00 80.81    -0.057 NA
BRANCH  15  16
HETATM   16  C19   D T 801       6.377  -6.787  -6.612  1.00 85.48     0.122 A 
HETATM   17  C20   D T 801       6.986  -5.995  -5.627  1.00 89.67     0.120 A 
HETATM   18  C21   D T 801       8.290  -6.276  -5.264  1.00 92.22     0.031 A 
HETATM   19  C22   D T 801       8.999  -7.314  -5.867  1.00 92.18     0.060 A 
HETATM   20  C23   D T 801       8.383  -8.086  -6.843  1.00 88.35     0.006 A 
HETATM   21  C24   D T 801       7.083  -7.833  -7.215  1.00 86.43     0.022 A 
BRANCH  17  22
HETATM   22  O25   D T 801       6.179  -4.992  -5.096  1.00 91.30    -0.252 OA
BRANCH  22  23
HETATM   23  C36   D T 801       6.177  -3.761  -5.625  1.00 94.98     0.530 C 
HETATM   24  F37   D T 801       5.018  -3.423  -6.166  1.00 94.67    -0.144 F 
HETATM   25  F38   D T 801       7.106  -3.596  -6.550  1.00 98.40    -0.144 F 
HETATM   26  F39   D T 801       6.433  -2.875  -4.685  1.00 96.99    -0.144 F 
ENDBRANCH  22  23
ENDBRANCH  17  22
BRANCH  19  27
HETATM   27  C26   D T 801      10.414  -7.650  -5.507  1.00 96.79     0.275 C 
HETATM   28  N27   D T 801      10.611  -8.521  -4.458  1.00 99.53    -0.236 NA
HETATM   29  O28   D T 801      11.340  -7.155  -6.150  1.00 99.48    -0.266 OA
BRANCH  28  30
HETATM   30  C29   D T 801      11.913  -9.139  -4.180  1.00102.51     0.111 C 
HETATM   31  C30   D T 801      12.627  -8.428  -3.039  1.00104.02     0.060 C 
HETATM   32  C31   D T 801      13.961  -9.100  -2.753  1.00106.53     0.252 C 
HETATM   33  N32   D T 801      13.785 -10.526  -2.437  1.00109.08     0.139 N 
HETATM   34  C33   D T 801      13.115 -11.238  -3.536  1.00106.98     0.252 C 
HETATM   35  C35   D T 801      15.081 -11.163  -2.098  1.00111.30     0.285 C 
HETATM   36  C34   D T 801      11.761 -10.619  -3.848  1.00105.21     0.060 C 
ENDBRANCH  28  30
ENDBRANCH  19  27
ENDBRANCH  15  16
ENDBRANCH  13  15
BRANCH   7  37
HETATM   37  C8    D T 801       0.697 -10.677 -12.735  1.00 82.40     0.298 C 
HETATM   38  N9    D T 801       1.422 -11.048 -13.816  1.00 84.60    -0.207 NA
HETATM   39  O10   D T 801      -0.523 -10.789 -12.654  1.00 81.21    -0.263 OA
BRANCH  38  40
HETATM   40  C40   D T 801       0.946 -11.716 -14.982  1.00 86.27     0.077 A 
HETATM   41  C41   D T 801       1.036 -13.114 -15.045  1.00 87.01    -0.005 A 
HETATM   42  C42   D T 801       0.566 -13.742 -16.202  1.00 88.25    -0.003 A 
HETATM   43  C43   D T 801       0.020 -13.021 -17.242  1.00 88.58    -0.001 A 
HETATM   44  C44   D T 801      -0.059 -11.649 -17.155  1.00 87.85    -0.003 A 
HETATM   45  C45   D T 801       0.394 -10.958 -16.028  1.00 86.05    -0.005 A 
BRANCH  41  46
HETATM   46  C48   D T 801       1.640 -13.945 -13.932  1.00 86.36     0.028 C 
HETATM   47  C49   D T 801       1.525 -15.440 -14.098  1.00 87.21     0.005 C 
ENDBRANCH  41  46
BRANCH  45  48
HETATM   48  C46   D T 801       0.277  -9.448 -15.990  1.00 83.09     0.028 C 
HETATM   49  C47   D T 801      -1.015  -8.877 -16.532  1.00 82.23     0.005 C 
ENDBRANCH  45  48
ENDBRANCH  38  40
ENDBRANCH   7  37
TORSDOF 10
ENDMDL
MODEL 8
REMARK VINA RESULT:    -8.624      4.076     12.967
REMARK INTER + INTRA:         -15.544
REMARK INTER:                 -14.173
REMARK INTRA:                  -1.371
REMARK UNBOUND:                -1.878
REMARK  10 active torsions:
REMARK  status: ('A' for Active; 'I' for Inactive)
REMARK    1  A    between atoms: C7_7  and  C8_8 
REMARK       I    between atoms: C8_8  and  N9_9 
REMARK    2  A    between atoms: N9_9  and  C40_40 
REMARK    3  A    between atoms: C16_16  and  N18_18 
REMARK    4  A    between atoms: N18_18  and  C19_19 
REMARK    5  A    between atoms: C20_20  and  O25_25 
REMARK    6  A    between atoms: C22_22  and  C26_26 
REMARK    7  A    between atoms: O25_25  and  C36_36 
REMARK       I    between atoms: C26_26  and  N27_27 
REMARK    8  A    between atoms: N27_27  and  C29_29 
REMARK    9  A    between atoms: C41_41  and  C48_48 
REMARK   10  A    between atoms: C45_45  and  C46_46 
ROOT
HETATM    1  C1    D T 801       3.582  -5.812  -6.368  1.00 74.99     0.034 C 
HETATM    2  C2    D T 801       4.790  -4.893  -6.376  1.00 74.87     0.034 C 
HETATM    3  C3    D T 801       3.903  -7.218  -6.775  1.00 77.80     0.021 A 
HETATM    4  C4    D T 801       5.192  -7.696  -6.786  1.00 79.05     0.094 A 
HETATM    5  N5    D T 801       5.127  -9.009  -7.187  1.00 81.59    -0.248 N 
HETATM    6  N6    D T 801       3.834  -9.379  -7.416  1.00 81.45    -0.165 NA
HETATM    7  C7    D T 801       3.096  -8.288  -7.158  1.00 80.71     0.156 A 
HETATM    8  C11   D T 801       6.184  -9.999  -7.388  1.00 82.60     0.154 C 
HETATM    9  C12   D T 801       6.311  -6.914  -6.488  1.00 77.18     0.114 A 
HETATM   10  C13   D T 801       6.149  -5.530  -6.296  1.00 75.62     0.018 A 
HETATM   11  C14   D T 801       7.285  -4.768  -6.036  1.00 74.52     0.115 A 
HETATM   12  N15   D T 801       8.495  -5.321  -5.981  1.00 75.06    -0.058 NA
HETATM   13  C16   D T 801       8.582  -6.646  -6.198  1.00 77.13     0.750 A 
HETATM   14  N17   D T 801       7.538  -7.449  -6.462  1.00 77.25    -0.058 NA
ENDROOT
BRANCH  13  15
HETATM   15  N18   D T 801       9.789  -7.260  -6.149  1.00 80.81    -0.057 NA
BRANCH  15  16
HETATM   16  C19   D T 801      10.121  -8.536  -5.637  1.00 85.48     0.122 A 
HETATM   17  C20   D T 801      10.596  -8.652  -4.321  1.00 89.67     0.120 A 
HETATM   18  C21   D T 801      10.909  -9.908  -3.839  1.00 92.22     0.031 A 
HETATM   19  C22   D T 801      10.774 -11.043  -4.638  1.00 92.18     0.060 A 
HETATM   20  C23   D T 801      10.307 -10.911  -5.940  1.00 88.35     0.006 A 
HETATM   21  C24   D T 801       9.979  -9.673  -6.440  1.00 86.43     0.022 A 
BRANCH  17  22
HETATM   22  O25   D T 801      10.686  -7.452  -3.621  1.00 91.30    -0.252 OA
BRANCH  22  23
HETATM   23  C36   D T 801      11.826  -7.096  -3.014  1.00 94.98     0.530 C 
HETATM   24  F37   D T 801      12.437  -8.101  -2.410  1.00 94.67    -0.144 F 
HETATM   25  F38   D T 801      11.657  -6.142  -2.116  1.00 98.40    -0.144 F 
HETATM   26  F39   D T 801      12.670  -6.616  -3.905  1.00 96.99    -0.144 F 
ENDBRANCH  22  23
ENDBRANCH  17  22
BRANCH  19  27
HETATM   27  C26   D T 801      11.107 -12.422  -4.157  1.00 96.79     0.275 C 
HETATM   28  N27   D T 801      10.326 -13.460  -4.619  1.00 99.53    -0.236 NA
HETATM   29  O28   D T 801      12.052 -12.588  -3.386  1.00 99.48    -0.266 OA
BRANCH  28  30
HETATM   30  C29   D T 801      10.702 -14.868  -4.448  1.00102.51     0.111 C 
HETATM   31  C30   D T 801       9.495 -15.782  -4.599  1.00104.02     0.060 C 
HETATM   32  C31   D T 801       9.914 -17.236  -4.441  1.00106.53     0.252 C 
HETATM   33  N32   D T 801      10.957 -17.601  -5.414  1.00109.08     0.139 N 
HETATM   34  C33   D T 801      12.142 -16.742  -5.271  1.00106.98     0.252 C 
HETATM   35  C35   D T 801      11.318 -19.035  -5.298  1.00111.30     0.285 C 
HETATM   36  C34   D T 801      11.783 -15.274  -5.444  1.00105.21     0.060 C 
ENDBRANCH  28  30
ENDBRANCH  19  27
ENDBRANCH  15  16
ENDBRANCH  13  15
BRANCH   7  37
HETATM   37  C8    D T 801       1.627  -8.320  -7.322  1.00 82.40     0.298 C 
HETATM   38  N9    D T 801       0.941  -7.444  -6.552  1.00 84.60    -0.207 NA
HETATM   39  O10   D T 801       1.100  -9.119  -8.091  1.00 81.21    -0.263 OA
BRANCH  38  40
HETATM   40  C40   D T 801      -0.465  -7.208  -6.563  1.00 86.27     0.077 A 
HETATM   41  C41   D T 801      -1.249  -7.743  -5.530  1.00 87.01    -0.005 A 
HETATM   42  C42   D T 801      -2.624  -7.500  -5.566  1.00 88.25    -0.003 A 
HETATM   43  C43   D T 801      -3.196  -6.751  -6.572  1.00 88.58    -0.001 A 
HETATM   44  C44   D T 801      -2.405  -6.234  -7.575  1.00 87.85    -0.003 A 
HETATM   45  C45   D T 801      -1.023  -6.441  -7.598  1.00 86.05    -0.005 A 
BRANCH  41  46
HETATM   46  C48   D T 801      -0.664  -8.583  -4.412  1.00 86.36     0.028 C 
HETATM   47  C49   D T 801      -0.680 -10.075  -4.641  1.00 87.21     0.005 C 
ENDBRANCH  41  46
BRANCH  45  48
HETATM   48  C46   D T 801      -0.206  -5.845  -8.725  1.00 83.09     0.028 C 
HETATM   49  C47   D T 801      -0.856  -4.700  -9.471  1.00 82.23     0.005 C 
ENDBRANCH  45  48
ENDBRANCH  38  40
ENDBRANCH   7  37
TORSDOF 10
ENDMDL
MODEL 9
REMARK VINA RESULT:    -8.251      5.487     13.092
REMARK INTER + INTRA:         -14.952
REMARK INTER:                 -12.677
REMARK INTRA:                  -2.274
REMARK UNBOUND:                -1.878
REMARK  10 active torsions:
REMARK  status: ('A' for Active; 'I' for Inactive)
REMARK    1  A    between atoms: C7_7  and  C8_8 
REMARK       I    between atoms: C8_8  and  N9_9 
REMARK    2  A    between atoms: N9_9  and  C40_40 
REMARK    3  A    between atoms: C16_16  and  N18_18 
REMARK    4  A    between atoms: N18_18  and  C19_19 
REMARK    5  A    between atoms: C20_20  and  O25_25 
REMARK    6  A    between atoms: C22_22  and  C26_26 
REMARK    7  A    between atoms: O25_25  and  C36_36 
REMARK       I    between atoms: C26_26  and  N27_27 
REMARK    8  A    between atoms: N27_27  and  C29_29 
REMARK    9  A    between atoms: C41_41  and  C48_48 
REMARK   10  A    between atoms: C45_45  and  C46_46 
ROOT
HETATM    1  C1    D T 801       0.402  -8.891 -10.592  1.00 74.99     0.034 C 
HETATM    2  C2    D T 801       0.258  -8.637  -9.103  1.00 74.87     0.034 C 
HETATM    3  C3    D T 801       1.224  -7.854 -11.294  1.00 77.80     0.021 A 
HETATM    4  C4    D T 801       2.052  -6.995 -10.610  1.00 79.05     0.094 A 
HETATM    5  N5    D T 801       2.662  -6.196 -11.548  1.00 81.59    -0.248 N 
HETATM    6  N6    D T 801       2.255  -6.534 -12.806  1.00 81.45    -0.165 NA
HETATM    7  C7    D T 801       1.387  -7.545 -12.644  1.00 80.71     0.156 A 
HETATM    8  C11   D T 801       3.624  -5.106 -11.393  1.00 82.60     0.154 C 
HETATM    9  C12   D T 801       2.154  -6.963  -9.217  1.00 77.18     0.114 A 
HETATM   10  C13   D T 801       1.277  -7.748  -8.447  1.00 75.62     0.018 A 
HETATM   11  C14   D T 801       1.377  -7.671  -7.060  1.00 74.52     0.115 A 
HETATM   12  N15   D T 801       2.264  -6.872  -6.470  1.00 75.06    -0.058 NA
HETATM   13  C16   D T 801       3.057  -6.131  -7.266  1.00 77.13     0.750 A 
HETATM   14  N17   D T 801       3.019  -6.143  -8.608  1.00 77.25    -0.058 NA
ENDROOT
BRANCH  13  15
HETATM   15  N18   D T 801       3.981  -5.306  -6.718  1.00 80.81    -0.057 NA
BRANCH  15  16
HETATM   16  C19   D T 801       5.333  -5.568  -6.395  1.00 85.48     0.122 A 
HETATM   17  C20   D T 801       6.183  -4.503  -6.060  1.00 89.67     0.120 A 
HETATM   18  C21   D T 801       7.499  -4.781  -5.741  1.00 92.22     0.031 A 
HETATM   19  C22   D T 801       7.986  -6.087  -5.762  1.00 92.18     0.060 A 
HETATM   20  C23   D T 801       7.132  -7.130  -6.100  1.00 88.35     0.006 A 
HETATM   21  C24   D T 801       5.817  -6.881  -6.412  1.00 86.43     0.022 A 
BRANCH  17  22
HETATM   22  O25   D T 801       5.584  -3.246  -6.070  1.00 91.30    -0.252 OA
BRANCH  22  23
HETATM   23  C36   D T 801       5.937  -2.325  -6.977  1.00 94.98     0.530 C 
HETATM   24  F37   D T 801       6.638  -2.820  -7.983  1.00 94.67    -0.144 F 
HETATM   25  F38   D T 801       6.638  -1.333  -6.459  1.00 98.40    -0.144 F 
HETATM   26  F39   D T 801       4.856  -1.780  -7.496  1.00 96.99    -0.144 F 
ENDBRANCH  22  23
ENDBRANCH  17  22
BRANCH  19  27
HETATM   27  C26   D T 801       9.405  -6.433  -5.429  1.00 96.79     0.275 C 
HETATM   28  N27   D T 801       9.613  -7.412  -4.481  1.00 99.53    -0.236 NA
HETATM   29  O28   D T 801      10.325  -5.851  -6.003  1.00 99.48    -0.266 OA
BRANCH  28  30
HETATM   30  C29   D T 801      10.925  -8.031  -4.261  1.00102.51     0.111 C 
HETATM   31  C30   D T 801      11.659  -7.367  -3.105  1.00104.02     0.060 C 
HETATM   32  C31   D T 801      13.005  -8.040  -2.880  1.00106.53     0.252 C 
HETATM   33  N32   D T 801      12.846  -9.482  -2.626  1.00109.08     0.139 N 
HETATM   34  C33   D T 801      12.157 -10.147  -3.743  1.00106.98     0.252 C 
HETATM   35  C35   D T 801      14.155 -10.122  -2.347  1.00111.30     0.285 C 
HETATM   36  C34   D T 801      10.791  -9.526  -3.995  1.00105.21     0.060 C 
ENDBRANCH  28  30
ENDBRANCH  19  27
ENDBRANCH  15  16
ENDBRANCH  13  15
BRANCH   7  37
HETATM   37  C8    D T 801       0.723  -8.158 -13.814  1.00 82.40     0.298 C 
HETATM   38  N9    D T 801       1.398  -9.178 -14.393  1.00 84.60    -0.207 NA
HETATM   39  O10   D T 801      -0.353  -7.727 -14.221  1.00 81.21    -0.263 OA
BRANCH  38  40
HETATM   40  C40   D T 801       0.961  -9.993 -15.478  1.00 86.27     0.077 A 
HETATM   41  C41   D T 801       0.214 -11.146 -15.200  1.00 87.01    -0.005 A 
HETATM   42  C42   D T 801      -0.198 -11.928 -16.282  1.00 88.25    -0.003 A 
HETATM   43  C43   D T 801       0.104 -11.578 -17.580  1.00 88.58    -0.001 A 
HETATM   44  C44   D T 801       0.838 -10.439 -17.828  1.00 87.85    -0.003 A 
HETATM   45  C45   D T 801       1.282  -9.613 -16.792  1.00 86.05    -0.005 A 
BRANCH  41  46
HETATM   46  C48   D T 801      -0.130 -11.576 -13.788  1.00 86.36     0.028 C 
HETATM   47  C49   D T 801      -1.463 -11.096 -13.267  1.00 87.21     0.005 C 
ENDBRANCH  41  46
BRANCH  45  48
HETATM   48  C46   D T 801       2.082  -8.372 -17.128  1.00 83.09     0.028 C 
HETATM   49  C47   D T 801       1.272  -7.158 -17.528  1.00 82.23     0.005 C 
ENDBRANCH  45  48
ENDBRANCH  38  40
ENDBRANCH   7  37
TORSDOF 10
ENDMDL
