MODEL 1
REMARK VINA RESULT:    -6.769      0.000      0.000
REMARK INTER + INTRA:         -11.700
REMARK INTER:                 -10.330
REMARK INTRA:                  -1.370
REMARK UNBOUND:                -1.370
REMARK  9 active torsions:
REMARK  status: ('A' for Active; 'I' for Inactive)
REMARK    1  A    between atoms: C02_2  and  N03_3 
REMARK    2  A    between atoms: N03_3  and  C04_4 
REMARK    3  A    between atoms: N03_3  and  C06_6 
REMARK    4  A    between atoms: C06_6  and  C07_7 
REMARK    5  A    between atoms: C07_7  and  O08_8 
REMARK    6  A    between atoms: O08_8  and  C09_9 
REMARK    7  A    between atoms: C12_12  and  N13_13 
REMARK    8  A    between atoms: N13_13  and  C14_14 
REMARK    9  A    between atoms: C21_21  and  C26_26 
ROOT
HETATM    1  C14   D T 601      11.017   9.095   7.124  1.00 17.92     0.728 A 
HETATM    2  N15   D T 601      11.378   9.654   8.298  1.00 19.07    -0.044 NA
HETATM    3  C16   D T 601      11.652   8.961   9.411  1.00 18.16     0.163 A 
HETATM    4  C17   D T 601      11.532   7.570   9.361  1.00 16.80     0.030 A 
HETATM    5  C18   D T 601      11.118   6.989   8.161  1.00 18.08     0.151 A 
HETATM    6  N19   D T 601      10.873   7.760   7.081  1.00 16.91    -0.074 NA
HETATM    7  C20   D T 601      11.794   6.805  10.515  1.00 17.65     0.034 A 
HETATM    8  C21   D T 601      12.194   7.438  11.703  1.00 18.53     0.047 A 
HETATM    9  C22   D T 601      12.295   8.851  11.696  1.00 19.48     0.260 A 
HETATM   10  O23   D T 601      12.620   9.357  12.791  1.00 21.52    -0.267 OA
HETATM   11  N24   D T 601      12.038   9.599  10.564  1.00 19.49    -0.301 N 
HETATM   12  C25   D T 601      12.163  11.048  10.525  1.00 20.07     0.161 C 
ENDROOT
BRANCH   1  13
HETATM   13  N13   D T 601      10.778   9.874   6.057  1.00 20.14    -0.188 N 
HETATM   14 1H13   D T 601      11.515  10.053   5.541  1.00 24.16     0.184 HD
BRANCH  13  15
HETATM   15  C12   D T 601       9.607  10.447   5.609  1.00 24.69     0.049 A 
HETATM   16  C11   D T 601       9.732  11.646   4.860  1.00 26.89     0.033 A 
HETATM   17  C10   D T 601       8.587  12.292   4.345  1.00 28.95     0.039 A 
HETATM   18  C09   D T 601       7.309  11.732   4.560  1.00 30.95     0.069 A 
HETATM   19  C35   D T 601       7.187  10.528   5.276  1.00 28.80     0.039 A 
HETATM   20  C34   D T 601       8.327   9.906   5.799  1.00 26.81     0.033 A 
BRANCH  18  21
HETATM   21  O08   D T 601       6.200  12.303   4.040  1.00 36.09    -0.350 OA
BRANCH  21  22
HETATM   22  C07   D T 601       6.391  13.633   3.484  1.00 42.63     0.195 C 
BRANCH  22  23
HETATM   23  C06   D T 601       6.046  13.601   1.961  1.00 46.85     0.143 C 
BRANCH  23  24
HETATM   24  N03   D T 601       5.305  12.357   1.527  1.00 51.06    -0.411 N 
BRANCH  24  25
HETATM   25  C02   D T 601       3.840  12.124   1.888  1.00 53.85     0.112 C 
HETATM   26  C01   D T 601       3.394  10.699   2.354  1.00 52.69     0.026 C 
ENDBRANCH  24  25
BRANCH  24  27
HETATM   27  C04   D T 601       6.045  11.419   0.611  1.00 47.80     0.112 C 
HETATM   28  C05   D T 601       7.584  11.282   0.778  1.00 44.89     0.026 C 
ENDBRANCH  24  27
ENDBRANCH  23  24
ENDBRANCH  22  23
ENDBRANCH  21  22
ENDBRANCH  18  21
ENDBRANCH  13  15
ENDBRANCH   1  13
BRANCH   8  29
HETATM   29  C26   D T 601      12.484   6.679  12.883  1.00 21.63     0.023 A 
HETATM   30  C27   D T 601      11.454   6.391  13.821  1.00 22.75     0.046 A 
HETATM   31 CL28   D T 601       9.893   6.984  13.581  1.00 22.59    -0.083 Cl
HETATM   32  C29   D T 601      11.706   5.639  14.998  1.00 24.08     0.025 A 
HETATM   33  C30   D T 601      12.999   5.119  15.232  1.00 25.63     0.003 A 
HETATM   34  C31   D T 601      14.020   5.373  14.305  1.00 25.41     0.025 A 
HETATM   35  C32   D T 601      13.767   6.145  13.143  1.00 23.77     0.046 A 
HETATM   36 CL33   D T 601      15.044   6.422  12.068  1.00 25.94    -0.083 Cl
ENDBRANCH   8  29
TORSDOF 9
ENDMDL
MODEL 2
REMARK VINA RESULT:    -6.767      3.594      5.289
REMARK INTER + INTRA:         -11.698
REMARK INTER:                 -10.795
REMARK INTRA:                  -0.903
REMARK UNBOUND:                -1.370
REMARK  9 active torsions:
REMARK  status: ('A' for Active; 'I' for Inactive)
REMARK    1  A    between atoms: C02_2  and  N03_3 
REMARK    2  A    between atoms: N03_3  and  C04_4 
REMARK    3  A    between atoms: N03_3  and  C06_6 
REMARK    4  A    between atoms: C06_6  and  C07_7 
REMARK    5  A    between atoms: C07_7  and  O08_8 
REMARK    6  A    between atoms: O08_8  and  C09_9 
REMARK    7  A    between atoms: C12_12  and  N13_13 
REMARK    8  A    between atoms: N13_13  and  C14_14 
REMARK    9  A    between atoms: C21_21  and  C26_26 
ROOT
HETATM    1  C14   D T 601       8.199   8.385   8.497  1.00 17.92     0.728 A 
HETATM    2  N15   D T 601       8.858   9.162   7.612  1.00 19.07    -0.044 NA
HETATM    3  C16   D T 601      10.134   9.548   7.749  1.00 18.16     0.163 A 
HETATM    4  C17   D T 601      10.819   9.142   8.896  1.00 16.80     0.030 A 
HETATM    5  C18   D T 601      10.130   8.373   9.837  1.00 18.08     0.151 A 
HETATM    6  N19   D T 601       8.847   8.017   9.615  1.00 16.91    -0.074 NA
HETATM    7  C20   D T 601      12.157   9.541   9.088  1.00 17.65     0.034 A 
HETATM    8  C21   D T 601      12.802  10.326   8.120  1.00 18.53     0.047 A 
HETATM    9  C22   D T 601      12.057  10.712   6.979  1.00 19.48     0.260 A 
HETATM   10  O23   D T 601      12.674  11.438   6.171  1.00 21.52    -0.267 OA
HETATM   11  N24   D T 601      10.745  10.318   6.792  1.00 19.49    -0.301 N 
HETATM   12  C25   D T 601       9.969  10.678   5.616  1.00 20.07     0.161 C 
ENDROOT
BRANCH   1  13
HETATM   13  N13   D T 601       6.924   8.037   8.264  1.00 20.14    -0.188 N 
HETATM   14 1H13   D T 601       6.531   7.551   8.936  1.00 24.16     0.184 HD
BRANCH  13  15
HETATM   15  C12   D T 601       6.108   8.289   7.182  1.00 24.69     0.049 A 
HETATM   16  C11   D T 601       5.086   7.340   6.920  1.00 26.89     0.033 A 
HETATM   17  C10   D T 601       4.192   7.526   5.843  1.00 28.95     0.039 A 
HETATM   18  C09   D T 601       4.302   8.677   5.032  1.00 30.95     0.069 A 
HETATM   19  C35   D T 601       5.296   9.633   5.309  1.00 28.80     0.039 A 
HETATM   20  C34   D T 601       6.189   9.428   6.367  1.00 26.81     0.033 A 
BRANCH  18  21
HETATM   21  O08   D T 601       3.432   8.906   4.023  1.00 36.09    -0.350 OA
BRANCH  21  22
HETATM   22  C07   D T 601       3.146  10.306   3.759  1.00 42.63     0.195 C 
BRANCH  22  23
HETATM   23  C06   D T 601       3.600  10.652   2.305  1.00 46.85     0.143 C 
BRANCH  23  24
HETATM   24  N03   D T 601       4.503  11.861   2.217  1.00 51.06    -0.411 N 
BRANCH  24  25
HETATM   25  C02   D T 601       6.023  11.740   2.293  1.00 53.85     0.112 C 
HETATM   26  C01   D T 601       6.895  13.018   2.062  1.00 52.69     0.026 C 
ENDBRANCH  24  25
BRANCH  24  27
HETATM   27  C04   D T 601       3.835  13.177   1.919  1.00 47.80     0.112 C 
HETATM   28  C05   D T 601       3.421  14.083   3.110  1.00 44.89     0.026 C 
ENDBRANCH  24  27
ENDBRANCH  23  24
ENDBRANCH  22  23
ENDBRANCH  21  22
ENDBRANCH  18  21
ENDBRANCH  13  15
ENDBRANCH   1  13
BRANCH   8  29
HETATM   29  C26   D T 601      14.167  10.728   8.284  1.00 21.63     0.023 A 
HETATM   30  C27   D T 601      14.487  11.883   9.049  1.00 22.75     0.046 A 
HETATM   31 CL28   D T 601      13.261  12.824   9.726  1.00 22.59    -0.083 Cl
HETATM   32  C29   D T 601      15.829  12.308   9.235  1.00 24.08     0.025 A 
HETATM   33  C30   D T 601      16.885  11.544   8.689  1.00 25.63     0.003 A 
HETATM   34  C31   D T 601      16.589  10.388   7.953  1.00 25.41     0.025 A 
HETATM   35  C32   D T 601      15.245   9.983   7.751  1.00 23.77     0.046 A 
HETATM   36 CL33   D T 601      14.955   8.583   6.847  1.00 25.94    -0.083 Cl
ENDBRANCH   8  29
TORSDOF 9
ENDMDL
MODEL 3
REMARK VINA RESULT:    -6.745      2.725      4.033
REMARK INTER + INTRA:         -11.664
REMARK INTER:                 -11.012
REMARK INTRA:                  -0.652
REMARK UNBOUND:                -1.370
REMARK  9 active torsions:
REMARK  status: ('A' for Active; 'I' for Inactive)
REMARK    1  A    between atoms: C02_2  and  N03_3 
REMARK    2  A    between atoms: N03_3  and  C04_4 
REMARK    3  A    between atoms: N03_3  and  C06_6 
REMARK    4  A    between atoms: C06_6  and  C07_7 
REMARK    5  A    between atoms: C07_7  and  O08_8 
REMARK    6  A    between atoms: O08_8  and  C09_9 
REMARK    7  A    between atoms: C12_12  and  N13_13 
REMARK    8  A    between atoms: N13_13  and  C14_14 
REMARK    9  A    between atoms: C21_21  and  C26_26 
ROOT
HETATM    1  C14   D T 601       8.225   8.467   8.395  1.00 17.92     0.728 A 
HETATM    2  N15   D T 601       8.889   8.087   9.506  1.00 19.07    -0.044 NA
HETATM    3  C16   D T 601      10.154   8.429   9.785  1.00 18.16     0.163 A 
HETATM    4  C17   D T 601      10.840   9.210   8.852  1.00 16.80     0.030 A 
HETATM    5  C18   D T 601      10.173   9.572   7.680  1.00 18.08     0.151 A 
HETATM    6  N19   D T 601       8.892   9.194   7.482  1.00 16.91    -0.074 NA
HETATM    7  C20   D T 601      12.178   9.577   9.098  1.00 17.65     0.034 A 
HETATM    8  C21   D T 601      12.810   9.177  10.286  1.00 18.53     0.047 A 
HETATM    9  C22   D T 601      12.067   8.383  11.194  1.00 19.48     0.260 A 
HETATM   10  O23   D T 601      12.694   8.029  12.214  1.00 21.52    -0.267 OA
HETATM   11  N24   D T 601      10.755   8.025  10.951  1.00 19.49    -0.301 N 
HETATM   12  C25   D T 601       9.964   7.234  11.881  1.00 20.07     0.161 C 
ENDROOT
BRANCH   1  13
HETATM   13  N13   D T 601       6.952   8.086   8.211  1.00 20.14    -0.188 N 
HETATM   14 1H13   D T 601       6.604   7.576   8.889  1.00 24.16     0.184 HD
BRANCH  13  15
HETATM   15  C12   D T 601       6.081   8.336   7.172  1.00 24.69     0.049 A 
HETATM   16  C11   D T 601       6.322   9.506   6.407  1.00 26.89     0.033 A 
HETATM   17  C10   D T 601       5.492   9.831   5.312  1.00 28.95     0.039 A 
HETATM   18  C09   D T 601       4.425   8.974   4.962  1.00 30.95     0.069 A 
HETATM   19  C35   D T 601       4.205   7.799   5.702  1.00 28.80     0.039 A 
HETATM   20  C34   D T 601       5.021   7.497   6.797  1.00 26.81     0.033 A 
BRANCH  18  21
HETATM   21  O08   D T 601       3.643   9.235   3.892  1.00 36.09    -0.350 OA
BRANCH  21  22
HETATM   22  C07   D T 601       3.551  10.638   3.519  1.00 42.63     0.195 C 
BRANCH  22  23
HETATM   23  C06   D T 601       3.953  10.792   2.018  1.00 46.85     0.143 C 
BRANCH  23  24
HETATM   24  N03   D T 601       4.999  11.855   1.770  1.00 51.06    -0.411 N 
BRANCH  24  25
HETATM   25  C02   D T 601       5.981  11.763   0.605  1.00 53.85     0.112 C 
HETATM   26  C01   D T 601       7.420  11.211   0.873  1.00 52.69     0.026 C 
ENDBRANCH  24  25
BRANCH  24  27
HETATM   27  C04   D T 601       4.940  13.073   2.652  1.00 47.80     0.112 C 
HETATM   28  C05   D T 601       6.159  13.389   3.562  1.00 44.89     0.026 C 
ENDBRANCH  24  27
ENDBRANCH  23  24
ENDBRANCH  22  23
ENDBRANCH  21  22
ENDBRANCH  18  21
ENDBRANCH  13  15
ENDBRANCH   1  13
BRANCH   8  29
HETATM   29  C26   D T 601      14.163   9.555  10.567  1.00 21.63     0.023 A 
HETATM   30  C27   D T 601      14.439  10.756  11.277  1.00 22.75     0.046 A 
HETATM   31 CL28   D T 601      13.180  11.776  11.750  1.00 22.59    -0.083 Cl
HETATM   32  C29   D T 601      15.767  11.158  11.576  1.00 24.08     0.025 A 
HETATM   33  C30   D T 601      16.849  10.328  11.204  1.00 25.63     0.003 A 
HETATM   34  C31   D T 601      16.593   9.129  10.525  1.00 25.41     0.025 A 
HETATM   35  C32   D T 601      15.265   8.745  10.208  1.00 23.77     0.046 A 
HETATM   36 CL33   D T 601      15.025   7.289   9.381  1.00 25.94    -0.083 Cl
ENDBRANCH   8  29
TORSDOF 9
ENDMDL
MODEL 4
REMARK VINA RESULT:    -6.632      7.196     13.220
REMARK INTER + INTRA:         -11.491
REMARK INTER:                 -10.125
REMARK INTRA:                  -1.366
REMARK UNBOUND:                -1.370
REMARK  9 active torsions:
REMARK  status: ('A' for Active; 'I' for Inactive)
REMARK    1  A    between atoms: C02_2  and  N03_3 
REMARK    2  A    between atoms: N03_3  and  C04_4 
REMARK    3  A    between atoms: N03_3  and  C06_6 
REMARK    4  A    between atoms: C06_6  and  C07_7 
REMARK    5  A    between atoms: C07_7  and  O08_8 
REMARK    6  A    between atoms: O08_8  and  C09_9 
REMARK    7  A    between atoms: C12_12  and  N13_13 
REMARK    8  A    between atoms: N13_13  and  C14_14 
REMARK    9  A    between atoms: C21_21  and  C26_26 
ROOT
HETATM    1  C14   D T 601       9.303  11.905   0.621  1.00 17.92     0.728 A 
HETATM    2  N15   D T 601      10.330  12.709   0.275  1.00 19.07    -0.044 NA
HETATM    3  C16   D T 601      10.287  13.603  -0.722  1.00 18.16     0.163 A 
HETATM    4  C17   D T 601       9.111  13.691  -1.469  1.00 16.80     0.030 A 
HETATM    5  C18   D T 601       8.058  12.833  -1.144  1.00 18.08     0.151 A 
HETATM    6  N19   D T 601       8.180  11.968  -0.114  1.00 16.91    -0.074 NA
HETATM    7  C20   D T 601       9.030  14.606  -2.538  1.00 17.65     0.034 A 
HETATM    8  C21   D T 601      10.120  15.439  -2.835  1.00 18.53     0.047 A 
HETATM    9  C22   D T 601      11.289  15.302  -2.046  1.00 19.48     0.260 A 
HETATM   10  O23   D T 601      12.236  16.044  -2.382  1.00 21.52    -0.267 OA
HETATM   11  N24   D T 601      11.366  14.405  -0.998  1.00 19.49    -0.301 N 
HETATM   12  C25   D T 601      12.544  14.268  -0.157  1.00 20.07     0.161 C 
ENDROOT
BRANCH   1  13
HETATM   13  N13   D T 601       9.437  11.051   1.647  1.00 20.14    -0.188 N 
HETATM   14 1H13   D T 601      10.032  10.368   1.502  1.00 24.16     0.184 HD
BRANCH  13  15
HETATM   15  C12   D T 601       8.827  11.031   2.883  1.00 24.69     0.049 A 
HETATM   16  C11   D T 601       9.281  10.048   3.801  1.00 26.89     0.033 A 
HETATM   17  C10   D T 601       8.728   9.966   5.097  1.00 28.95     0.039 A 
HETATM   18  C09   D T 601       7.727  10.881   5.492  1.00 30.95     0.069 A 
HETATM   19  C35   D T 601       7.298  11.875   4.593  1.00 28.80     0.039 A 
HETATM   20  C34   D T 601       7.839  11.934   3.304  1.00 26.81     0.033 A 
BRANCH  18  21
HETATM   21  O08   D T 601       7.211  10.857   6.740  1.00 36.09    -0.350 OA
BRANCH  21  22
HETATM   22  C07   D T 601       7.401   9.610   7.464  1.00 42.63     0.195 C 
BRANCH  22  23
HETATM   23  C06   D T 601       6.005   9.038   7.866  1.00 46.85     0.143 C 
BRANCH  23  24
HETATM   24  N03   D T 601       5.478   7.984   6.919  1.00 51.06    -0.411 N 
BRANCH  24  25
HETATM   25  C02   D T 601       5.199   8.288   5.449  1.00 53.85     0.112 C 
HETATM   26  C01   D T 601       4.275   9.498   5.091  1.00 52.69     0.026 C 
ENDBRANCH  24  25
BRANCH  24  27
HETATM   27  C04   D T 601       5.367   6.586   7.466  1.00 47.80     0.112 C 
HETATM   28  C05   D T 601       4.638   5.512   6.612  1.00 44.89     0.026 C 
ENDBRANCH  24  27
ENDBRANCH  23  24
ENDBRANCH  22  23
ENDBRANCH  21  22
ENDBRANCH  18  21
ENDBRANCH  13  15
ENDBRANCH   1  13
BRANCH   8  29
HETATM   29  C26   D T 601      10.055  16.389  -3.905  1.00 21.63     0.023 A 
HETATM   30  C27   D T 601       9.558  17.701  -3.668  1.00 22.75     0.046 A 
HETATM   31 CL28   D T 601       8.991  18.135  -2.138  1.00 22.59    -0.083 Cl
HETATM   32  C29   D T 601       9.483  18.670  -4.703  1.00 24.08     0.025 A 
HETATM   33  C30   D T 601       9.954  18.347  -5.996  1.00 25.63     0.003 A 
HETATM   34  C31   D T 601      10.469  17.067  -6.241  1.00 25.41     0.025 A 
HETATM   35  C32   D T 601      10.519  16.097  -5.207  1.00 23.77     0.046 A 
HETATM   36 CL33   D T 601      11.146  14.568  -5.571  1.00 25.94    -0.083 Cl
ENDBRANCH   8  29
TORSDOF 9
ENDMDL
MODEL 5
REMARK VINA RESULT:    -6.556      5.534     11.759
REMARK INTER + INTRA:         -11.376
REMARK INTER:                 -10.577
REMARK INTRA:                  -0.799
REMARK UNBOUND:                -1.370
REMARK  9 active torsions:
REMARK  status: ('A' for Active; 'I' for Inactive)
REMARK    1  A    between atoms: C02_2  and  N03_3 
REMARK    2  A    between atoms: N03_3  and  C04_4 
REMARK    3  A    between atoms: N03_3  and  C06_6 
REMARK    4  A    between atoms: C06_6  and  C07_7 
REMARK    5  A    between atoms: C07_7  and  O08_8 
REMARK    6  A    between atoms: O08_8  and  C09_9 
REMARK    7  A    between atoms: C12_12  and  N13_13 
REMARK    8  A    between atoms: N13_13  and  C14_14 
REMARK    9  A    between atoms: C21_21  and  C26_26 
ROOT
HETATM    1  C14   D T 601       5.677  13.013   0.751  1.00 17.92     0.728 A 
HETATM    2  N15   D T 601       6.929  12.541   0.927  1.00 19.07    -0.044 NA
HETATM    3  C16   D T 601       8.035  13.148   0.479  1.00 18.16     0.163 A 
HETATM    4  C17   D T 601       7.883  14.335  -0.240  1.00 16.80     0.030 A 
HETATM    5  C18   D T 601       6.587  14.807  -0.463  1.00 18.08     0.151 A 
HETATM    6  N19   D T 601       5.525  14.139   0.034  1.00 16.91    -0.074 NA
HETATM    7  C20   D T 601       9.020  14.997  -0.745  1.00 17.65     0.034 A 
HETATM    8  C21   D T 601      10.301  14.475  -0.506  1.00 18.53     0.047 A 
HETATM    9  C22   D T 601      10.395  13.266   0.226  1.00 19.48     0.260 A 
HETATM   10  O23   D T 601      11.557  12.834   0.375  1.00 21.52    -0.267 OA
HETATM   11  N24   D T 601       9.279  12.619   0.721  1.00 19.49    -0.301 N 
HETATM   12  C25   D T 601       9.353  11.393   1.499  1.00 20.07     0.161 C 
ENDROOT
BRANCH   1  13
HETATM   13  N13   D T 601       4.630  12.340   1.252  1.00 20.14    -0.188 N 
HETATM   14 1H13   D T 601       3.841  12.467   0.800  1.00 24.16     0.184 HD
BRANCH  13  15
HETATM   15  C12   D T 601       4.544  11.489   2.333  1.00 24.69     0.049 A 
HETATM   16  C11   D T 601       5.635  11.500   3.241  1.00 26.89     0.033 A 
HETATM   17  C10   D T 601       5.624  10.675   4.386  1.00 28.95     0.039 A 
HETATM   18  C09   D T 601       4.510   9.845   4.642  1.00 30.95     0.069 A 
HETATM   19  C35   D T 601       3.416   9.856   3.759  1.00 28.80     0.039 A 
HETATM   20  C34   D T 601       3.446  10.663   2.616  1.00 26.81     0.033 A 
BRANCH  18  21
HETATM   21  O08   D T 601       4.451   9.079   5.754  1.00 36.09    -0.350 OA
BRANCH  21  22
HETATM   22  C07   D T 601       5.681   8.379   6.089  1.00 42.63     0.195 C 
BRANCH  22  23
HETATM   23  C06   D T 601       6.127   8.795   7.526  1.00 46.85     0.143 C 
BRANCH  23  24
HETATM   24  N03   D T 601       7.605   9.087   7.649  1.00 51.06    -0.411 N 
BRANCH  24  25
HETATM   25  C02   D T 601       8.557   8.137   8.371  1.00 53.85     0.112 C 
HETATM   26  C01   D T 601       9.740   8.739   9.200  1.00 52.69     0.026 C 
ENDBRANCH  24  25
BRANCH  24  27
HETATM   27  C04   D T 601       8.115  10.296   6.910  1.00 47.80     0.112 C 
HETATM   28  C05   D T 601       9.151  10.087   5.772  1.00 44.89     0.026 C 
ENDBRANCH  24  27
ENDBRANCH  23  24
ENDBRANCH  22  23
ENDBRANCH  21  22
ENDBRANCH  18  21
ENDBRANCH  13  15
ENDBRANCH   1  13
BRANCH   8  29
HETATM   29  C26   D T 601      11.473  15.140  -0.992  1.00 21.63     0.023 A 
HETATM   30  C27   D T 601      12.224  15.988  -0.132  1.00 22.75     0.046 A 
HETATM   31 CL28   D T 601      11.714  16.263   1.453  1.00 22.59    -0.083 Cl
HETATM   32  C29   D T 601      13.393  16.660  -0.580  1.00 24.08     0.025 A 
HETATM   33  C30   D T 601      13.856  16.451  -1.898  1.00 25.63     0.003 A 
HETATM   34  C31   D T 601      13.141  15.598  -2.751  1.00 25.41     0.025 A 
HETATM   35  C32   D T 601      11.962  14.950  -2.305  1.00 23.77     0.046 A 
HETATM   36 CL33   D T 601      11.142  13.940  -3.387  1.00 25.94    -0.083 Cl
ENDBRANCH   8  29
TORSDOF 9
ENDMDL
MODEL 6
REMARK VINA RESULT:    -6.474      3.729      5.670
REMARK INTER + INTRA:         -11.250
REMARK INTER:                 -10.308
REMARK INTRA:                  -0.942
REMARK UNBOUND:                -1.370
REMARK  9 active torsions:
REMARK  status: ('A' for Active; 'I' for Inactive)
REMARK    1  A    between atoms: C02_2  and  N03_3 
REMARK    2  A    between atoms: N03_3  and  C04_4 
REMARK    3  A    between atoms: N03_3  and  C06_6 
REMARK    4  A    between atoms: C06_6  and  C07_7 
REMARK    5  A    between atoms: C07_7  and  O08_8 
REMARK    6  A    between atoms: O08_8  and  C09_9 
REMARK    7  A    between atoms: C12_12  and  N13_13 
REMARK    8  A    between atoms: N13_13  and  C14_14 
REMARK    9  A    between atoms: C21_21  and  C26_26 
ROOT
HETATM    1  C14   D T 601       7.570  11.502   4.586  1.00 17.92     0.728 A 
HETATM    2  N15   D T 601       7.318  10.705   5.645  1.00 19.07    -0.044 NA
HETATM    3  C16   D T 601       8.261  10.194   6.448  1.00 18.16     0.163 A 
HETATM    4  C17   D T 601       9.595  10.484   6.154  1.00 16.80     0.030 A 
HETATM    5  C18   D T 601       9.866  11.274   5.033  1.00 18.08     0.151 A 
HETATM    6  N19   D T 601       8.853  11.759   4.284  1.00 16.91    -0.074 NA
HETATM    7  C20   D T 601      10.619   9.952   6.962  1.00 17.65     0.034 A 
HETATM    8  C21   D T 601      10.298   9.152   8.069  1.00 18.53     0.047 A 
HETATM    9  C22   D T 601       8.928   8.887   8.317  1.00 19.48     0.260 A 
HETATM   10  O23   D T 601       8.707   8.141   9.294  1.00 21.52    -0.267 OA
HETATM   11  N24   D T 601       7.925   9.411   7.523  1.00 19.49    -0.301 N 
HETATM   12  C25   D T 601       6.512   9.177   7.775  1.00 20.07     0.161 C 
ENDROOT
BRANCH   1  13
HETATM   13  N13   D T 601       6.554  11.979   3.850  1.00 20.14    -0.188 N 
HETATM   14 1H13   D T 601       5.761  12.067   4.303  1.00 24.16     0.184 HD
BRANCH  13  15
HETATM   15  C12   D T 601       6.507  12.359   2.526  1.00 24.69     0.049 A 
HETATM   16  C11   D T 601       6.427  11.316   1.566  1.00 26.89     0.033 A 
HETATM   17  C10   D T 601       6.355  11.612   0.188  1.00 28.95     0.039 A 
HETATM   18  C09   D T 601       6.343  12.958  -0.240  1.00 30.95     0.069 A 
HETATM   19  C35   D T 601       6.392  13.993   0.711  1.00 28.80     0.039 A 
HETATM   20  C34   D T 601       6.483  13.687   2.074  1.00 26.81     0.033 A 
BRANCH  18  21
HETATM   21  O08   D T 601       6.229  13.273  -1.549  1.00 36.09    -0.350 OA
BRANCH  21  22
HETATM   22  C07   D T 601       5.700  14.600  -1.822  1.00 42.63     0.195 C 
BRANCH  22  23
HETATM   23  C06   D T 601       5.790  14.876  -3.357  1.00 46.85     0.143 C 
BRANCH  23  24
HETATM   24  N03   D T 601       4.450  14.888  -4.057  1.00 51.06    -0.411 N 
BRANCH  24  25
HETATM   25  C02   D T 601       4.335  15.000  -5.575  1.00 53.85     0.112 C 
HETATM   26  C01   D T 601       4.051  16.402  -6.209  1.00 52.69     0.026 C 
ENDBRANCH  24  25
BRANCH  24  27
HETATM   27  C04   D T 601       3.240  14.653  -3.193  1.00 47.80     0.112 C 
HETATM   28  C05   D T 601       1.960  14.069  -3.854  1.00 44.89     0.026 C 
ENDBRANCH  24  27
ENDBRANCH  23  24
ENDBRANCH  22  23
ENDBRANCH  21  22
ENDBRANCH  18  21
ENDBRANCH  13  15
ENDBRANCH   1  13
BRANCH   8  29
HETATM   29  C26   D T 601      11.321   8.615   8.916  1.00 21.63     0.023 A 
HETATM   30  C27   D T 601      11.729   7.260   8.777  1.00 22.75     0.046 A 
HETATM   31 CL28   D T 601      10.975   6.254   7.651  1.00 22.59    -0.083 Cl
HETATM   32  C29   D T 601      12.742   6.697   9.597  1.00 24.08     0.025 A 
HETATM   33  C30   D T 601      13.402   7.509  10.548  1.00 25.63     0.003 A 
HETATM   34  C31   D T 601      13.029   8.853  10.680  1.00 25.41     0.025 A 
HETATM   35  C32   D T 601      12.000   9.402   9.874  1.00 23.77     0.046 A 
HETATM   36 CL33   D T 601      11.593  11.030  10.090  1.00 25.94    -0.083 Cl
ENDBRANCH   8  29
TORSDOF 9
ENDMDL
MODEL 7
REMARK VINA RESULT:    -6.446      1.103      2.139
REMARK INTER + INTRA:         -11.208
REMARK INTER:                 -10.018
REMARK INTRA:                  -1.190
REMARK UNBOUND:                -1.370
REMARK  9 active torsions:
REMARK  status: ('A' for Active; 'I' for Inactive)
REMARK    1  A    between atoms: C02_2  and  N03_3 
REMARK    2  A    between atoms: N03_3  and  C04_4 
REMARK    3  A    between atoms: N03_3  and  C06_6 
REMARK    4  A    between atoms: C06_6  and  C07_7 
REMARK    5  A    between atoms: C07_7  and  O08_8 
REMARK    6  A    between atoms: O08_8  and  C09_9 
REMARK    7  A    between atoms: C12_12  and  N13_13 
REMARK    8  A    between atoms: N13_13  and  C14_14 
REMARK    9  A    between atoms: C21_21  and  C26_26 
ROOT
HETATM    1  C14   D T 601      10.553   9.851   7.480  1.00 17.92     0.728 A 
HETATM    2  N15   D T 601      11.130  10.243   8.635  1.00 19.07    -0.044 NA
HETATM    3  C16   D T 601      11.363   9.432   9.676  1.00 18.16     0.163 A 
HETATM    4  C17   D T 601      10.960   8.099   9.569  1.00 16.80     0.030 A 
HETATM    5  C18   D T 601      10.323   7.697   8.392  1.00 18.08     0.151 A 
HETATM    6  N19   D T 601      10.137   8.577   7.385  1.00 16.91    -0.074 NA
HETATM    7  C20   D T 601      11.170   7.218  10.648  1.00 17.65     0.034 A 
HETATM    8  C21   D T 601      11.802   7.673  11.815  1.00 18.53     0.047 A 
HETATM    9  C22   D T 601      12.186   9.035  11.870  1.00 19.48     0.260 A 
HETATM   10  O23   D T 601      12.710   9.389  12.947  1.00 21.52    -0.267 OA
HETATM   11  N24   D T 601      11.979   9.898  10.811  1.00 19.49    -0.301 N 
HETATM   12  C25   D T 601      12.390  11.293  10.833  1.00 20.07     0.161 C 
ENDROOT
BRANCH   1  13
HETATM   13  N13   D T 601      10.375  10.735   6.486  1.00 20.14    -0.188 N 
HETATM   14 1H13   D T 601      11.140  11.158   6.209  1.00 24.16     0.184 HD
BRANCH  13  15
HETATM   15  C12   D T 601       9.233  11.111   5.814  1.00 24.69     0.049 A 
HETATM   16  C11   D T 601       9.414  11.840   4.609  1.00 26.89     0.033 A 
HETATM   17  C10   D T 601       8.300  12.250   3.844  1.00 28.95     0.039 A 
HETATM   18  C09   D T 601       6.996  11.916   4.270  1.00 30.95     0.069 A 
HETATM   19  C35   D T 601       6.817  11.169   5.448  1.00 28.80     0.039 A 
HETATM   20  C34   D T 601       7.926  10.785   6.209  1.00 26.81     0.033 A 
BRANCH  18  21
HETATM   21  O08   D T 601       5.914  12.255   3.535  1.00 36.09    -0.350 OA
BRANCH  21  22
HETATM   22  C07   D T 601       6.056  13.469   2.746  1.00 42.63     0.195 C 
BRANCH  22  23
HETATM   23  C06   D T 601       5.346  13.267   1.371  1.00 46.85     0.143 C 
BRANCH  23  24
HETATM   24  N03   D T 601       6.297  13.046   0.217  1.00 51.06    -0.411 N 
BRANCH  24  25
HETATM   25  C02   D T 601       6.414  14.040  -0.935  1.00 53.85     0.112 C 
HETATM   26  C01   D T 601       6.375  13.504  -2.404  1.00 52.69     0.026 C 
ENDBRANCH  24  25
BRANCH  24  27
HETATM   27  C04   D T 601       7.218  11.859   0.324  1.00 47.80     0.112 C 
HETATM   28  C05   D T 601       8.744  12.086   0.141  1.00 44.89     0.026 C 
ENDBRANCH  24  27
ENDBRANCH  23  24
ENDBRANCH  22  23
ENDBRANCH  21  22
ENDBRANCH  18  21
ENDBRANCH  13  15
ENDBRANCH   1  13
BRANCH   8  29
HETATM   29  C26   D T 601      12.044   6.790  12.917  1.00 21.63     0.023 A 
HETATM   30  C27   D T 601      13.300   6.136  13.048  1.00 22.75     0.046 A 
HETATM   31 CL28   D T 601      14.499   6.349  11.880  1.00 22.59    -0.083 Cl
HETATM   32  C29   D T 601      13.576   5.257  14.130  1.00 24.08     0.025 A 
HETATM   33  C30   D T 601      12.600   5.057  15.132  1.00 25.63     0.003 A 
HETATM   34  C31   D T 601      11.366   5.714  15.032  1.00 25.41     0.025 A 
HETATM   35  C32   D T 601      11.089   6.571  13.936  1.00 23.77     0.046 A 
HETATM   36 CL33   D T 601       9.577   7.327  13.870  1.00 25.94    -0.083 Cl
ENDBRANCH   8  29
TORSDOF 9
ENDMDL
MODEL 8
REMARK VINA RESULT:    -6.440      6.856     13.404
REMARK INTER + INTRA:         -11.198
REMARK INTER:                  -9.829
REMARK INTRA:                  -1.369
REMARK UNBOUND:                -1.370
REMARK  9 active torsions:
REMARK  status: ('A' for Active; 'I' for Inactive)
REMARK    1  A    between atoms: C02_2  and  N03_3 
REMARK    2  A    between atoms: N03_3  and  C04_4 
REMARK    3  A    between atoms: N03_3  and  C06_6 
REMARK    4  A    between atoms: C06_6  and  C07_7 
REMARK    5  A    between atoms: C07_7  and  O08_8 
REMARK    6  A    between atoms: O08_8  and  C09_9 
REMARK    7  A    between atoms: C12_12  and  N13_13 
REMARK    8  A    between atoms: N13_13  and  C14_14 
REMARK    9  A    between atoms: C21_21  and  C26_26 
ROOT
HETATM    1  C14   D T 601       7.784  12.525   1.134  1.00 17.92     0.728 A 
HETATM    2  N15   D T 601       8.678  13.401   0.631  1.00 19.07    -0.044 NA
HETATM    3  C16   D T 601       8.354  14.477  -0.099  1.00 18.16     0.163 A 
HETATM    4  C17   D T 601       7.003  14.692  -0.380  1.00 16.80     0.030 A 
HETATM    5  C18   D T 601       6.075  13.766   0.101  1.00 18.08     0.151 A 
HETATM    6  N19   D T 601       6.486  12.713   0.841  1.00 16.91    -0.074 NA
HETATM    7  C20   D T 601       6.621  15.802  -1.160  1.00 17.65     0.034 A 
HETATM    8  C21   D T 601       7.592  16.698  -1.633  1.00 18.53     0.047 A 
HETATM    9  C22   D T 601       8.947  16.427  -1.320  1.00 19.48     0.260 A 
HETATM   10  O23   D T 601       9.767  17.239  -1.798  1.00 21.52    -0.267 OA
HETATM   11  N24   D T 601       9.320  15.339  -0.555  1.00 19.49    -0.301 N 
HETATM   12  C25   D T 601      10.702  15.057  -0.197  1.00 20.07     0.161 C 
ENDROOT
BRANCH   1  13
HETATM   13  N13   D T 601       8.205  11.484   1.869  1.00 20.14    -0.188 N 
HETATM   14 1H13   D T 601       8.660  10.842   1.397  1.00 24.16     0.184 HD
BRANCH  13  15
HETATM   15  C12   D T 601       8.067  11.221   3.214  1.00 24.69     0.049 A 
HETATM   16  C11   D T 601       8.936  10.243   3.765  1.00 26.89     0.033 A 
HETATM   17  C10   D T 601       8.878   9.923   5.138  1.00 28.95     0.039 A 
HETATM   18  C09   D T 601       7.961  10.594   5.977  1.00 30.95     0.069 A 
HETATM   19  C35   D T 601       7.121  11.585   5.438  1.00 28.80     0.039 A 
HETATM   20  C34   D T 601       7.173  11.881   4.071  1.00 26.81     0.033 A 
BRANCH  18  21
HETATM   21  O08   D T 601       7.915  10.342   7.304  1.00 36.09    -0.350 OA
BRANCH  21  22
HETATM   22  C07   D T 601       7.849   8.935   7.664  1.00 42.63     0.195 C 
BRANCH  22  23
HETATM   23  C06   D T 601       6.441   8.630   8.267  1.00 46.85     0.143 C 
BRANCH  23  24
HETATM   24  N03   D T 601       5.509   7.914   7.316  1.00 51.06    -0.411 N 
BRANCH  24  25
HETATM   25  C02   D T 601       5.461   6.391   7.227  1.00 53.85     0.112 C 
HETATM   26  C01   D T 601       4.299   5.717   6.425  1.00 52.69     0.026 C 
ENDBRANCH  24  25
BRANCH  24  27
HETATM   27  C04   D T 601       4.538   8.775   6.552  1.00 47.80     0.112 C 
HETATM   28  C05   D T 601       4.744   8.946   5.022  1.00 44.89     0.026 C 
ENDBRANCH  24  27
ENDBRANCH  23  24
ENDBRANCH  22  23
ENDBRANCH  21  22
ENDBRANCH  18  21
ENDBRANCH  13  15
ENDBRANCH   1  13
BRANCH   8  29
HETATM   29  C26   D T 601       7.226  17.843  -2.411  1.00 21.63     0.023 A 
HETATM   30  C27   D T 601       7.034  17.724  -3.815  1.00 22.75     0.046 A 
HETATM   31 CL28   D T 601       7.288  16.245  -4.588  1.00 22.59    -0.083 Cl
HETATM   32  C29   D T 601       6.666  18.838  -4.616  1.00 24.08     0.025 A 
HETATM   33  C30   D T 601       6.438  20.091  -4.005  1.00 25.63     0.003 A 
HETATM   34  C31   D T 601       6.598  20.221  -2.618  1.00 25.41     0.025 A 
HETATM   35  C32   D T 601       6.989  19.109  -1.829  1.00 23.77     0.046 A 
HETATM   36 CL33   D T 601       7.173  19.334  -0.162  1.00 25.94    -0.083 Cl
ENDBRANCH   8  29
TORSDOF 9
ENDMDL
MODEL 9
REMARK VINA RESULT:    -6.288      7.204     13.656
REMARK INTER + INTRA:         -10.967
REMARK INTER:                  -9.741
REMARK INTRA:                  -1.226
REMARK UNBOUND:                -1.370
REMARK  9 active torsions:
REMARK  status: ('A' for Active; 'I' for Inactive)
REMARK    1  A    between atoms: C02_2  and  N03_3 
REMARK    2  A    between atoms: N03_3  and  C04_4 
REMARK    3  A    between atoms: N03_3  and  C06_6 
REMARK    4  A    between atoms: C06_6  and  C07_7 
REMARK    5  A    between atoms: C07_7  and  O08_8 
REMARK    6  A    between atoms: O08_8  and  C09_9 
REMARK    7  A    between atoms: C12_12  and  N13_13 
REMARK    8  A    between atoms: N13_13  and  C14_14 
REMARK    9  A    between atoms: C21_21  and  C26_26 
ROOT
HETATM    1  C14   D T 601       8.487  12.994   0.395  1.00 17.92     0.728 A 
HETATM    2  N15   D T 601       7.997  13.650  -0.676  1.00 19.07    -0.044 NA
HETATM    3  C16   D T 601       8.750  14.287  -1.583  1.00 18.16     0.163 A 
HETATM    4  C17   D T 601      10.134  14.294  -1.392  1.00 16.80     0.030 A 
HETATM    5  C18   D T 601      10.646  13.654  -0.262  1.00 18.08     0.151 A 
HETATM    6  N19   D T 601       9.815  13.024   0.597  1.00 16.91    -0.074 NA
HETATM    7  C20   D T 601      10.961  14.968  -2.312  1.00 17.65     0.034 A 
HETATM    8  C21   D T 601      10.398  15.610  -3.426  1.00 18.53     0.047 A 
HETATM    9  C22   D T 601       8.989  15.573  -3.566  1.00 19.48     0.260 A 
HETATM   10  O23   D T 601       8.545  16.192  -4.557  1.00 21.52    -0.267 OA
HETATM   11  N24   D T 601       8.179  14.912  -2.663  1.00 19.49    -0.301 N 
HETATM   12  C25   D T 601       6.733  14.836  -2.802  1.00 20.07     0.161 C 
ENDROOT
BRANCH   1  13
HETATM   13  N13   D T 601       7.652  12.372   1.241  1.00 20.14    -0.188 N 
HETATM   14 1H13   D T 601       6.842  12.138   0.876  1.00 24.16     0.184 HD
BRANCH  13  15
HETATM   15  C12   D T 601       7.809  12.025   2.565  1.00 24.69     0.049 A 
HETATM   16  C11   D T 601       7.000  12.717   3.505  1.00 26.89     0.033 A 
HETATM   17  C10   D T 601       7.081  12.414   4.881  1.00 28.95     0.039 A 
HETATM   18  C09   D T 601       7.958  11.400   5.326  1.00 30.95     0.069 A 
HETATM   19  C35   D T 601       8.738  10.694   4.393  1.00 28.80     0.039 A 
HETATM   20  C34   D T 601       8.665  11.016   3.033  1.00 26.81     0.033 A 
BRANCH  18  21
HETATM   21  O08   D T 601       8.023  11.057   6.632  1.00 36.09    -0.350 OA
BRANCH  21  22
HETATM   22  C07   D T 601       8.065   9.627   6.894  1.00 42.63     0.195 C 
BRANCH  22  23
HETATM   23  C06   D T 601       6.778   9.216   7.677  1.00 46.85     0.143 C 
BRANCH  23  24
HETATM   24  N03   D T 601       5.900   8.231   6.938  1.00 51.06    -0.411 N 
BRANCH  24  25
HETATM   25  C02   D T 601       5.415   8.493   5.515  1.00 53.85     0.112 C 
HETATM   26  C01   D T 601       4.116   9.339   5.304  1.00 52.69     0.026 C 
ENDBRANCH  24  25
BRANCH  24  27
HETATM   27  C04   D T 601       5.635   6.920   7.629  1.00 47.80     0.112 C 
HETATM   28  C05   D T 601       4.878   5.811   6.848  1.00 44.89     0.026 C 
ENDBRANCH  24  27
ENDBRANCH  23  24
ENDBRANCH  22  23
ENDBRANCH  21  22
ENDBRANCH  18  21
ENDBRANCH  13  15
ENDBRANCH   1  13
BRANCH   8  29
HETATM   29  C26   D T 601      11.221  16.284  -4.385  1.00 21.63     0.023 A 
HETATM   30  C27   D T 601      11.533  17.662  -4.219  1.00 22.75     0.046 A 
HETATM   31 CL28   D T 601      10.895  18.530  -2.920  1.00 22.59    -0.083 Cl
HETATM   32  C29   D T 601      12.349  18.361  -5.148  1.00 24.08     0.025 A 
HETATM   33  C30   D T 601      12.908  17.667  -6.245  1.00 25.63     0.003 A 
HETATM   34  C31   D T 601      12.631  16.303  -6.410  1.00 25.41     0.025 A 
HETATM   35  C32   D T 601      11.796  15.618  -5.492  1.00 23.77     0.046 A 
HETATM   36 CL33   D T 601      11.495  13.974  -5.753  1.00 25.94    -0.083 Cl
ENDBRANCH   8  29
TORSDOF 9
ENDMDL
