MODEL 1
REMARK VINA RESULT:    -7.512      0.000      0.000
REMARK INTER + INTRA:         -13.055
REMARK INTER:                 -11.464
REMARK INTRA:                  -1.591
REMARK UNBOUND:                -1.591
REMARK  9 active torsions:
REMARK  status: ('A' for Active; 'I' for Inactive)
REMARK    1  A    between atoms: C02_2  and  N03_3 
REMARK    2  A    between atoms: N03_3  and  C04_4 
REMARK    3  A    between atoms: N03_3  and  C06_6 
REMARK    4  A    between atoms: C06_6  and  C07_7 
REMARK    5  A    between atoms: C07_7  and  O08_8 
REMARK    6  A    between atoms: O08_8  and  C09_9 
REMARK    7  A    between atoms: C12_12  and  N13_13 
REMARK    8  A    between atoms: N13_13  and  C14_14 
REMARK    9  A    between atoms: C21_21  and  C26_26 
ROOT
HETATM    1  C14   D T 601      -5.740  -9.551 -15.540  1.00 17.92     0.728 A 
HETATM    2  N15   D T 601      -4.858  -8.535 -15.630  1.00 19.07    -0.044 NA
HETATM    3  C16   D T 601      -4.625  -7.831 -16.747  1.00 18.16     0.163 A 
HETATM    4  C17   D T 601      -5.324  -8.191 -17.901  1.00 16.80     0.030 A 
HETATM    5  C18   D T 601      -6.208  -9.269 -17.826  1.00 18.08     0.151 A 
HETATM    6  N19   D T 601      -6.392  -9.917 -16.656  1.00 16.91    -0.074 NA
HETATM    7  C20   D T 601      -5.097  -7.488 -19.101  1.00 17.65     0.034 A 
HETATM    8  C21   D T 601      -4.187  -6.420 -19.130  1.00 18.53     0.047 A 
HETATM    9  C22   D T 601      -3.503  -6.103 -17.931  1.00 19.48     0.260 A 
HETATM   10  O23   D T 601      -2.682  -5.167 -18.027  1.00 21.52    -0.267 OA
HETATM   11  N24   D T 601      -3.728  -6.791 -16.753  1.00 19.49    -0.301 N 
HETATM   12  C25   D T 601      -3.061  -6.466 -15.503  1.00 20.07     0.161 C 
ENDROOT
BRANCH   1  13
HETATM   13  N13   D T 601      -5.915 -10.185 -14.370  1.00 20.14    -0.188 N 
HETATM   14 1H13   D T 601      -5.325 -10.869 -14.214  1.00 24.16     0.184 HD
BRANCH  13  15
HETATM   15  C12   D T 601      -6.835  -9.977 -13.366  1.00 24.69     0.049 A 
HETATM   16  C11   D T 601      -6.683 -10.759 -12.191  1.00 26.89     0.033 A 
HETATM   17  C10   D T 601      -7.569 -10.599 -11.103  1.00 28.95     0.039 A 
HETATM   18  C09   D T 601      -8.603  -9.641 -11.175  1.00 30.95     0.069 A 
HETATM   19  C35   D T 601      -8.737  -8.846 -12.328  1.00 28.80     0.039 A 
HETATM   20  C34   D T 601      -7.865  -9.025 -13.407  1.00 26.81     0.033 A 
BRANCH  18  21
HETATM   21  O08   D T 601      -9.437  -9.434 -10.133  1.00 36.09    -0.350 OA
BRANCH  21  22
HETATM   22  C07   D T 601     -10.459  -8.422 -10.348  1.00 42.63     0.195 C 
BRANCH  22  23
HETATM   23  C06   D T 601     -11.846  -9.003  -9.931  1.00 46.85     0.143 C 
BRANCH  23  24
HETATM   24  N03   D T 601     -12.302 -10.169 -10.777  1.00 51.06    -0.411 N 
BRANCH  24  25
HETATM   25  C02   D T 601     -12.340 -11.595 -10.232  1.00 53.85     0.112 C 
HETATM   26  C01   D T 601     -11.134 -12.547 -10.522  1.00 52.69     0.026 C 
ENDBRANCH  24  25
BRANCH  24  27
HETATM   27  C04   D T 601     -12.843  -9.838 -12.143  1.00 47.80     0.112 C 
HETATM   28  C05   D T 601     -11.986 -10.201 -13.387  1.00 44.89     0.026 C 
ENDBRANCH  24  27
ENDBRANCH  23  24
ENDBRANCH  22  23
ENDBRANCH  21  22
ENDBRANCH  18  21
ENDBRANCH  13  15
ENDBRANCH   1  13
BRANCH   8  29
HETATM   29  C26   D T 601      -3.953  -5.680 -20.333  1.00 21.63     0.023 A 
HETATM   30  C27   D T 601      -4.812  -4.603 -20.691  1.00 22.75     0.046 A 
HETATM   31 CL28   D T 601      -6.145  -4.221 -19.730  1.00 22.59    -0.083 Cl
HETATM   32  C29   D T 601      -4.607  -3.846 -21.874  1.00 24.08     0.025 A 
HETATM   33  C30   D T 601      -3.498  -4.131 -22.701  1.00 25.63     0.003 A 
HETATM   34  C31   D T 601      -2.627  -5.172 -22.353  1.00 25.41     0.025 A 
HETATM   35  C32   D T 601      -2.852  -5.939 -21.182  1.00 23.77     0.046 A 
HETATM   36 CL33   D T 601      -1.768  -7.188 -20.820  1.00 25.94    -0.083 Cl
ENDBRANCH   8  29
TORSDOF 9
ENDMDL
MODEL 2
REMARK VINA RESULT:    -7.492      0.277      1.551
REMARK INTER + INTRA:         -13.026
REMARK INTER:                 -11.386
REMARK INTRA:                  -1.640
REMARK UNBOUND:                -1.591
REMARK  9 active torsions:
REMARK  status: ('A' for Active; 'I' for Inactive)
REMARK    1  A    between atoms: C02_2  and  N03_3 
REMARK    2  A    between atoms: N03_3  and  C04_4 
REMARK    3  A    between atoms: N03_3  and  C06_6 
REMARK    4  A    between atoms: C06_6  and  C07_7 
REMARK    5  A    between atoms: C07_7  and  O08_8 
REMARK    6  A    between atoms: O08_8  and  C09_9 
REMARK    7  A    between atoms: C12_12  and  N13_13 
REMARK    8  A    between atoms: N13_13  and  C14_14 
REMARK    9  A    between atoms: C21_21  and  C26_26 
ROOT
HETATM    1  C14   D T 601      -5.749  -9.632 -15.636  1.00 17.92     0.728 A 
HETATM    2  N15   D T 601      -4.860  -8.618 -15.664  1.00 19.07    -0.044 NA
HETATM    3  C16   D T 601      -4.561  -7.904 -16.758  1.00 18.16     0.163 A 
HETATM    4  C17   D T 601      -5.193  -8.250 -17.954  1.00 16.80     0.030 A 
HETATM    5  C18   D T 601      -6.082  -9.326 -17.942  1.00 18.08     0.151 A 
HETATM    6  N19   D T 601      -6.336  -9.985 -16.792  1.00 16.91    -0.074 NA
HETATM    7  C20   D T 601      -4.893  -7.536 -19.132  1.00 17.65     0.034 A 
HETATM    8  C21   D T 601      -3.981  -6.471 -19.097  1.00 18.53     0.047 A 
HETATM    9  C22   D T 601      -3.367  -6.168 -17.857  1.00 19.48     0.260 A 
HETATM   10  O23   D T 601      -2.539  -5.234 -17.895  1.00 21.52    -0.267 OA
HETATM   11  N24   D T 601      -3.663  -6.867 -16.702  1.00 19.49    -0.301 N 
HETATM   12  C25   D T 601      -3.068  -6.557 -15.411  1.00 20.07     0.161 C 
ENDROOT
BRANCH   1  13
HETATM   13  N13   D T 601      -5.994 -10.277 -14.484  1.00 20.14    -0.188 N 
HETATM   14 1H13   D T 601      -5.509 -11.047 -14.367  1.00 24.16     0.184 HD
BRANCH  13  15
HETATM   15  C12   D T 601      -6.852  -9.973 -13.451  1.00 24.69     0.049 A 
HETATM   16  C11   D T 601      -6.710 -10.733 -12.260  1.00 26.89     0.033 A 
HETATM   17  C10   D T 601      -7.534 -10.478 -11.143  1.00 28.95     0.039 A 
HETATM   18  C09   D T 601      -8.496  -9.445 -11.201  1.00 30.95     0.069 A 
HETATM   19  C35   D T 601      -8.618  -8.673 -12.371  1.00 28.80     0.039 A 
HETATM   20  C34   D T 601      -7.809  -8.946 -13.478  1.00 26.81     0.033 A 
BRANCH  18  21
HETATM   21  O08   D T 601      -9.267  -9.148 -10.133  1.00 36.09    -0.350 OA
BRANCH  21  22
HETATM   22  C07   D T 601     -10.479  -8.403 -10.432  1.00 42.63     0.195 C 
BRANCH  22  23
HETATM   23  C06   D T 601     -11.707  -9.179  -9.861  1.00 46.85     0.143 C 
BRANCH  23  24
HETATM   24  N03   D T 601     -12.130 -10.362 -10.701  1.00 51.06    -0.411 N 
BRANCH  24  25
HETATM   25  C02   D T 601     -12.004 -11.797 -10.196  1.00 53.85     0.112 C 
HETATM   26  C01   D T 601     -10.581 -12.438 -10.087  1.00 52.69     0.026 C 
ENDBRANCH  24  25
BRANCH  24  27
HETATM   27  C04   D T 601     -12.804 -10.049 -12.011  1.00 47.80     0.112 C 
HETATM   28  C05   D T 601     -11.951 -10.080 -13.309  1.00 44.89     0.026 C 
ENDBRANCH  24  27
ENDBRANCH  23  24
ENDBRANCH  22  23
ENDBRANCH  21  22
ENDBRANCH  18  21
ENDBRANCH  13  15
ENDBRANCH   1  13
BRANCH   8  29
HETATM   29  C26   D T 601      -3.675  -5.719 -20.276  1.00 21.63     0.023 A 
HETATM   30  C27   D T 601      -2.601  -6.116 -21.122  1.00 22.75     0.046 A 
HETATM   31 CL28   D T 601      -1.644  -7.445 -20.715  1.00 22.59    -0.083 Cl
HETATM   32  C29   D T 601      -2.272  -5.396 -22.300  1.00 24.08     0.025 A 
HETATM   33  C30   D T 601      -3.055  -4.282 -22.678  1.00 25.63     0.003 A 
HETATM   34  C31   D T 601      -4.131  -3.890 -21.870  1.00 25.41     0.025 A 
HETATM   35  C32   D T 601      -4.438  -4.600 -20.683  1.00 23.77     0.046 A 
HETATM   36 CL33   D T 601      -5.746  -4.072 -19.747  1.00 25.94    -0.083 Cl
ENDBRANCH   8  29
TORSDOF 9
ENDMDL
MODEL 3
REMARK VINA RESULT:    -7.113      1.369      2.245
REMARK INTER + INTRA:         -12.448
REMARK INTER:                 -10.987
REMARK INTRA:                  -1.460
REMARK UNBOUND:                -1.591
REMARK  9 active torsions:
REMARK  status: ('A' for Active; 'I' for Inactive)
REMARK    1  A    between atoms: C02_2  and  N03_3 
REMARK    2  A    between atoms: N03_3  and  C04_4 
REMARK    3  A    between atoms: N03_3  and  C06_6 
REMARK    4  A    between atoms: C06_6  and  C07_7 
REMARK    5  A    between atoms: C07_7  and  O08_8 
REMARK    6  A    between atoms: O08_8  and  C09_9 
REMARK    7  A    between atoms: C12_12  and  N13_13 
REMARK    8  A    between atoms: N13_13  and  C14_14 
REMARK    9  A    between atoms: C21_21  and  C26_26 
ROOT
HETATM    1  C14   D T 601      -5.403  -9.157 -15.663  1.00 17.92     0.728 A 
HETATM    2  N15   D T 601      -5.574  -9.316 -16.991  1.00 19.07    -0.044 NA
HETATM    3  C16   D T 601      -5.180  -8.431 -17.916  1.00 18.16     0.163 A 
HETATM    4  C17   D T 601      -4.575  -7.253 -17.474  1.00 16.80     0.030 A 
HETATM    5  C18   D T 601      -4.434  -7.061 -16.099  1.00 18.08     0.151 A 
HETATM    6  N19   D T 601      -4.848  -8.011 -15.234  1.00 16.91    -0.074 NA
HETATM    7  C20   D T 601      -4.162  -6.286 -18.414  1.00 17.65     0.034 A 
HETATM    8  C21   D T 601      -4.339  -6.518 -19.787  1.00 18.53     0.047 A 
HETATM    9  C22   D T 601      -4.963  -7.729 -20.177  1.00 19.48     0.260 A 
HETATM   10  O23   D T 601      -5.124  -7.864 -21.408  1.00 21.52    -0.267 OA
HETATM   11  N24   D T 601      -5.366  -8.677 -19.255  1.00 19.49    -0.301 N 
HETATM   12  C25   D T 601      -5.981  -9.939 -19.631  1.00 20.07     0.161 C 
ENDROOT
BRANCH   1  13
HETATM   13  N13   D T 601      -5.818 -10.111 -14.814  1.00 20.14    -0.188 N 
HETATM   14 1H13   D T 601      -5.479 -10.946 -14.983  1.00 24.16     0.184 HD
BRANCH  13  15
HETATM   15  C12   D T 601      -6.667 -10.041 -13.731  1.00 24.69     0.049 A 
HETATM   16  C11   D T 601      -6.305 -10.799 -12.588  1.00 26.89     0.033 A 
HETATM   17  C10   D T 601      -7.107 -10.773 -11.426  1.00 28.95     0.039 A 
HETATM   18  C09   D T 601      -8.268  -9.970 -11.393  1.00 30.95     0.069 A 
HETATM   19  C35   D T 601      -8.612  -9.196 -12.516  1.00 28.80     0.039 A 
HETATM   20  C34   D T 601      -7.821  -9.244 -13.668  1.00 26.81     0.033 A 
BRANCH  18  21
HETATM   21  O08   D T 601      -9.029  -9.889 -10.280  1.00 36.09    -0.350 OA
BRANCH  21  22
HETATM   22  C07   D T 601      -9.726  -8.626 -10.096  1.00 42.63     0.195 C 
BRANCH  22  23
HETATM   23  C06   D T 601     -11.241  -8.913  -9.853  1.00 46.85     0.143 C 
BRANCH  23  24
HETATM   24  N03   D T 601     -12.068  -8.957 -11.117  1.00 51.06    -0.411 N 
BRANCH  24  25
HETATM   25  C02   D T 601     -12.580  -7.688 -11.792  1.00 53.85     0.112 C 
HETATM   26  C01   D T 601     -11.607  -6.872 -12.706  1.00 52.69     0.026 C 
ENDBRANCH  24  25
BRANCH  24  27
HETATM   27  C04   D T 601     -12.251 -10.311 -11.753  1.00 47.80     0.112 C 
HETATM   28  C05   D T 601     -12.237 -10.410 -13.303  1.00 44.89     0.026 C 
ENDBRANCH  24  27
ENDBRANCH  23  24
ENDBRANCH  22  23
ENDBRANCH  21  22
ENDBRANCH  18  21
ENDBRANCH  13  15
ENDBRANCH   1  13
BRANCH   8  29
HETATM   29  C26   D T 601      -3.910  -5.561 -20.760  1.00 21.63     0.023 A 
HETATM   30  C27   D T 601      -4.716  -4.424 -21.052  1.00 22.75     0.046 A 
HETATM   31 CL28   D T 601      -6.209  -4.221 -20.291  1.00 22.59    -0.083 Cl
HETATM   32  C29   D T 601      -4.320  -3.453 -22.009  1.00 24.08     0.025 A 
HETATM   33  C30   D T 601      -3.074  -3.585 -22.661  1.00 25.63     0.003 A 
HETATM   34  C31   D T 601      -2.256  -4.685 -22.370  1.00 25.41     0.025 A 
HETATM   35  C32   D T 601      -2.669  -5.662 -21.430  1.00 23.77     0.046 A 
HETATM   36 CL33   D T 601      -1.639  -6.971 -21.128  1.00 25.94    -0.083 Cl
ENDBRANCH   8  29
TORSDOF 9
ENDMDL
MODEL 4
REMARK VINA RESULT:    -6.990      4.870      6.700
REMARK INTER + INTRA:         -12.259
REMARK INTER:                 -10.780
REMARK INTRA:                  -1.480
REMARK UNBOUND:                -1.591
REMARK  9 active torsions:
REMARK  status: ('A' for Active; 'I' for Inactive)
REMARK    1  A    between atoms: C02_2  and  N03_3 
REMARK    2  A    between atoms: N03_3  and  C04_4 
REMARK    3  A    between atoms: N03_3  and  C06_6 
REMARK    4  A    between atoms: C06_6  and  C07_7 
REMARK    5  A    between atoms: C07_7  and  O08_8 
REMARK    6  A    between atoms: O08_8  and  C09_9 
REMARK    7  A    between atoms: C12_12  and  N13_13 
REMARK    8  A    between atoms: N13_13  and  C14_14 
REMARK    9  A    between atoms: C21_21  and  C26_26 
ROOT
HETATM    1  C14   D T 601      -6.109 -11.484 -14.922  1.00 17.92     0.728 A 
HETATM    2  N15   D T 601      -6.778 -11.142 -16.042  1.00 19.07    -0.044 NA
HETATM    3  C16   D T 601      -7.003 -11.969 -17.072  1.00 18.16     0.163 A 
HETATM    4  C17   D T 601      -6.489 -13.265 -16.991  1.00 16.80     0.030 A 
HETATM    5  C18   D T 601      -5.759 -13.613 -15.854  1.00 18.08     0.151 A 
HETATM    6  N19   D T 601      -5.588 -12.722 -14.855  1.00 16.91    -0.074 NA
HETATM    7  C20   D T 601      -6.688 -14.162 -18.060  1.00 17.65     0.034 A 
HETATM    8  C21   D T 601      -7.417 -13.760 -19.190  1.00 18.53     0.047 A 
HETATM    9  C22   D T 601      -7.911 -12.432 -19.219  1.00 19.48     0.260 A 
HETATM   10  O23   D T 601      -8.521 -12.122 -20.264  1.00 21.52    -0.267 OA
HETATM   11  N24   D T 601      -7.717 -11.554 -18.169  1.00 19.49    -0.301 N 
HETATM   12  C25   D T 601      -8.239 -10.197 -18.163  1.00 20.07     0.161 C 
ENDROOT
BRANCH   1  13
HETATM   13  N13   D T 601      -5.949 -10.588 -13.936  1.00 20.14    -0.188 N 
HETATM   14 1H13   D T 601      -5.189 -10.078 -14.003  1.00 24.16     0.184 HD
BRANCH  13  15
HETATM   15  C12   D T 601      -6.737 -10.308 -12.841  1.00 24.69     0.049 A 
HETATM   16  C11   D T 601      -7.682  -9.259 -12.989  1.00 26.89     0.033 A 
HETATM   17  C10   D T 601      -8.545  -8.916 -11.925  1.00 28.95     0.039 A 
HETATM   18  C09   D T 601      -8.482  -9.634 -10.711  1.00 30.95     0.069 A 
HETATM   19  C35   D T 601      -7.565 -10.693 -10.574  1.00 28.80     0.039 A 
HETATM   20  C34   D T 601      -6.703 -11.012 -11.628  1.00 26.81     0.033 A 
BRANCH  18  21
HETATM   21  O08   D T 601      -9.325  -9.359  -9.693  1.00 36.09    -0.350 OA
BRANCH  21  22
HETATM   22  C07   D T 601     -10.663  -9.911  -9.829  1.00 42.63     0.195 C 
BRANCH  22  23
HETATM   23  C06   D T 601     -11.694  -8.740  -9.878  1.00 46.85     0.143 C 
BRANCH  23  24
HETATM   24  N03   D T 601     -12.468  -8.657 -11.173  1.00 51.06    -0.411 N 
BRANCH  24  25
HETATM   25  C02   D T 601     -12.645  -9.868 -12.086  1.00 53.85     0.112 C 
HETATM   26  C01   D T 601     -11.789  -9.961 -13.392  1.00 52.69     0.026 C 
ENDBRANCH  24  25
BRANCH  24  27
HETATM   27  C04   D T 601     -13.169  -7.354 -11.455  1.00 47.80     0.112 C 
HETATM   28  C05   D T 601     -12.554  -6.395 -12.511  1.00 44.89     0.026 C 
ENDBRANCH  24  27
ENDBRANCH  23  24
ENDBRANCH  22  23
ENDBRANCH  21  22
ENDBRANCH  18  21
ENDBRANCH  13  15
ENDBRANCH   1  13
BRANCH   8  29
HETATM   29  C26   D T 601      -7.648 -14.659 -20.280  1.00 21.63     0.023 A 
HETATM   30  C27   D T 601      -6.726 -14.727 -21.362  1.00 22.75     0.046 A 
HETATM   31 CL28   D T 601      -5.378 -13.712 -21.397  1.00 22.59    -0.083 Cl
HETATM   32  C29   D T 601      -6.922 -15.609 -22.456  1.00 24.08     0.025 A 
HETATM   33  C30   D T 601      -8.035 -16.480 -22.459  1.00 25.63     0.003 A 
HETATM   34  C31   D T 601      -8.941 -16.444 -21.391  1.00 25.41     0.025 A 
HETATM   35  C32   D T 601      -8.751 -15.544 -20.313  1.00 23.77     0.046 A 
HETATM   36 CL33   D T 601      -9.885 -15.544 -19.057  1.00 25.94    -0.083 Cl
ENDBRANCH   8  29
TORSDOF 9
ENDMDL
MODEL 5
REMARK VINA RESULT:    -6.826      1.487      2.781
REMARK INTER + INTRA:         -12.008
REMARK INTER:                 -10.383
REMARK INTRA:                  -1.625
REMARK UNBOUND:                -1.591
REMARK  9 active torsions:
REMARK  status: ('A' for Active; 'I' for Inactive)
REMARK    1  A    between atoms: C02_2  and  N03_3 
REMARK    2  A    between atoms: N03_3  and  C04_4 
REMARK    3  A    between atoms: N03_3  and  C06_6 
REMARK    4  A    between atoms: C06_6  and  C07_7 
REMARK    5  A    between atoms: C07_7  and  O08_8 
REMARK    6  A    between atoms: O08_8  and  C09_9 
REMARK    7  A    between atoms: C12_12  and  N13_13 
REMARK    8  A    between atoms: N13_13  and  C14_14 
REMARK    9  A    between atoms: C21_21  and  C26_26 
ROOT
HETATM    1  C14   D T 601      -6.017  -9.173 -14.479  1.00 17.92     0.728 A 
HETATM    2  N15   D T 601      -6.204  -9.408 -15.794  1.00 19.07    -0.044 NA
HETATM    3  C16   D T 601      -5.686  -8.660 -16.778  1.00 18.16     0.163 A 
HETATM    4  C17   D T 601      -4.924  -7.548 -16.418  1.00 16.80     0.030 A 
HETATM    5  C18   D T 601      -4.761  -7.273 -15.059  1.00 18.08     0.151 A 
HETATM    6  N19   D T 601      -5.308  -8.086 -14.131  1.00 16.91    -0.074 NA
HETATM    7  C20   D T 601      -4.375  -6.724 -17.421  1.00 17.65     0.034 A 
HETATM    8  C21   D T 601      -4.578  -7.033 -18.775  1.00 18.53     0.047 A 
HETATM    9  C22   D T 601      -5.364  -8.171 -19.081  1.00 19.48     0.260 A 
HETATM   10  O23   D T 601      -5.539  -8.376 -20.301  1.00 21.52    -0.267 OA
HETATM   11  N24   D T 601      -5.900  -8.980 -18.096  1.00 19.49    -0.301 N 
HETATM   12  C25   D T 601      -6.685 -10.169 -18.385  1.00 20.07     0.161 C 
ENDROOT
BRANCH   1  13
HETATM   13  N13   D T 601      -6.565  -9.991 -13.567  1.00 20.14    -0.188 N 
HETATM   14 1H13   D T 601      -6.271 -10.860 -13.607  1.00 24.16     0.184 HD
BRANCH  13  15
HETATM   15  C12   D T 601      -7.494  -9.742 -12.581  1.00 24.69     0.049 A 
HETATM   16  C11   D T 601      -8.531  -8.828 -12.900  1.00 26.89     0.033 A 
HETATM   17  C10   D T 601      -9.538  -8.528 -11.957  1.00 28.95     0.039 A 
HETATM   18  C09   D T 601      -9.525  -9.155 -10.692  1.00 30.95     0.069 A 
HETATM   19  C35   D T 601      -8.513 -10.083 -10.385  1.00 28.80     0.039 A 
HETATM   20  C34   D T 601      -7.510 -10.360 -11.320  1.00 26.81     0.033 A 
BRANCH  18  21
HETATM   21  O08   D T 601     -10.499  -8.922  -9.786  1.00 36.09    -0.350 OA
BRANCH  21  22
HETATM   22  C07   D T 601     -10.901 -10.075  -8.997  1.00 42.63     0.195 C 
BRANCH  22  23
HETATM   23  C06   D T 601     -12.457 -10.189  -9.019  1.00 46.85     0.143 C 
BRANCH  23  24
HETATM   24  N03   D T 601     -13.056 -10.156 -10.406  1.00 51.06    -0.411 N 
BRANCH  24  25
HETATM   25  C02   D T 601     -12.897 -11.319 -11.381  1.00 53.85     0.112 C 
HETATM   26  C01   D T 601     -12.144 -11.077 -12.731  1.00 52.69     0.026 C 
ENDBRANCH  24  25
BRANCH  24  27
HETATM   27  C04   D T 601     -13.928  -8.973 -10.733  1.00 47.80     0.112 C 
HETATM   28  C05   D T 601     -13.292  -7.765 -11.475  1.00 44.89     0.026 C 
ENDBRANCH  24  27
ENDBRANCH  23  24
ENDBRANCH  22  23
ENDBRANCH  21  22
ENDBRANCH  18  21
ENDBRANCH  13  15
ENDBRANCH   1  13
BRANCH   8  29
HETATM   29  C26   D T 601      -4.016  -6.222 -19.812  1.00 21.63     0.023 A 
HETATM   30  C27   D T 601      -2.769  -6.573 -20.401  1.00 22.75     0.046 A 
HETATM   31 CL28   D T 601      -1.916  -7.920 -19.848  1.00 22.59    -0.083 Cl
HETATM   32  C29   D T 601      -2.184  -5.794 -21.433  1.00 24.08     0.025 A 
HETATM   33  C30   D T 601      -2.872  -4.663 -21.928  1.00 25.63     0.003 A 
HETATM   34  C31   D T 601      -4.112  -4.315 -21.376  1.00 25.41     0.025 A 
HETATM   35  C32   D T 601      -4.678  -5.085 -20.330  1.00 23.77     0.046 A 
HETATM   36 CL33   D T 601      -6.176  -4.607 -19.701  1.00 25.94    -0.083 Cl
ENDBRANCH   8  29
TORSDOF 9
ENDMDL
MODEL 6
REMARK VINA RESULT:    -6.785      4.660     10.855
REMARK INTER + INTRA:         -11.947
REMARK INTER:                 -10.365
REMARK INTRA:                  -1.582
REMARK UNBOUND:                -1.591
REMARK  9 active torsions:
REMARK  status: ('A' for Active; 'I' for Inactive)
REMARK    1  A    between atoms: C02_2  and  N03_3 
REMARK    2  A    between atoms: N03_3  and  C04_4 
REMARK    3  A    between atoms: N03_3  and  C06_6 
REMARK    4  A    between atoms: C06_6  and  C07_7 
REMARK    5  A    between atoms: C07_7  and  O08_8 
REMARK    6  A    between atoms: O08_8  and  C09_9 
REMARK    7  A    between atoms: C12_12  and  N13_13 
REMARK    8  A    between atoms: N13_13  and  C14_14 
REMARK    9  A    between atoms: C21_21  and  C26_26 
ROOT
HETATM    1  C14   D T 601      -4.450  -7.308 -17.793  1.00 17.92     0.728 A 
HETATM    2  N15   D T 601      -5.371  -8.167 -17.310  1.00 19.07    -0.044 NA
HETATM    3  C16   D T 601      -5.175  -9.485 -17.167  1.00 18.16     0.163 A 
HETATM    4  C17   D T 601      -3.945 -10.008 -17.571  1.00 16.80     0.030 A 
HETATM    5  C18   D T 601      -3.002  -9.132 -18.112  1.00 18.08     0.151 A 
HETATM    6  N19   D T 601      -3.276  -7.814 -18.209  1.00 16.91    -0.074 NA
HETATM    7  C20   D T 601      -3.704 -11.392 -17.455  1.00 17.65     0.034 A 
HETATM    8  C21   D T 601      -4.688 -12.235 -16.918  1.00 18.53     0.047 A 
HETATM    9  C22   D T 601      -5.919 -11.650 -16.530  1.00 19.48     0.260 A 
HETATM   10  O23   D T 601      -6.767 -12.455 -16.092  1.00 21.52    -0.267 OA
HETATM   11  N24   D T 601      -6.153 -10.293 -16.642  1.00 19.49    -0.301 N 
HETATM   12  C25   D T 601      -7.396  -9.664 -16.224  1.00 20.07     0.161 C 
ENDROOT
BRANCH   1  13
HETATM   13  N13   D T 601      -4.735  -5.999 -17.882  1.00 20.14    -0.188 N 
HETATM   14 1H13   D T 601      -4.980  -5.607 -17.089  1.00 24.16     0.184 HD
BRANCH  13  15
HETATM   15  C12   D T 601      -4.720  -5.149 -18.966  1.00 24.69     0.049 A 
HETATM   16  C11   D T 601      -3.572  -4.328 -19.115  1.00 26.89     0.033 A 
HETATM   17  C10   D T 601      -3.463  -3.440 -20.207  1.00 28.95     0.039 A 
HETATM   18  C09   D T 601      -4.494  -3.381 -21.171  1.00 30.95     0.069 A 
HETATM   19  C35   D T 601      -5.618  -4.216 -21.038  1.00 28.80     0.039 A 
HETATM   20  C34   D T 601      -5.726  -5.079 -19.943  1.00 26.81     0.033 A 
BRANCH  18  21
HETATM   21  O08   D T 601      -4.396  -2.575 -22.250  1.00 36.09    -0.350 OA
BRANCH  21  22
HETATM   22  C07   D T 601      -3.301  -2.883 -23.156  1.00 42.63     0.195 C 
BRANCH  22  23
HETATM   23  C06   D T 601      -3.846  -3.745 -24.337  1.00 46.85     0.143 C 
BRANCH  23  24
HETATM   24  N03   D T 601      -3.158  -5.082 -24.489  1.00 51.06    -0.411 N 
BRANCH  24  25
HETATM   25  C02   D T 601      -2.242  -5.390 -25.670  1.00 53.85     0.112 C 
HETATM   26  C01   D T 601      -1.792  -6.868 -25.913  1.00 52.69     0.026 C 
ENDBRANCH  24  25
BRANCH  24  27
HETATM   27  C04   D T 601      -3.317  -6.052 -23.347  1.00 47.80     0.112 C 
HETATM   28  C05   D T 601      -2.143  -6.212 -22.342  1.00 44.89     0.026 C 
ENDBRANCH  24  27
ENDBRANCH  23  24
ENDBRANCH  22  23
ENDBRANCH  21  22
ENDBRANCH  18  21
ENDBRANCH  13  15
ENDBRANCH   1  13
BRANCH   8  29
HETATM   29  C26   D T 601      -4.460 -13.641 -16.773  1.00 21.63     0.023 A 
HETATM   30  C27   D T 601      -4.851 -14.542 -17.803  1.00 22.75     0.046 A 
HETATM   31 CL28   D T 601      -5.635 -13.968 -19.183  1.00 22.59    -0.083 Cl
HETATM   32  C29   D T 601      -4.637 -15.940 -17.694  1.00 24.08     0.025 A 
HETATM   33  C30   D T 601      -3.977 -16.458 -16.558  1.00 25.63     0.003 A 
HETATM   34  C31   D T 601      -3.563 -15.585 -15.543  1.00 25.41     0.025 A 
HETATM   35  C32   D T 601      -3.802 -14.191 -15.649  1.00 23.77     0.046 A 
HETATM   36 CL33   D T 601      -3.284 -13.190 -14.386  1.00 25.94    -0.083 Cl
ENDBRANCH   8  29
TORSDOF 9
ENDMDL
MODEL 7
REMARK VINA RESULT:    -6.770      5.422     11.521
REMARK INTER + INTRA:         -11.923
REMARK INTER:                 -10.444
REMARK INTRA:                  -1.479
REMARK UNBOUND:                -1.591
REMARK  9 active torsions:
REMARK  status: ('A' for Active; 'I' for Inactive)
REMARK    1  A    between atoms: C02_2  and  N03_3 
REMARK    2  A    between atoms: N03_3  and  C04_4 
REMARK    3  A    between atoms: N03_3  and  C06_6 
REMARK    4  A    between atoms: C06_6  and  C07_7 
REMARK    5  A    between atoms: C07_7  and  O08_8 
REMARK    6  A    between atoms: O08_8  and  C09_9 
REMARK    7  A    between atoms: C12_12  and  N13_13 
REMARK    8  A    between atoms: N13_13  and  C14_14 
REMARK    9  A    between atoms: C21_21  and  C26_26 
ROOT
HETATM    1  C14   D T 601      -7.871  -9.553 -11.700  1.00 17.92     0.728 A 
HETATM    2  N15   D T 601      -7.140 -10.668 -11.498  1.00 19.07    -0.044 NA
HETATM    3  C16   D T 601      -7.497 -11.668 -10.680  1.00 18.16     0.163 A 
HETATM    4  C17   D T 601      -8.691 -11.534  -9.969  1.00 16.80     0.030 A 
HETATM    5  C18   D T 601      -9.431 -10.363 -10.141  1.00 18.08     0.151 A 
HETATM    6  N19   D T 601      -9.006  -9.409 -10.996  1.00 16.91    -0.074 NA
HETATM    7  C20   D T 601      -9.093 -12.554  -9.084  1.00 17.65     0.034 A 
HETATM    8  C21   D T 601      -8.307 -13.707  -8.934  1.00 18.53     0.047 A 
HETATM    9  C22   D T 601      -7.104 -13.786  -9.677  1.00 19.48     0.260 A 
HETATM   10  O23   D T 601      -6.430 -14.819  -9.476  1.00 21.52    -0.267 OA
HETATM   11  N24   D T 601      -6.711 -12.786 -10.546  1.00 19.49    -0.301 N 
HETATM   12  C25   D T 601      -5.495 -12.858 -11.341  1.00 20.07     0.161 C 
ENDROOT
BRANCH   1  13
HETATM   13  N13   D T 601      -7.437  -8.613 -12.556  1.00 20.14    -0.188 N 
HETATM   14 1H13   D T 601      -7.410  -7.764 -12.209  1.00 24.16     0.184 HD
BRANCH  13  15
HETATM   15  C12   D T 601      -7.026  -8.714 -13.867  1.00 24.69     0.049 A 
HETATM   16  C11   D T 601      -5.762  -8.153 -14.182  1.00 26.89     0.033 A 
HETATM   17  C10   D T 601      -5.252  -8.227 -15.497  1.00 28.95     0.039 A 
HETATM   18  C09   D T 601      -5.997  -8.881 -16.503  1.00 30.95     0.069 A 
HETATM   19  C35   D T 601      -7.237  -9.462 -16.184  1.00 28.80     0.039 A 
HETATM   20  C34   D T 601      -7.741  -9.367 -14.882  1.00 26.81     0.033 A 
BRANCH  18  21
HETATM   21  O08   D T 601      -5.515  -9.007 -17.758  1.00 36.09    -0.350 OA
BRANCH  21  22
HETATM   22  C07   D T 601      -6.029 -10.141 -18.508  1.00 42.63     0.195 C 
BRANCH  22  23
HETATM   23  C06   D T 601      -4.847 -11.102 -18.850  1.00 46.85     0.143 C 
BRANCH  23  24
HETATM   24  N03   D T 601      -4.546 -12.113 -17.767  1.00 51.06    -0.411 N 
BRANCH  24  25
HETATM   25  C02   D T 601      -3.554 -11.821 -16.644  1.00 53.85     0.112 C 
HETATM   26  C01   D T 601      -3.241 -12.944 -15.601  1.00 52.69     0.026 C 
ENDBRANCH  24  25
BRANCH  24  27
HETATM   27  C04   D T 601      -5.370 -13.373 -17.777  1.00 47.80     0.112 C 
HETATM   28  C05   D T 601      -6.698 -13.396 -16.971  1.00 44.89     0.026 C 
ENDBRANCH  24  27
ENDBRANCH  23  24
ENDBRANCH  22  23
ENDBRANCH  21  22
ENDBRANCH  18  21
ENDBRANCH  13  15
ENDBRANCH   1  13
BRANCH   8  29
HETATM   29  C26   D T 601      -8.705 -14.765  -8.055  1.00 21.63     0.023 A 
HETATM   30  C27   D T 601      -9.648 -15.740  -8.486  1.00 22.75     0.046 A 
HETATM   31 CL28   D T 601     -10.346 -15.630 -10.019  1.00 22.59    -0.083 Cl
HETATM   32  C29   D T 601     -10.062 -16.803  -7.643  1.00 24.08     0.025 A 
HETATM   33  C30   D T 601      -9.495 -16.933  -6.355  1.00 25.63     0.003 A 
HETATM   34  C31   D T 601      -8.548 -15.996  -5.922  1.00 25.41     0.025 A 
HETATM   35  C32   D T 601      -8.157 -14.924  -6.762  1.00 23.77     0.046 A 
HETATM   36 CL33   D T 601      -7.014 -13.821  -6.176  1.00 25.94    -0.083 Cl
ENDBRANCH   8  29
TORSDOF 9
ENDMDL
MODEL 8
REMARK VINA RESULT:    -6.768      4.604      6.274
REMARK INTER + INTRA:         -11.920
REMARK INTER:                 -10.202
REMARK INTRA:                  -1.718
REMARK UNBOUND:                -1.591
REMARK  9 active torsions:
REMARK  status: ('A' for Active; 'I' for Inactive)
REMARK    1  A    between atoms: C02_2  and  N03_3 
REMARK    2  A    between atoms: N03_3  and  C04_4 
REMARK    3  A    between atoms: N03_3  and  C06_6 
REMARK    4  A    between atoms: C06_6  and  C07_7 
REMARK    5  A    between atoms: C07_7  and  O08_8 
REMARK    6  A    between atoms: O08_8  and  C09_9 
REMARK    7  A    between atoms: C12_12  and  N13_13 
REMARK    8  A    between atoms: N13_13  and  C14_14 
REMARK    9  A    between atoms: C21_21  and  C26_26 
ROOT
HETATM    1  C14   D T 601      -5.819 -10.993 -17.283  1.00 17.92     0.728 A 
HETATM    2  N15   D T 601      -5.227  -9.842 -16.904  1.00 19.07    -0.044 NA
HETATM    3  C16   D T 601      -4.952  -8.825 -17.733  1.00 18.16     0.163 A 
HETATM    4  C17   D T 601      -5.275  -8.979 -19.082  1.00 16.80     0.030 A 
HETATM    5  C18   D T 601      -5.849 -10.185 -19.489  1.00 18.08     0.151 A 
HETATM    6  N19   D T 601      -6.105 -11.154 -18.586  1.00 16.91    -0.074 NA
HETATM    7  C20   D T 601      -4.985  -7.941 -19.991  1.00 17.65     0.034 A 
HETATM    8  C21   D T 601      -4.394  -6.752 -19.536  1.00 18.53     0.047 A 
HETATM    9  C22   D T 601      -4.083  -6.654 -18.157  1.00 19.48     0.260 A 
HETATM   10  O23   D T 601      -3.528  -5.588 -17.818  1.00 21.52    -0.267 OA
HETATM   11  N24   D T 601      -4.370  -7.672 -17.267  1.00 19.49    -0.301 N 
HETATM   12  C25   D T 601      -4.088  -7.584 -15.843  1.00 20.07     0.161 C 
ENDROOT
BRANCH   1  13
HETATM   13  N13   D T 601      -6.071 -11.949 -16.373  1.00 20.14    -0.188 N 
HETATM   14 1H13   D T 601      -6.620 -11.688 -15.687  1.00 24.16     0.184 HD
BRANCH  13  15
HETATM   15  C12   D T 601      -5.640 -13.255 -16.302  1.00 24.69     0.049 A 
HETATM   16  C11   D T 601      -6.645 -14.255 -16.238  1.00 26.89     0.033 A 
HETATM   17  C10   D T 601      -6.296 -15.621 -16.182  1.00 28.95     0.039 A 
HETATM   18  C09   D T 601      -4.935 -16.000 -16.210  1.00 30.95     0.069 A 
HETATM   19  C35   D T 601      -3.939 -15.011 -16.303  1.00 28.80     0.039 A 
HETATM   20  C34   D T 601      -4.296 -13.659 -16.339  1.00 26.81     0.033 A 
BRANCH  18  21
HETATM   21  O08   D T 601      -4.572 -17.300 -16.204  1.00 36.09    -0.350 OA
BRANCH  21  22
HETATM   22  C07   D T 601      -3.616 -17.672 -15.173  1.00 42.63     0.195 C 
BRANCH  22  23
HETATM   23  C06   D T 601      -4.319 -17.607 -13.781  1.00 46.85     0.143 C 
BRANCH  23  24
HETATM   24  N03   D T 601      -3.760 -16.545 -12.861  1.00 51.06    -0.411 N 
BRANCH  24  25
HETATM   25  C02   D T 601      -4.666 -15.624 -12.047  1.00 53.85     0.112 C 
HETATM   26  C01   D T 601      -5.217 -14.322 -12.716  1.00 52.69     0.026 C 
ENDBRANCH  24  25
BRANCH  24  27
HETATM   27  C04   D T 601      -2.264 -16.527 -12.687  1.00 47.80     0.112 C 
HETATM   28  C05   D T 601      -1.447 -15.423 -13.411  1.00 44.89     0.026 C 
ENDBRANCH  24  27
ENDBRANCH  23  24
ENDBRANCH  22  23
ENDBRANCH  21  22
ENDBRANCH  18  21
ENDBRANCH  13  15
ENDBRANCH   1  13
BRANCH   8  29
HETATM   29  C26   D T 601      -4.107  -5.676 -20.436  1.00 21.63     0.023 A 
HETATM   30  C27   D T 601      -2.909  -5.683 -21.204  1.00 22.75     0.046 A 
HETATM   31 CL28   D T 601      -1.789  -6.932 -21.022  1.00 22.59    -0.083 Cl
HETATM   32  C29   D T 601      -2.595  -4.635 -22.108  1.00 24.08     0.025 A 
HETATM   33  C30   D T 601      -3.511  -3.576 -22.293  1.00 25.63     0.003 A 
HETATM   34  C31   D T 601      -4.708  -3.564 -21.564  1.00 25.41     0.025 A 
HETATM   35  C32   D T 601      -5.003  -4.602 -20.645  1.00 23.77     0.046 A 
HETATM   36 CL33   D T 601      -6.461  -4.526 -19.789  1.00 25.94    -0.083 Cl
ENDBRANCH   8  29
TORSDOF 9
ENDMDL
MODEL 9
REMARK VINA RESULT:    -6.759      1.609      2.357
REMARK INTER + INTRA:         -11.906
REMARK INTER:                 -10.676
REMARK INTRA:                  -1.230
REMARK UNBOUND:                -1.591
REMARK  9 active torsions:
REMARK  status: ('A' for Active; 'I' for Inactive)
REMARK    1  A    between atoms: C02_2  and  N03_3 
REMARK    2  A    between atoms: N03_3  and  C04_4 
REMARK    3  A    between atoms: N03_3  and  C06_6 
REMARK    4  A    between atoms: C06_6  and  C07_7 
REMARK    5  A    between atoms: C07_7  and  O08_8 
REMARK    6  A    between atoms: O08_8  and  C09_9 
REMARK    7  A    between atoms: C12_12  and  N13_13 
REMARK    8  A    between atoms: N13_13  and  C14_14 
REMARK    9  A    between atoms: C21_21  and  C26_26 
ROOT
HETATM    1  C14   D T 601      -5.279  -8.864 -15.411  1.00 17.92     0.728 A 
HETATM    2  N15   D T 601      -5.549  -9.048 -16.719  1.00 19.07    -0.044 NA
HETATM    3  C16   D T 601      -5.124  -8.240 -17.700  1.00 18.16     0.163 A 
HETATM    4  C17   D T 601      -4.373  -7.119 -17.341  1.00 16.80     0.030 A 
HETATM    5  C18   D T 601      -4.126  -6.899 -15.985  1.00 18.08     0.151 A 
HETATM    6  N19   D T 601      -4.581  -7.770 -15.061  1.00 16.91    -0.074 NA
HETATM    7  C20   D T 601      -3.922  -6.233 -18.341  1.00 17.65     0.034 A 
HETATM    8  C21   D T 601      -4.208  -6.489 -19.690  1.00 18.53     0.047 A 
HETATM    9  C22   D T 601      -4.978  -7.639 -19.995  1.00 19.48     0.260 A 
HETATM   10  O23   D T 601      -5.230  -7.795 -21.208  1.00 21.52    -0.267 OA
HETATM   11  N24   D T 601      -5.419  -8.508 -19.015  1.00 19.49    -0.301 N 
HETATM   12  C25   D T 601      -6.184  -9.709 -19.304  1.00 20.07     0.161 C 
ENDROOT
BRANCH   1  13
HETATM   13  N13   D T 601      -5.736  -9.740 -14.502  1.00 20.14    -0.188 N 
HETATM   14 1H13   D T 601      -5.214 -10.487 -14.395  1.00 24.16     0.184 HD
BRANCH  13  15
HETATM   15  C12   D T 601      -6.859  -9.703 -13.705  1.00 24.69     0.049 A 
HETATM   16  C11   D T 601      -6.738 -10.268 -12.409  1.00 26.89     0.033 A 
HETATM   17  C10   D T 601      -7.833 -10.256 -11.517  1.00 28.95     0.039 A 
HETATM   18  C09   D T 601      -9.052  -9.660 -11.909  1.00 30.95     0.069 A 
HETATM   19  C35   D T 601      -9.162  -9.074 -13.183  1.00 28.80     0.039 A 
HETATM   20  C34   D T 601      -8.078  -9.108 -14.066  1.00 26.81     0.033 A 
BRANCH  18  21
HETATM   21  O08   D T 601     -10.101  -9.593 -11.061  1.00 36.09    -0.350 OA
BRANCH  21  22
HETATM   22  C07   D T 601      -9.762  -9.665  -9.648  1.00 42.63     0.195 C 
BRANCH  22  23
HETATM   23  C06   D T 601     -11.020 -10.122  -8.846  1.00 46.85     0.143 C 
BRANCH  23  24
HETATM   24  N03   D T 601     -11.010 -11.585  -8.469  1.00 51.06    -0.411 N 
BRANCH  24  25
HETATM   25  C02   D T 601     -11.613 -12.086  -7.160  1.00 53.85     0.112 C 
HETATM   26  C01   D T 601     -11.382 -13.576  -6.741  1.00 52.69     0.026 C 
ENDBRANCH  24  25
BRANCH  24  27
HETATM   27  C04   D T 601     -10.491 -12.543  -9.510  1.00 47.80     0.112 C 
HETATM   28  C05   D T 601     -11.448 -12.987 -10.651  1.00 44.89     0.026 C 
ENDBRANCH  24  27
ENDBRANCH  23  24
ENDBRANCH  22  23
ENDBRANCH  21  22
ENDBRANCH  18  21
ENDBRANCH  13  15
ENDBRANCH   1  13
BRANCH   8  29
HETATM   29  C26   D T 601      -3.745  -5.614 -20.724  1.00 21.63     0.023 A 
HETATM   30  C27   D T 601      -4.467  -4.429 -21.039  1.00 22.75     0.046 A 
HETATM   31 CL28   D T 601      -5.905  -4.069 -20.233  1.00 22.59    -0.083 Cl
HETATM   32  C29   D T 601      -4.034  -3.538 -22.055  1.00 24.08     0.025 A 
HETATM   33  C30   D T 601      -2.831  -3.801 -22.747  1.00 25.63     0.003 A 
HETATM   34  C31   D T 601      -2.094  -4.951 -22.435  1.00 25.41     0.025 A 
HETATM   35  C32   D T 601      -2.545  -5.848 -21.435  1.00 23.77     0.046 A 
HETATM   36 CL33   D T 601      -1.612  -7.223 -21.110  1.00 25.94    -0.083 Cl
ENDBRANCH   8  29
TORSDOF 9
ENDMDL
