MODEL 1
REMARK VINA RESULT:    -7.936      0.000      0.000
REMARK INTER + INTRA:         -14.008
REMARK INTER:                 -12.111
REMARK INTRA:                  -1.897
REMARK UNBOUND:                -1.897
REMARK  9 active torsions:
REMARK  status: ('A' for Active; 'I' for Inactive)
REMARK    1  A    between atoms: C02_2  and  N03_3 
REMARK    2  A    between atoms: N03_3  and  C04_4 
REMARK    3  A    between atoms: N03_3  and  C06_6 
REMARK    4  A    between atoms: C06_6  and  C07_7 
REMARK    5  A    between atoms: C07_7  and  O08_8 
REMARK    6  A    between atoms: O08_8  and  C09_9 
REMARK    7  A    between atoms: C12_12  and  N13_13 
REMARK    8  A    between atoms: N13_13  and  C14_14 
REMARK    9  A    between atoms: C21_21  and  C26_26 
ROOT
HETATM    1  C14   D T 601      -0.153   4.797   6.856  1.00 17.92     0.728 A 
HETATM    2  N15   D T 601      -0.330   4.240   8.071  1.00 19.07    -0.044 NA
HETATM    3  C16   D T 601      -0.678   2.962   8.273  1.00 18.16     0.163 A 
HETATM    4  C17   D T 601      -0.900   2.161   7.151  1.00 16.80     0.030 A 
HETATM    5  C18   D T 601      -0.760   2.744   5.889  1.00 18.08     0.151 A 
HETATM    6  N19   D T 601      -0.393   4.037   5.775  1.00 16.91    -0.074 NA
HETATM    7  C20   D T 601      -1.285   0.817   7.318  1.00 17.65     0.034 A 
HETATM    8  C21   D T 601      -1.426   0.280   8.608  1.00 18.53     0.047 A 
HETATM    9  C22   D T 601      -1.193   1.140   9.709  1.00 19.48     0.260 A 
HETATM   10  O23   D T 601      -1.369   0.616  10.830  1.00 21.52    -0.267 OA
HETATM   11  N24   D T 601      -0.814   2.458   9.543  1.00 19.49    -0.301 N 
HETATM   12  C25   D T 601      -0.541   3.352  10.657  1.00 20.07     0.161 C 
ENDROOT
BRANCH   1  13
HETATM   13  N13   D T 601       0.214   6.085   6.756  1.00 20.14    -0.188 N 
HETATM   14 1H13   D T 601      -0.441   6.645   6.442  1.00 24.16     0.184 HD
BRANCH  13  15
HETATM   15  C12   D T 601       1.411   6.702   7.046  1.00 24.69     0.049 A 
HETATM   16  C11   D T 601       1.521   7.309   8.324  1.00 26.89     0.033 A 
HETATM   17  C10   D T 601       2.719   7.948   8.713  1.00 28.95     0.039 A 
HETATM   18  C09   D T 601       3.823   7.966   7.834  1.00 30.95     0.069 A 
HETATM   19  C35   D T 601       3.723   7.340   6.578  1.00 28.80     0.039 A 
HETATM   20  C34   D T 601       2.526   6.726   6.194  1.00 26.81     0.033 A 
BRANCH  18  21
HETATM   21  O08   D T 601       4.996   8.531   8.196  1.00 36.09    -0.350 OA
BRANCH  21  22
HETATM   22  C07   D T 601       6.159   7.665   8.089  1.00 42.63     0.195 C 
BRANCH  22  23
HETATM   23  C06   D T 601       6.210   6.727   9.336  1.00 46.85     0.143 C 
BRANCH  23  24
HETATM   24  N03   D T 601       6.001   5.265   9.012  1.00 51.06    -0.411 N 
BRANCH  24  25
HETATM   25  C02   D T 601       7.111   4.405   8.413  1.00 53.85     0.112 C 
HETATM   26  C01   D T 601       7.240   2.914   8.869  1.00 52.69     0.026 C 
ENDBRANCH  24  25
BRANCH  24  27
HETATM   27  C04   D T 601       4.684   4.667   9.428  1.00 47.80     0.112 C 
HETATM   28  C05   D T 601       3.775   4.043   8.333  1.00 44.89     0.026 C 
ENDBRANCH  24  27
ENDBRANCH  23  24
ENDBRANCH  22  23
ENDBRANCH  21  22
ENDBRANCH  18  21
ENDBRANCH  13  15
ENDBRANCH   1  13
BRANCH   8  29
HETATM   29  C26   D T 601      -1.799  -1.089   8.802  1.00 21.63     0.023 A 
HETATM   30  C27   D T 601      -3.168  -1.473   8.756  1.00 22.75     0.046 A 
HETATM   31 CL28   D T 601      -4.371  -0.311   8.523  1.00 22.59    -0.083 Cl
HETATM   32  C29   D T 601      -3.573  -2.821   8.940  1.00 24.08     0.025 A 
HETATM   33  C30   D T 601      -2.596  -3.823   9.130  1.00 25.63     0.003 A 
HETATM   34  C31   D T 601      -1.240  -3.467   9.154  1.00 25.41     0.025 A 
HETATM   35  C32   D T 601      -0.845  -2.115   8.993  1.00 23.77     0.046 A 
HETATM   36 CL33   D T 601       0.807  -1.749   9.040  1.00 25.94    -0.083 Cl
ENDBRANCH   8  29
TORSDOF 9
ENDMDL
MODEL 2
REMARK VINA RESULT:    -7.838      1.936      2.809
REMARK INTER + INTRA:         -13.859
REMARK INTER:                 -12.084
REMARK INTRA:                  -1.775
REMARK UNBOUND:                -1.897
REMARK  9 active torsions:
REMARK  status: ('A' for Active; 'I' for Inactive)
REMARK    1  A    between atoms: C02_2  and  N03_3 
REMARK    2  A    between atoms: N03_3  and  C04_4 
REMARK    3  A    between atoms: N03_3  and  C06_6 
REMARK    4  A    between atoms: C06_6  and  C07_7 
REMARK    5  A    between atoms: C07_7  and  O08_8 
REMARK    6  A    between atoms: O08_8  and  C09_9 
REMARK    7  A    between atoms: C12_12  and  N13_13 
REMARK    8  A    between atoms: N13_13  and  C14_14 
REMARK    9  A    between atoms: C21_21  and  C26_26 
ROOT
HETATM    1  C14   D T 601      -0.080   4.804   6.827  1.00 17.92     0.728 A 
HETATM    2  N15   D T 601      -0.261   4.256   8.044  1.00 19.07    -0.044 NA
HETATM    3  C16   D T 601      -0.620   2.981   8.255  1.00 18.16     0.163 A 
HETATM    4  C17   D T 601      -0.847   2.176   7.137  1.00 16.80     0.030 A 
HETATM    5  C18   D T 601      -0.703   2.750   5.871  1.00 18.08     0.151 A 
HETATM    6  N19   D T 601      -0.326   4.039   5.750  1.00 16.91    -0.074 NA
HETATM    7  C20   D T 601      -1.244   0.836   7.312  1.00 17.65     0.034 A 
HETATM    8  C21   D T 601      -1.389   0.308   8.605  1.00 18.53     0.047 A 
HETATM    9  C22   D T 601      -1.149   1.172   9.701  1.00 19.48     0.260 A 
HETATM   10  O23   D T 601      -1.329   0.656  10.825  1.00 21.52    -0.267 OA
HETATM   11  N24   D T 601      -0.760   2.486   9.527  1.00 19.49    -0.301 N 
HETATM   12  C25   D T 601      -0.480   3.385  10.636  1.00 20.07     0.161 C 
ENDROOT
BRANCH   1  13
HETATM   13  N13   D T 601       0.297   6.088   6.719  1.00 20.14    -0.188 N 
HETATM   14 1H13   D T 601      -0.329   6.639   6.336  1.00 24.16     0.184 HD
BRANCH  13  15
HETATM   15  C12   D T 601       1.468   6.713   7.086  1.00 24.69     0.049 A 
HETATM   16  C11   D T 601       1.398   7.596   8.196  1.00 26.89     0.033 A 
HETATM   17  C10   D T 601       2.555   8.265   8.654  1.00 28.95     0.039 A 
HETATM   18  C09   D T 601       3.794   8.040   8.017  1.00 30.95     0.069 A 
HETATM   19  C35   D T 601       3.869   7.144   6.935  1.00 28.80     0.039 A 
HETATM   20  C34   D T 601       2.715   6.500   6.477  1.00 26.81     0.033 A 
BRANCH  18  21
HETATM   21  O08   D T 601       4.925   8.632   8.461  1.00 36.09    -0.350 OA
BRANCH  21  22
HETATM   22  C07   D T 601       4.838  10.070   8.652  1.00 42.63     0.195 C 
BRANCH  22  23
HETATM   23  C06   D T 601       5.731  10.779   7.585  1.00 46.85     0.143 C 
BRANCH  23  24
HETATM   24  N03   D T 601       5.096  10.868   6.216  1.00 51.06    -0.411 N 
BRANCH  24  25
HETATM   25  C02   D T 601       5.788  10.323   4.969  1.00 53.85     0.112 C 
HETATM   26  C01   D T 601       6.180   8.809   4.924  1.00 52.69     0.026 C 
ENDBRANCH  24  25
BRANCH  24  27
HETATM   27  C04   D T 601       3.691  11.405   6.162  1.00 47.80     0.112 C 
HETATM   28  C05   D T 601       2.573  10.496   5.582  1.00 44.89     0.026 C 
ENDBRANCH  24  27
ENDBRANCH  23  24
ENDBRANCH  22  23
ENDBRANCH  21  22
ENDBRANCH  18  21
ENDBRANCH  13  15
ENDBRANCH   1  13
BRANCH   8  29
HETATM   29  C26   D T 601      -1.772  -1.057   8.808  1.00 21.63     0.023 A 
HETATM   30  C27   D T 601      -3.145  -1.429   8.777  1.00 22.75     0.046 A 
HETATM   31 CL28   D T 601      -4.340  -0.256   8.554  1.00 22.59    -0.083 Cl
HETATM   32  C29   D T 601      -3.561  -2.772   8.970  1.00 24.08     0.025 A 
HETATM   33  C30   D T 601      -2.591  -3.783   9.152  1.00 25.63     0.003 A 
HETATM   34  C31   D T 601      -1.232  -3.440   9.160  1.00 25.41     0.025 A 
HETATM   35  C32   D T 601      -0.826  -2.092   8.991  1.00 23.77     0.046 A 
HETATM   36 CL33   D T 601       0.830  -1.741   9.020  1.00 25.94    -0.083 Cl
ENDBRANCH   8  29
TORSDOF 9
ENDMDL
MODEL 3
REMARK VINA RESULT:    -7.815      0.201      2.048
REMARK INTER + INTRA:         -13.824
REMARK INTER:                 -12.054
REMARK INTRA:                  -1.770
REMARK UNBOUND:                -1.897
REMARK  9 active torsions:
REMARK  status: ('A' for Active; 'I' for Inactive)
REMARK    1  A    between atoms: C02_2  and  N03_3 
REMARK    2  A    between atoms: N03_3  and  C04_4 
REMARK    3  A    between atoms: N03_3  and  C06_6 
REMARK    4  A    between atoms: C06_6  and  C07_7 
REMARK    5  A    between atoms: C07_7  and  O08_8 
REMARK    6  A    between atoms: O08_8  and  C09_9 
REMARK    7  A    between atoms: C12_12  and  N13_13 
REMARK    8  A    between atoms: N13_13  and  C14_14 
REMARK    9  A    between atoms: C21_21  and  C26_26 
ROOT
HETATM    1  C14   D T 601      -0.155   4.835   6.851  1.00 17.92     0.728 A 
HETATM    2  N15   D T 601      -0.328   4.272   8.063  1.00 19.07    -0.044 NA
HETATM    3  C16   D T 601      -0.670   2.990   8.260  1.00 18.16     0.163 A 
HETATM    4  C17   D T 601      -0.886   2.194   7.134  1.00 16.80     0.030 A 
HETATM    5  C18   D T 601      -0.750   2.783   5.875  1.00 18.08     0.151 A 
HETATM    6  N19   D T 601      -0.391   4.079   5.766  1.00 16.91    -0.074 NA
HETATM    7  C20   D T 601      -1.264   0.847   7.295  1.00 17.65     0.034 A 
HETATM    8  C21   D T 601      -1.402   0.303   8.582  1.00 18.53     0.047 A 
HETATM    9  C22   D T 601      -1.174   1.159   9.687  1.00 19.48     0.260 A 
HETATM   10  O23   D T 601      -1.347   0.629  10.806  1.00 21.52    -0.267 OA
HETATM   11  N24   D T 601      -0.803   2.480   9.527  1.00 19.49    -0.301 N 
HETATM   12  C25   D T 601      -0.535   3.371  10.646  1.00 20.07     0.161 C 
ENDROOT
BRANCH   1  13
HETATM   13  N13   D T 601       0.204   6.125   6.757  1.00 20.14    -0.188 N 
HETATM   14 1H13   D T 601      -0.443   6.678   6.413  1.00 24.16     0.184 HD
BRANCH  13  15
HETATM   15  C12   D T 601       1.383   6.755   7.090  1.00 24.69     0.049 A 
HETATM   16  C11   D T 601       2.478   6.565   6.207  1.00 26.89     0.033 A 
HETATM   17  C10   D T 601       3.720   7.189   6.461  1.00 28.95     0.039 A 
HETATM   18  C09   D T 601       3.869   8.024   7.589  1.00 30.95     0.069 A 
HETATM   19  C35   D T 601       2.775   8.235   8.449  1.00 28.80     0.039 A 
HETATM   20  C34   D T 601       1.555   7.598   8.200  1.00 26.81     0.033 A 
BRANCH  18  21
HETATM   21  O08   D T 601       5.031   8.669   7.833  1.00 36.09    -0.350 OA
BRANCH  21  22
HETATM   22  C07   D T 601       6.212   7.822   7.880  1.00 42.63     0.195 C 
BRANCH  22  23
HETATM   23  C06   D T 601       6.193   6.999   9.206  1.00 46.85     0.143 C 
BRANCH  23  24
HETATM   24  N03   D T 601       5.969   5.517   9.004  1.00 51.06    -0.411 N 
BRANCH  24  25
HETATM   25  C02   D T 601       4.673   4.832   9.430  1.00 53.85     0.112 C 
HETATM   26  C01   D T 601       3.887   3.983   8.377  1.00 52.69     0.026 C 
ENDBRANCH  24  25
BRANCH  24  27
HETATM   27  C04   D T 601       7.036   4.775   8.246  1.00 47.80     0.112 C 
HETATM   28  C05   D T 601       7.459   3.367   8.749  1.00 44.89     0.026 C 
ENDBRANCH  24  27
ENDBRANCH  23  24
ENDBRANCH  22  23
ENDBRANCH  21  22
ENDBRANCH  18  21
ENDBRANCH  13  15
ENDBRANCH   1  13
BRANCH   8  29
HETATM   29  C26   D T 601      -1.767  -1.069   8.771  1.00 21.63     0.023 A 
HETATM   30  C27   D T 601      -0.764  -2.057   8.975  1.00 22.75     0.046 A 
HETATM   31 CL28   D T 601       0.870  -1.630   8.943  1.00 22.59    -0.083 Cl
HETATM   32  C29   D T 601      -1.090  -3.425   9.168  1.00 24.08     0.025 A 
HETATM   33  C30   D T 601      -2.445  -3.820   9.209  1.00 25.63     0.003 A 
HETATM   34  C31   D T 601      -3.449  -2.856   9.035  1.00 25.41     0.025 A 
HETATM   35  C32   D T 601      -3.115  -1.495   8.817  1.00 23.77     0.046 A 
HETATM   36 CL33   D T 601      -4.372  -0.383   8.606  1.00 25.94    -0.083 Cl
ENDBRANCH   8  29
TORSDOF 9
ENDMDL
MODEL 4
REMARK VINA RESULT:    -7.796      1.910      3.256
REMARK INTER + INTRA:         -13.795
REMARK INTER:                 -12.054
REMARK INTRA:                  -1.741
REMARK UNBOUND:                -1.897
REMARK  9 active torsions:
REMARK  status: ('A' for Active; 'I' for Inactive)
REMARK    1  A    between atoms: C02_2  and  N03_3 
REMARK    2  A    between atoms: N03_3  and  C04_4 
REMARK    3  A    between atoms: N03_3  and  C06_6 
REMARK    4  A    between atoms: C06_6  and  C07_7 
REMARK    5  A    between atoms: C07_7  and  O08_8 
REMARK    6  A    between atoms: O08_8  and  C09_9 
REMARK    7  A    between atoms: C12_12  and  N13_13 
REMARK    8  A    between atoms: N13_13  and  C14_14 
REMARK    9  A    between atoms: C21_21  and  C26_26 
ROOT
HETATM    1  C14   D T 601      -0.097   4.809   6.838  1.00 17.92     0.728 A 
HETATM    2  N15   D T 601      -0.294   4.249   8.048  1.00 19.07    -0.044 NA
HETATM    3  C16   D T 601      -0.662   2.974   8.241  1.00 18.16     0.163 A 
HETATM    4  C17   D T 601      -0.882   2.182   7.112  1.00 16.80     0.030 A 
HETATM    5  C18   D T 601      -0.721   2.769   5.855  1.00 18.08     0.151 A 
HETATM    6  N19   D T 601      -0.336   4.057   5.751  1.00 16.91    -0.074 NA
HETATM    7  C20   D T 601      -1.287   0.843   7.269  1.00 17.65     0.034 A 
HETATM    8  C21   D T 601      -1.449   0.302   8.555  1.00 18.53     0.047 A 
HETATM    9  C22   D T 601      -1.217   1.153   9.662  1.00 19.48     0.260 A 
HETATM   10  O23   D T 601      -1.412   0.627  10.779  1.00 21.52    -0.267 OA
HETATM   11  N24   D T 601      -0.818   2.467   9.507  1.00 19.49    -0.301 N 
HETATM   12  C25   D T 601      -0.546   3.352  10.628  1.00 20.07     0.161 C 
ENDROOT
BRANCH   1  13
HETATM   13  N13   D T 601       0.288   6.092   6.748  1.00 20.14    -0.188 N 
HETATM   14 1H13   D T 601      -0.317   6.645   6.335  1.00 24.16     0.184 HD
BRANCH  13  15
HETATM   15  C12   D T 601       1.441   6.715   7.172  1.00 24.69     0.049 A 
HETATM   16  C11   D T 601       2.640   6.364   6.497  1.00 26.89     0.033 A 
HETATM   17  C10   D T 601       3.866   6.969   6.853  1.00 28.95     0.039 A 
HETATM   18  C09   D T 601       3.898   7.942   7.875  1.00 30.95     0.069 A 
HETATM   19  C35   D T 601       2.706   8.309   8.525  1.00 28.80     0.039 A 
HETATM   20  C34   D T 601       1.500   7.693   8.178  1.00 26.81     0.033 A 
BRANCH  18  21
HETATM   21  O08   D T 601       5.049   8.569   8.206  1.00 36.09    -0.350 OA
BRANCH  21  22
HETATM   22  C07   D T 601       4.943  10.009   8.375  1.00 42.63     0.195 C 
BRANCH  22  23
HETATM   23  C06   D T 601       5.727  10.714   7.223  1.00 46.85     0.143 C 
BRANCH  23  24
HETATM   24  N03   D T 601       5.101  10.537   5.859  1.00 51.06    -0.411 N 
BRANCH  24  25
HETATM   25  C02   D T 601       5.633   9.519   4.852  1.00 53.85     0.112 C 
HETATM   26  C01   D T 601       6.931   8.719   5.202  1.00 52.69     0.026 C 
ENDBRANCH  24  25
BRANCH  24  27
HETATM   27  C04   D T 601       3.847  11.324   5.589  1.00 47.80     0.112 C 
HETATM   28  C05   D T 601       2.495  10.560   5.512  1.00 44.89     0.026 C 
ENDBRANCH  24  27
ENDBRANCH  23  24
ENDBRANCH  22  23
ENDBRANCH  21  22
ENDBRANCH  18  21
ENDBRANCH  13  15
ENDBRANCH   1  13
BRANCH   8  29
HETATM   29  C26   D T 601      -1.842  -1.063   8.739  1.00 21.63     0.023 A 
HETATM   30  C27   D T 601      -0.863  -2.065   8.982  1.00 22.75     0.046 A 
HETATM   31 CL28   D T 601       0.778  -1.665   9.003  1.00 22.59    -0.083 Cl
HETATM   32  C29   D T 601      -1.217  -3.427   9.173  1.00 24.08     0.025 A 
HETATM   33  C30   D T 601      -2.579  -3.799   9.171  1.00 25.63     0.003 A 
HETATM   34  C31   D T 601      -3.561  -2.821   8.958  1.00 25.41     0.025 A 
HETATM   35  C32   D T 601      -3.198  -1.467   8.743  1.00 23.77     0.046 A 
HETATM   36 CL33   D T 601      -4.429  -0.336   8.483  1.00 25.94    -0.083 Cl
ENDBRANCH   8  29
TORSDOF 9
ENDMDL
MODEL 5
REMARK VINA RESULT:    -7.192      4.893      9.295
REMARK INTER + INTRA:         -12.873
REMARK INTER:                 -11.245
REMARK INTRA:                  -1.628
REMARK UNBOUND:                -1.897
REMARK  9 active torsions:
REMARK  status: ('A' for Active; 'I' for Inactive)
REMARK    1  A    between atoms: C02_2  and  N03_3 
REMARK    2  A    between atoms: N03_3  and  C04_4 
REMARK    3  A    between atoms: N03_3  and  C06_6 
REMARK    4  A    between atoms: C06_6  and  C07_7 
REMARK    5  A    between atoms: C07_7  and  O08_8 
REMARK    6  A    between atoms: O08_8  and  C09_9 
REMARK    7  A    between atoms: C12_12  and  N13_13 
REMARK    8  A    between atoms: N13_13  and  C14_14 
REMARK    9  A    between atoms: C21_21  and  C26_26 
ROOT
HETATM    1  C14   D T 601      -0.974  -3.327   9.949  1.00 17.92     0.728 A 
HETATM    2  N15   D T 601      -0.142  -2.349   9.537  1.00 19.07    -0.044 NA
HETATM    3  C16   D T 601      -0.538  -1.119   9.181  1.00 18.16     0.163 A 
HETATM    4  C17   D T 601      -1.906  -0.841   9.212  1.00 16.80     0.030 A 
HETATM    5  C18   D T 601      -2.777  -1.863   9.596  1.00 18.08     0.151 A 
HETATM    6  N19   D T 601      -2.292  -3.071   9.952  1.00 16.91    -0.074 NA
HETATM    7  C20   D T 601      -2.368   0.433   8.827  1.00 17.65     0.034 A 
HETATM    8  C21   D T 601      -1.453   1.424   8.435  1.00 18.53     0.047 A 
HETATM    9  C22   D T 601      -0.079   1.084   8.419  1.00 19.48     0.260 A 
HETATM   10  O23   D T 601       0.682   1.994   8.026  1.00 21.52    -0.267 OA
HETATM   11  N24   D T 601       0.372  -0.166   8.797  1.00 19.49    -0.301 N 
HETATM   12  C25   D T 601       1.780  -0.530   8.816  1.00 20.07     0.161 C 
ENDROOT
BRANCH   1  13
HETATM   13  N13   D T 601      -0.479  -4.524  10.302  1.00 20.14    -0.188 N 
HETATM   14 1H13   D T 601      -0.726  -5.217   9.754  1.00 24.16     0.184 HD
BRANCH  13  15
HETATM   15  C12   D T 601       0.338  -4.883  11.352  1.00 24.69     0.049 A 
HETATM   16  C11   D T 601       0.359  -4.009  12.470  1.00 26.89     0.033 A 
HETATM   17  C10   D T 601       1.153  -4.309  13.599  1.00 28.95     0.039 A 
HETATM   18  C09   D T 601       1.918  -5.495  13.625  1.00 30.95     0.069 A 
HETATM   19  C35   D T 601       1.876  -6.374  12.527  1.00 28.80     0.039 A 
HETATM   20  C34   D T 601       1.101  -6.060  11.406  1.00 26.81     0.033 A 
BRANCH  18  21
HETATM   21  O08   D T 601       2.653  -5.830  14.709  1.00 36.09    -0.350 OA
BRANCH  21  22
HETATM   22  C07   D T 601       4.069  -6.040  14.456  1.00 42.63     0.195 C 
BRANCH  22  23
HETATM   23  C06   D T 601       4.729  -4.671  14.097  1.00 46.85     0.143 C 
BRANCH  23  24
HETATM   24  N03   D T 601       5.220  -4.584  12.670  1.00 51.06    -0.411 N 
BRANCH  24  25
HETATM   25  C02   D T 601       5.078  -3.308  11.844  1.00 53.85     0.112 C 
HETATM   26  C01   D T 601       3.734  -3.043  11.089  1.00 52.69     0.026 C 
ENDBRANCH  24  25
BRANCH  24  27
HETATM   27  C04   D T 601       5.973  -5.777  12.145  1.00 47.80     0.112 C 
HETATM   28  C05   D T 601       5.344  -6.599  10.986  1.00 44.89     0.026 C 
ENDBRANCH  24  27
ENDBRANCH  23  24
ENDBRANCH  22  23
ENDBRANCH  21  22
ENDBRANCH  18  21
ENDBRANCH  13  15
ENDBRANCH   1  13
BRANCH   8  29
HETATM   29  C26   D T 601      -1.897   2.732   8.058  1.00 21.63     0.023 A 
HETATM   30  C27   D T 601      -2.544   2.938   6.808  1.00 22.75     0.046 A 
HETATM   31 CL28   D T 601      -2.746   1.652   5.732  1.00 22.59    -0.083 Cl
HETATM   32  C29   D T 601      -3.000   4.220   6.403  1.00 24.08     0.025 A 
HETATM   33  C30   D T 601      -2.856   5.319   7.279  1.00 25.63     0.003 A 
HETATM   34  C31   D T 601      -2.244   5.131   8.526  1.00 25.41     0.025 A 
HETATM   35  C32   D T 601      -1.768   3.852   8.912  1.00 23.77     0.046 A 
HETATM   36 CL33   D T 601      -1.031   3.692  10.427  1.00 25.94    -0.083 Cl
ENDBRANCH   8  29
TORSDOF 9
ENDMDL
MODEL 6
REMARK VINA RESULT:    -7.184      3.397      8.633
REMARK INTER + INTRA:         -12.860
REMARK INTER:                 -11.670
REMARK INTRA:                  -1.190
REMARK UNBOUND:                -1.897
REMARK  9 active torsions:
REMARK  status: ('A' for Active; 'I' for Inactive)
REMARK    1  A    between atoms: C02_2  and  N03_3 
REMARK    2  A    between atoms: N03_3  and  C04_4 
REMARK    3  A    between atoms: N03_3  and  C06_6 
REMARK    4  A    between atoms: C06_6  and  C07_7 
REMARK    5  A    between atoms: C07_7  and  O08_8 
REMARK    6  A    between atoms: O08_8  and  C09_9 
REMARK    7  A    between atoms: C12_12  and  N13_13 
REMARK    8  A    between atoms: N13_13  and  C14_14 
REMARK    9  A    between atoms: C21_21  and  C26_26 
ROOT
HETATM    1  C14   D T 601       1.130   4.625   6.473  1.00 17.92     0.728 A 
HETATM    2  N15   D T 601       1.499   3.587   7.250  1.00 19.07    -0.044 NA
HETATM    3  C16   D T 601       2.651   3.525   7.932  1.00 18.16     0.163 A 
HETATM    4  C17   D T 601       3.540   4.595   7.809  1.00 16.80     0.030 A 
HETATM    5  C18   D T 601       3.182   5.655   6.972  1.00 18.08     0.151 A 
HETATM    6  N19   D T 601       1.995   5.642   6.330  1.00 16.91    -0.074 NA
HETATM    7  C20   D T 601       4.770   4.563   8.495  1.00 17.65     0.034 A 
HETATM    8  C21   D T 601       5.090   3.469   9.314  1.00 18.53     0.047 A 
HETATM    9  C22   D T 601       4.153   2.411   9.398  1.00 19.48     0.260 A 
HETATM   10  O23   D T 601       4.509   1.449  10.113  1.00 21.52    -0.267 OA
HETATM   11  N24   D T 601       2.947   2.444   8.725  1.00 19.49    -0.301 N 
HETATM   12  C25   D T 601       1.956   1.383   8.818  1.00 20.07     0.161 C 
ENDROOT
BRANCH   1  13
HETATM   13  N13   D T 601      -0.054   4.601   5.841  1.00 20.14    -0.188 N 
HETATM   14 1H13   D T 601      -0.103   5.141   5.101  1.00 24.16     0.184 HD
BRANCH  13  15
HETATM   15  C12   D T 601      -1.207   3.901   6.120  1.00 24.69     0.049 A 
HETATM   16  C11   D T 601      -1.345   2.630   5.504  1.00 26.89     0.033 A 
HETATM   17  C10   D T 601      -2.486   1.834   5.751  1.00 28.95     0.039 A 
HETATM   18  C09   D T 601      -3.488   2.296   6.630  1.00 30.95     0.069 A 
HETATM   19  C35   D T 601      -3.338   3.544   7.263  1.00 28.80     0.039 A 
HETATM   20  C34   D T 601      -2.213   4.333   6.999  1.00 26.81     0.033 A 
BRANCH  18  21
HETATM   21  O08   D T 601      -4.569   1.538   6.919  1.00 36.09    -0.350 OA
BRANCH  21  22
HETATM   22  C07   D T 601      -4.275   0.183   7.358  1.00 42.63     0.195 C 
BRANCH  22  23
HETATM   23  C06   D T 601      -3.556   0.243   8.742  1.00 46.85     0.143 C 
BRANCH  23  24
HETATM   24  N03   D T 601      -2.831  -1.031   9.111  1.00 51.06    -0.411 N 
BRANCH  24  25
HETATM   25  C02   D T 601      -3.406  -2.409   8.790  1.00 53.85     0.112 C 
HETATM   26  C01   D T 601      -2.443  -3.640   8.757  1.00 52.69     0.026 C 
ENDBRANCH  24  25
BRANCH  24  27
HETATM   27  C04   D T 601      -1.453  -0.875   9.696  1.00 47.80     0.112 C 
HETATM   28  C05   D T 601      -1.287  -0.019  10.982  1.00 44.89     0.026 C 
ENDBRANCH  24  27
ENDBRANCH  23  24
ENDBRANCH  22  23
ENDBRANCH  21  22
ENDBRANCH  18  21
ENDBRANCH  13  15
ENDBRANCH   1  13
BRANCH   8  29
HETATM   29  C26   D T 601       6.326   3.422  10.036  1.00 21.63     0.023 A 
HETATM   30  C27   D T 601       7.443   2.720   9.503  1.00 22.75     0.046 A 
HETATM   31 CL28   D T 601       7.305   1.889   8.039  1.00 22.59    -0.083 Cl
HETATM   32  C29   D T 601       8.684   2.657  10.188  1.00 24.08     0.025 A 
HETATM   33  C30   D T 601       8.840   3.345  11.412  1.00 25.63     0.003 A 
HETATM   34  C31   D T 601       7.759   4.064  11.941  1.00 25.41     0.025 A 
HETATM   35  C32   D T 601       6.515   4.102  11.262  1.00 23.77     0.046 A 
HETATM   36 CL33   D T 601       5.246   4.980  11.957  1.00 25.94    -0.083 Cl
ENDBRANCH   8  29
TORSDOF 9
ENDMDL
MODEL 7
REMARK VINA RESULT:    -7.076      1.540      3.014
REMARK INTER + INTRA:         -12.695
REMARK INTER:                 -11.502
REMARK INTRA:                  -1.193
REMARK UNBOUND:                -1.897
REMARK  9 active torsions:
REMARK  status: ('A' for Active; 'I' for Inactive)
REMARK    1  A    between atoms: C02_2  and  N03_3 
REMARK    2  A    between atoms: N03_3  and  C04_4 
REMARK    3  A    between atoms: N03_3  and  C06_6 
REMARK    4  A    between atoms: C06_6  and  C07_7 
REMARK    5  A    between atoms: C07_7  and  O08_8 
REMARK    6  A    between atoms: O08_8  and  C09_9 
REMARK    7  A    between atoms: C12_12  and  N13_13 
REMARK    8  A    between atoms: N13_13  and  C14_14 
REMARK    9  A    between atoms: C21_21  and  C26_26 
ROOT
HETATM    1  C14   D T 601       0.083   5.511   9.014  1.00 17.92     0.728 A 
HETATM    2  N15   D T 601      -0.318   4.713   8.004  1.00 19.07    -0.044 NA
HETATM    3  C16   D T 601      -0.683   3.432   8.152  1.00 18.16     0.163 A 
HETATM    4  C17   D T 601      -0.618   2.879   9.433  1.00 16.80     0.030 A 
HETATM    5  C18   D T 601      -0.162   3.689  10.476  1.00 18.08     0.151 A 
HETATM    6  N19   D T 601       0.174   4.974  10.242  1.00 16.91    -0.074 NA
HETATM    7  C20   D T 601      -0.975   1.531   9.629  1.00 17.65     0.034 A 
HETATM    8  C21   D T 601      -1.413   0.754   8.546  1.00 18.53     0.047 A 
HETATM    9  C22   D T 601      -1.455   1.365   7.269  1.00 19.48     0.260 A 
HETATM   10  O23   D T 601      -1.818   0.614   6.339  1.00 21.52    -0.267 OA
HETATM   11  N24   D T 601      -1.105   2.688   7.078  1.00 19.49    -0.301 N 
HETATM   12  C25   D T 601      -1.167   3.347   5.782  1.00 20.07     0.161 C 
ENDROOT
BRANCH   1  13
HETATM   13  N13   D T 601       0.413   6.789   8.768  1.00 20.14    -0.188 N 
HETATM   14 1H13   D T 601      -0.162   7.408   9.126  1.00 24.16     0.184 HD
BRANCH  13  15
HETATM   15  C12   D T 601       1.472   7.323   8.067  1.00 24.69     0.049 A 
HETATM   16  C11   D T 601       2.246   6.417   7.295  1.00 26.89     0.033 A 
HETATM   17  C10   D T 601       3.338   6.882   6.528  1.00 28.95     0.039 A 
HETATM   18  C09   D T 601       3.653   8.257   6.515  1.00 30.95     0.069 A 
HETATM   19  C35   D T 601       2.869   9.158   7.258  1.00 28.80     0.039 A 
HETATM   20  C34   D T 601       1.800   8.687   8.028  1.00 26.81     0.033 A 
BRANCH  18  21
HETATM   21  O08   D T 601       4.664   8.736   5.757  1.00 36.09    -0.350 OA
BRANCH  21  22
HETATM   22  C07   D T 601       5.813   7.853   5.629  1.00 42.63     0.195 C 
BRANCH  22  23
HETATM   23  C06   D T 601       6.882   8.255   6.693  1.00 46.85     0.143 C 
BRANCH  23  24
HETATM   24  N03   D T 601       6.756   7.506   8.000  1.00 51.06    -0.411 N 
BRANCH  24  25
HETATM   25  C02   D T 601       6.294   8.194   9.283  1.00 53.85     0.112 C 
HETATM   26  C01   D T 601       7.087   7.936  10.606  1.00 52.69     0.026 C 
ENDBRANCH  24  25
BRANCH  24  27
HETATM   27  C04   D T 601       6.985   6.020   7.948  1.00 47.80     0.112 C 
HETATM   28  C05   D T 601       5.879   5.080   8.503  1.00 44.89     0.026 C 
ENDBRANCH  24  27
ENDBRANCH  23  24
ENDBRANCH  22  23
ENDBRANCH  21  22
ENDBRANCH  18  21
ENDBRANCH  13  15
ENDBRANCH   1  13
BRANCH   8  29
HETATM   29  C26   D T 601      -1.799  -0.614   8.725  1.00 21.63     0.023 A 
HETATM   30  C27   D T 601      -0.812  -1.619   8.921  1.00 22.75     0.046 A 
HETATM   31 CL28   D T 601       0.828  -1.217   8.891  1.00 22.59    -0.083 Cl
HETATM   32  C29   D T 601      -1.158  -2.983   9.105  1.00 24.08     0.025 A 
HETATM   33  C30   D T 601      -2.520  -3.357   9.144  1.00 25.63     0.003 A 
HETATM   34  C31   D T 601      -3.508  -2.377   8.978  1.00 25.41     0.025 A 
HETATM   35  C32   D T 601      -3.153  -1.020   8.769  1.00 23.77     0.046 A 
HETATM   36 CL33   D T 601      -4.394   0.114   8.566  1.00 25.94    -0.083 Cl
ENDBRANCH   8  29
TORSDOF 9
ENDMDL
MODEL 8
REMARK VINA RESULT:    -7.053      4.952      9.294
REMARK INTER + INTRA:         -12.660
REMARK INTER:                 -11.110
REMARK INTRA:                  -1.550
REMARK UNBOUND:                -1.897
REMARK  9 active torsions:
REMARK  status: ('A' for Active; 'I' for Inactive)
REMARK    1  A    between atoms: C02_2  and  N03_3 
REMARK    2  A    between atoms: N03_3  and  C04_4 
REMARK    3  A    between atoms: N03_3  and  C06_6 
REMARK    4  A    between atoms: C06_6  and  C07_7 
REMARK    5  A    between atoms: C07_7  and  O08_8 
REMARK    6  A    between atoms: O08_8  and  C09_9 
REMARK    7  A    between atoms: C12_12  and  N13_13 
REMARK    8  A    between atoms: N13_13  and  C14_14 
REMARK    9  A    between atoms: C21_21  and  C26_26 
ROOT
HETATM    1  C14   D T 601      -0.927  -3.345   9.967  1.00 17.92     0.728 A 
HETATM    2  N15   D T 601      -0.103  -2.347   9.589  1.00 19.07    -0.044 NA
HETATM    3  C16   D T 601      -0.513  -1.124   9.226  1.00 18.16     0.163 A 
HETATM    4  C17   D T 601      -1.887  -0.875   9.211  1.00 16.80     0.030 A 
HETATM    5  C18   D T 601      -2.749  -1.918   9.561  1.00 18.08     0.151 A 
HETATM    6  N19   D T 601      -2.250  -3.117   9.926  1.00 16.91    -0.074 NA
HETATM    7  C20   D T 601      -2.363   0.391   8.818  1.00 17.65     0.034 A 
HETATM    8  C21   D T 601      -1.457   1.403   8.463  1.00 18.53     0.047 A 
HETATM    9  C22   D T 601      -0.076   1.093   8.492  1.00 19.48     0.260 A 
HETATM   10  O23   D T 601       0.678   2.022   8.130  1.00 21.52    -0.267 OA
HETATM   11  N24   D T 601       0.389  -0.149   8.878  1.00 19.49    -0.301 N 
HETATM   12  C25   D T 601       1.803  -0.483   8.944  1.00 20.07     0.161 C 
ENDROOT
BRANCH   1  13
HETATM   13  N13   D T 601      -0.418  -4.533  10.330  1.00 20.14    -0.188 N 
HETATM   14 1H13   D T 601      -0.656  -5.233   9.787  1.00 24.16     0.184 HD
BRANCH  13  15
HETATM   15  C12   D T 601       0.400  -4.874  11.385  1.00 24.69     0.049 A 
HETATM   16  C11   D T 601       0.318  -4.059  12.544  1.00 26.89     0.033 A 
HETATM   17  C10   D T 601       1.107  -4.347  13.680  1.00 28.95     0.039 A 
HETATM   18  C09   D T 601       1.969  -5.464  13.671  1.00 30.95     0.069 A 
HETATM   19  C35   D T 601       2.030  -6.288  12.532  1.00 28.80     0.039 A 
HETATM   20  C34   D T 601       1.258  -5.985  11.406  1.00 26.81     0.033 A 
BRANCH  18  21
HETATM   21  O08   D T 601       2.702  -5.790  14.759  1.00 36.09    -0.350 OA
BRANCH  21  22
HETATM   22  C07   D T 601       4.092  -6.126  14.491  1.00 42.63     0.195 C 
BRANCH  22  23
HETATM   23  C06   D T 601       4.904  -4.806  14.298  1.00 46.85     0.143 C 
BRANCH  23  24
HETATM   24  N03   D T 601       5.451  -4.623  12.901  1.00 51.06    -0.411 N 
BRANCH  24  25
HETATM   25  C02   D T 601       6.090  -5.774  12.127  1.00 53.85     0.112 C 
HETATM   26  C01   D T 601       5.522  -6.143  10.717  1.00 52.69     0.026 C 
ENDBRANCH  24  25
BRANCH  24  27
HETATM   27  C04   D T 601       5.219  -3.282  12.259  1.00 47.80     0.112 C 
HETATM   28  C05   D T 601       3.858  -3.022  11.556  1.00 44.89     0.026 C 
ENDBRANCH  24  27
ENDBRANCH  23  24
ENDBRANCH  22  23
ENDBRANCH  21  22
ENDBRANCH  18  21
ENDBRANCH  13  15
ENDBRANCH   1  13
BRANCH   8  29
HETATM   29  C26   D T 601      -1.916   2.704   8.077  1.00 21.63     0.023 A 
HETATM   30  C27   D T 601      -1.755   3.811   8.956  1.00 22.75     0.046 A 
HETATM   31 CL28   D T 601      -1.069   3.593  10.484  1.00 22.59    -0.083 Cl
HETATM   32  C29   D T 601      -2.195   5.115   8.606  1.00 24.08     0.025 A 
HETATM   33  C30   D T 601      -2.767   5.339   7.334  1.00 25.63     0.003 A 
HETATM   34  C31   D T 601      -2.911   4.265   6.444  1.00 25.41     0.025 A 
HETATM   35  C32   D T 601      -2.492   2.961   6.811  1.00 23.77     0.046 A 
HETATM   36 CL33   D T 601      -2.701   1.706   5.696  1.00 25.94    -0.083 Cl
ENDBRANCH   8  29
TORSDOF 9
ENDMDL
MODEL 9
REMARK VINA RESULT:    -7.038      1.616      2.662
REMARK INTER + INTRA:         -12.638
REMARK INTER:                 -11.377
REMARK INTRA:                  -1.261
REMARK UNBOUND:                -1.897
REMARK  9 active torsions:
REMARK  status: ('A' for Active; 'I' for Inactive)
REMARK    1  A    between atoms: C02_2  and  N03_3 
REMARK    2  A    between atoms: N03_3  and  C04_4 
REMARK    3  A    between atoms: N03_3  and  C06_6 
REMARK    4  A    between atoms: C06_6  and  C07_7 
REMARK    5  A    between atoms: C07_7  and  O08_8 
REMARK    6  A    between atoms: O08_8  and  C09_9 
REMARK    7  A    between atoms: C12_12  and  N13_13 
REMARK    8  A    between atoms: N13_13  and  C14_14 
REMARK    9  A    between atoms: C21_21  and  C26_26 
ROOT
HETATM    1  C14   D T 601       0.247   5.380   9.055  1.00 17.92     0.728 A 
HETATM    2  N15   D T 601      -0.165   4.590   8.044  1.00 19.07    -0.044 NA
HETATM    3  C16   D T 601      -0.552   3.315   8.189  1.00 18.16     0.163 A 
HETATM    4  C17   D T 601      -0.498   2.760   9.469  1.00 16.80     0.030 A 
HETATM    5  C18   D T 601      -0.032   3.560  10.515  1.00 18.08     0.151 A 
HETATM    6  N19   D T 601       0.326   4.840  10.282  1.00 16.91    -0.074 NA
HETATM    7  C20   D T 601      -0.878   1.418   9.664  1.00 17.65     0.034 A 
HETATM    8  C21   D T 601      -1.328   0.649   8.578  1.00 18.53     0.047 A 
HETATM    9  C22   D T 601      -1.357   1.263   7.303  1.00 19.48     0.260 A 
HETATM   10  O23   D T 601      -1.731   0.518   6.371  1.00 21.52    -0.267 OA
HETATM   11  N24   D T 601      -0.985   2.579   7.114  1.00 19.49    -0.301 N 
HETATM   12  C25   D T 601      -1.033   3.241   5.819  1.00 20.07     0.161 C 
ENDROOT
BRANCH   1  13
HETATM   13  N13   D T 601       0.599   6.652   8.811  1.00 20.14    -0.188 N 
HETATM   14 1H13   D T 601       0.102   7.279   9.262  1.00 24.16     0.184 HD
BRANCH  13  15
HETATM   15  C12   D T 601       1.581   7.171   7.996  1.00 24.69     0.049 A 
HETATM   16  C11   D T 601       1.737   8.582   8.006  1.00 26.89     0.033 A 
HETATM   17  C10   D T 601       2.733   9.198   7.216  1.00 28.95     0.039 A 
HETATM   18  C09   D T 601       3.592   8.406   6.425  1.00 30.95     0.069 A 
HETATM   19  C35   D T 601       3.455   7.006   6.437  1.00 28.80     0.039 A 
HETATM   20  C34   D T 601       2.455   6.406   7.208  1.00 26.81     0.033 A 
BRANCH  18  21
HETATM   21  O08   D T 601       4.582   8.964   5.694  1.00 36.09    -0.350 OA
BRANCH  21  22
HETATM   22  C07   D T 601       5.708   8.091   5.407  1.00 42.63     0.195 C 
BRANCH  22  23
HETATM   23  C06   D T 601       6.907   8.492   6.325  1.00 46.85     0.143 C 
BRANCH  23  24
HETATM   24  N03   D T 601       6.839   7.900   7.714  1.00 51.06    -0.411 N 
BRANCH  24  25
HETATM   25  C02   D T 601       7.342   6.491   8.016  1.00 53.85     0.112 C 
HETATM   26  C01   D T 601       6.301   5.372   8.348  1.00 52.69     0.026 C 
ENDBRANCH  24  25
BRANCH  24  27
HETATM   27  C04   D T 601       6.369   8.816   8.812  1.00 47.80     0.112 C 
HETATM   28  C05   D T 601       6.312  10.343   8.529  1.00 44.89     0.026 C 
ENDBRANCH  24  27
ENDBRANCH  23  24
ENDBRANCH  22  23
ENDBRANCH  21  22
ENDBRANCH  18  21
ENDBRANCH  13  15
ENDBRANCH   1  13
BRANCH   8  29
HETATM   29  C26   D T 601      -1.737  -0.712   8.755  1.00 21.63     0.023 A 
HETATM   30  C27   D T 601      -3.116  -1.058   8.716  1.00 22.75     0.046 A 
HETATM   31 CL28   D T 601      -4.289   0.141   8.513  1.00 22.59    -0.083 Cl
HETATM   32  C29   D T 601      -3.557  -2.397   8.883  1.00 24.08     0.025 A 
HETATM   33  C30   D T 601      -2.606  -3.428   9.047  1.00 25.63     0.003 A 
HETATM   34  C31   D T 601      -1.241  -3.111   9.064  1.00 25.41     0.025 A 
HETATM   35  C32   D T 601      -0.810  -1.767   8.921  1.00 23.77     0.046 A 
HETATM   36 CL33   D T 601       0.852  -1.448   8.958  1.00 25.94    -0.083 Cl
ENDBRANCH   8  29
TORSDOF 9
ENDMDL
