MODEL 1
REMARK VINA RESULT:    -7.837      0.000      0.000
REMARK INTER + INTRA:         -13.283
REMARK INTER:                 -11.960
REMARK INTRA:                  -1.323
REMARK UNBOUND:                -1.323
REMARK  9 active torsions:
REMARK  status: ('A' for Active; 'I' for Inactive)
REMARK    1  A    between atoms: C02_2  and  N03_3 
REMARK    2  A    between atoms: N03_3  and  C04_4 
REMARK    3  A    between atoms: N03_3  and  C06_6 
REMARK    4  A    between atoms: C06_6  and  C07_7 
REMARK    5  A    between atoms: C07_7  and  O08_8 
REMARK    6  A    between atoms: O08_8  and  C09_9 
REMARK    7  A    between atoms: C12_12  and  N13_13 
REMARK    8  A    between atoms: N13_13  and  C14_14 
REMARK    9  A    between atoms: C21_21  and  C26_26 
ROOT
HETATM    1  C14   D T 601      10.019 -12.253  -4.822  1.00 17.92     0.728 A 
HETATM    2  N15   D T 601      11.138 -13.002  -4.901  1.00 19.07    -0.044 NA
HETATM    3  C16   D T 601      12.023 -12.933  -5.904  1.00 18.16     0.163 A 
HETATM    4  C17   D T 601      11.756 -12.047  -6.951  1.00 16.80     0.030 A 
HETATM    5  C18   D T 601      10.578 -11.301  -6.896  1.00 18.08     0.151 A 
HETATM    6  N19   D T 601       9.745 -11.422  -5.841  1.00 16.91    -0.074 NA
HETATM    7  C20   D T 601      12.652 -11.958  -8.035  1.00 17.65     0.034 A 
HETATM    8  C21   D T 601      13.818 -12.741  -8.052  1.00 18.53     0.047 A 
HETATM    9  C22   D T 601      14.034 -13.624  -6.967  1.00 19.48     0.260 A 
HETATM   10  O23   D T 601      15.068 -14.319  -7.054  1.00 21.52    -0.267 OA
HETATM   11  N24   D T 601      13.155 -13.709  -5.903  1.00 19.49    -0.301 N 
HETATM   12  C25   D T 601      13.372 -14.588  -4.764  1.00 20.07     0.161 C 
ENDROOT
BRANCH   1  13
HETATM   13  N13   D T 601       9.201 -12.381  -3.765  1.00 20.14    -0.188 N 
HETATM   14 1H13   D T 601       8.999 -13.248  -3.541  1.00 24.16     0.184 HD
BRANCH  13  15
HETATM   15  C12   D T 601       8.615 -11.426  -2.964  1.00 24.69     0.049 A 
HETATM   16  C11   D T 601       7.206 -11.504  -2.805  1.00 26.89     0.033 A 
HETATM   17  C10   D T 601       6.525 -10.578  -1.985  1.00 28.95     0.039 A 
HETATM   18  C09   D T 601       7.250  -9.577  -1.303  1.00 30.95     0.069 A 
HETATM   19  C35   D T 601       8.649  -9.517  -1.438  1.00 28.80     0.039 A 
HETATM   20  C34   D T 601       9.313 -10.427  -2.266  1.00 26.81     0.033 A 
BRANCH  18  21
HETATM   21  O08   D T 601       6.631  -8.706  -0.477  1.00 36.09    -0.350 OA
BRANCH  21  22
HETATM   22  C07   D T 601       7.325  -8.434   0.771  1.00 42.63     0.195 C 
BRANCH  22  23
HETATM   23  C06   D T 601       6.861  -9.469   1.845  1.00 46.85     0.143 C 
BRANCH  23  24
HETATM   24  N03   D T 601       5.435  -9.273   2.310  1.00 51.06    -0.411 N 
BRANCH  24  25
HETATM   25  C02   D T 601       4.996  -8.016   3.055  1.00 53.85     0.112 C 
HETATM   26  C01   D T 601       3.491  -7.591   2.999  1.00 52.69     0.026 C 
ENDBRANCH  24  25
BRANCH  24  27
HETATM   27  C04   D T 601       4.442 -10.321   1.887  1.00 47.80     0.112 C 
HETATM   28  C05   D T 601       4.967 -11.588   1.155  1.00 44.89     0.026 C 
ENDBRANCH  24  27
ENDBRANCH  23  24
ENDBRANCH  22  23
ENDBRANCH  21  22
ENDBRANCH  18  21
ENDBRANCH  13  15
ENDBRANCH   1  13
BRANCH   8  29
HETATM   29  C26   D T 601      14.752 -12.653  -9.133  1.00 21.63     0.023 A 
HETATM   30  C27   D T 601      15.762 -11.652  -9.128  1.00 22.75     0.046 A 
HETATM   31 CL28   D T 601      15.839 -10.524  -7.875  1.00 22.59    -0.083 Cl
HETATM   32  C29   D T 601      16.707 -11.537 -10.182  1.00 24.08     0.025 A 
HETATM   33  C30   D T 601      16.681 -12.467 -11.246  1.00 25.63     0.003 A 
HETATM   34  C31   D T 601      15.706 -13.476 -11.256  1.00 25.41     0.025 A 
HETATM   35  C32   D T 601      14.751 -13.568 -10.212  1.00 23.77     0.046 A 
HETATM   36 CL33   D T 601      13.597 -14.803 -10.285  1.00 25.94    -0.083 Cl
ENDBRANCH   8  29
TORSDOF 9
ENDMDL
MODEL 2
REMARK VINA RESULT:    -7.751      0.739      2.142
REMARK INTER + INTRA:         -13.151
REMARK INTER:                 -11.903
REMARK INTRA:                  -1.249
REMARK UNBOUND:                -1.323
REMARK  9 active torsions:
REMARK  status: ('A' for Active; 'I' for Inactive)
REMARK    1  A    between atoms: C02_2  and  N03_3 
REMARK    2  A    between atoms: N03_3  and  C04_4 
REMARK    3  A    between atoms: N03_3  and  C06_6 
REMARK    4  A    between atoms: C06_6  and  C07_7 
REMARK    5  A    between atoms: C07_7  and  O08_8 
REMARK    6  A    between atoms: O08_8  and  C09_9 
REMARK    7  A    between atoms: C12_12  and  N13_13 
REMARK    8  A    between atoms: N13_13  and  C14_14 
REMARK    9  A    between atoms: C21_21  and  C26_26 
ROOT
HETATM    1  C14   D T 601      10.395 -12.275  -5.001  1.00 17.92     0.728 A 
HETATM    2  N15   D T 601      11.514 -13.023  -5.083  1.00 19.07    -0.044 NA
HETATM    3  C16   D T 601      12.336 -13.040  -6.141  1.00 18.16     0.163 A 
HETATM    4  C17   D T 601      11.996 -12.252  -7.243  1.00 16.80     0.030 A 
HETATM    5  C18   D T 601      10.816 -11.509  -7.182  1.00 18.08     0.151 A 
HETATM    6  N19   D T 601      10.051 -11.539  -6.071  1.00 16.91    -0.074 NA
HETATM    7  C20   D T 601      12.822 -12.257  -8.385  1.00 17.65     0.034 A 
HETATM    8  C21   D T 601      13.992 -13.032  -8.405  1.00 18.53     0.047 A 
HETATM    9  C22   D T 601      14.284 -13.815  -7.261  1.00 19.48     0.260 A 
HETATM   10  O23   D T 601      15.317 -14.510  -7.351  1.00 21.52    -0.267 OA
HETATM   11  N24   D T 601      13.473 -13.809  -6.141  1.00 19.49    -0.301 N 
HETATM   12  C25   D T 601      13.767 -14.581  -4.945  1.00 20.07     0.161 C 
ENDROOT
BRANCH   1  13
HETATM   13  N13   D T 601       9.645 -12.311  -3.888  1.00 20.14    -0.188 N 
HETATM   14 1H13   D T 601       9.297 -13.137  -3.689  1.00 24.16     0.184 HD
BRANCH  13  15
HETATM   15  C12   D T 601       9.311 -11.315  -2.998  1.00 24.69     0.049 A 
HETATM   16  C11   D T 601       7.949 -11.244  -2.601  1.00 26.89     0.033 A 
HETATM   17  C10   D T 601       7.522 -10.265  -1.677  1.00 28.95     0.039 A 
HETATM   18  C09   D T 601       8.458  -9.361  -1.128  1.00 30.95     0.069 A 
HETATM   19  C35   D T 601       9.811  -9.449  -1.500  1.00 28.80     0.039 A 
HETATM   20  C34   D T 601      10.222 -10.410  -2.430  1.00 26.81     0.033 A 
BRANCH  18  21
HETATM   21  O08   D T 601       8.086  -8.444  -0.208  1.00 36.09    -0.350 OA
BRANCH  21  22
HETATM   22  C07   D T 601       6.663  -8.407   0.089  1.00 42.63     0.195 C 
BRANCH  22  23
HETATM   23  C06   D T 601       6.453  -8.711   1.606  1.00 46.85     0.143 C 
BRANCH  23  24
HETATM   24  N03   D T 601       5.294  -9.640   1.891  1.00 51.06    -0.411 N 
BRANCH  24  25
HETATM   25  C02   D T 601       5.043 -10.894   1.059  1.00 53.85     0.112 C 
HETATM   26  C01   D T 601       6.112 -12.037   1.073  1.00 52.69     0.026 C 
ENDBRANCH  24  25
BRANCH  24  27
HETATM   27  C04   D T 601       4.476  -9.335   3.117  1.00 47.80     0.112 C 
HETATM   28  C05   D T 601       3.374  -8.244   3.020  1.00 44.89     0.026 C 
ENDBRANCH  24  27
ENDBRANCH  23  24
ENDBRANCH  22  23
ENDBRANCH  21  22
ENDBRANCH  18  21
ENDBRANCH  13  15
ENDBRANCH   1  13
BRANCH   8  29
HETATM   29  C26   D T 601      14.858 -13.037  -9.546  1.00 21.63     0.023 A 
HETATM   30  C27   D T 601      14.700 -14.022 -10.560  1.00 22.75     0.046 A 
HETATM   31 CL28   D T 601      13.527 -15.225 -10.406  1.00 22.59    -0.083 Cl
HETATM   32  C29   D T 601      15.538 -14.054 -11.706  1.00 24.08     0.025 A 
HETATM   33  C30   D T 601      16.527 -13.059 -11.876  1.00 25.63     0.003 A 
HETATM   34  C31   D T 601      16.681 -12.067 -10.897  1.00 25.41     0.025 A 
HETATM   35  C32   D T 601      15.856 -12.056  -9.743  1.00 23.77     0.046 A 
HETATM   36 CL33   D T 601      16.097 -10.836  -8.596  1.00 25.94    -0.083 Cl
ENDBRANCH   8  29
TORSDOF 9
ENDMDL
MODEL 3
REMARK VINA RESULT:    -7.452      4.700     13.063
REMARK INTER + INTRA:         -12.695
REMARK INTER:                 -11.740
REMARK INTRA:                  -0.955
REMARK UNBOUND:                -1.323
REMARK  9 active torsions:
REMARK  status: ('A' for Active; 'I' for Inactive)
REMARK    1  A    between atoms: C02_2  and  N03_3 
REMARK    2  A    between atoms: N03_3  and  C04_4 
REMARK    3  A    between atoms: N03_3  and  C06_6 
REMARK    4  A    between atoms: C06_6  and  C07_7 
REMARK    5  A    between atoms: C07_7  and  O08_8 
REMARK    6  A    between atoms: O08_8  and  C09_9 
REMARK    7  A    between atoms: C12_12  and  N13_13 
REMARK    8  A    between atoms: N13_13  and  C14_14 
REMARK    9  A    between atoms: C21_21  and  C26_26 
ROOT
HETATM    1  C14   D T 601       6.266 -10.829  -1.445  1.00 17.92     0.728 A 
HETATM    2  N15   D T 601       5.318 -11.152  -0.542  1.00 19.07    -0.044 NA
HETATM    3  C16   D T 601       5.131 -10.511   0.619  1.00 18.16     0.163 A 
HETATM    4  C17   D T 601       5.992  -9.455   0.927  1.00 16.80     0.030 A 
HETATM    5  C18   D T 601       7.003  -9.143   0.017  1.00 18.08     0.151 A 
HETATM    6  N19   D T 601       7.114  -9.833  -1.137  1.00 16.91    -0.074 NA
HETATM    7  C20   D T 601       5.841  -8.766   2.148  1.00 17.65     0.034 A 
HETATM    8  C21   D T 601       4.817  -9.126   3.039  1.00 18.53     0.047 A 
HETATM    9  C22   D T 601       3.978 -10.207   2.675  1.00 19.48     0.260 A 
HETATM   10  O23   D T 601       3.109 -10.504   3.522  1.00 21.52    -0.267 OA
HETATM   11  N24   D T 601       4.126 -10.881   1.477  1.00 19.49    -0.301 N 
HETATM   12  C25   D T 601       3.257 -11.975   1.070  1.00 20.07     0.161 C 
ENDROOT
BRANCH   1  13
HETATM   13  N13   D T 601       6.364 -11.521  -2.591  1.00 20.14    -0.188 N 
HETATM   14 1H13   D T 601       5.640 -12.052  -2.780  1.00 24.16     0.184 HD
BRANCH  13  15
HETATM   15  C12   D T 601       7.372 -11.565  -3.529  1.00 24.69     0.049 A 
HETATM   16  C11   D T 601       7.025 -11.198  -4.856  1.00 26.89     0.033 A 
HETATM   17  C10   D T 601       8.000 -11.196  -5.877  1.00 28.95     0.039 A 
HETATM   18  C09   D T 601       9.335 -11.544  -5.575  1.00 30.95     0.069 A 
HETATM   19  C35   D T 601       9.685 -11.882  -4.255  1.00 28.80     0.039 A 
HETATM   20  C34   D T 601       8.708 -11.898  -3.254  1.00 26.81     0.033 A 
BRANCH  18  21
HETATM   21  O08   D T 601      10.297 -11.508  -6.522  1.00 36.09    -0.350 OA
BRANCH  21  22
HETATM   22  C07   D T 601      11.428 -12.392  -6.290  1.00 42.63     0.195 C 
BRANCH  22  23
HETATM   23  C06   D T 601      12.734 -11.538  -6.219  1.00 46.85     0.143 C 
BRANCH  23  24
HETATM   24  N03   D T 601      13.657 -11.729  -7.402  1.00 51.06    -0.411 N 
BRANCH  24  25
HETATM   25  C02   D T 601      13.201 -12.439  -8.673  1.00 53.85     0.112 C 
HETATM   26  C01   D T 601      13.649 -13.919  -8.914  1.00 52.69     0.026 C 
ENDBRANCH  24  25
BRANCH  24  27
HETATM   27  C04   D T 601      15.007 -11.069  -7.313  1.00 47.80     0.112 C 
HETATM   28  C05   D T 601      15.673 -10.565  -8.623  1.00 44.89     0.026 C 
ENDBRANCH  24  27
ENDBRANCH  23  24
ENDBRANCH  22  23
ENDBRANCH  21  22
ENDBRANCH  18  21
ENDBRANCH  13  15
ENDBRANCH   1  13
BRANCH   8  29
HETATM   29  C26   D T 601       4.633  -8.428   4.275  1.00 21.63     0.023 A 
HETATM   30  C27   D T 601       3.650  -7.405   4.382  1.00 22.75     0.046 A 
HETATM   31 CL28   D T 601       2.727  -6.968   3.038  1.00 22.59    -0.083 Cl
HETATM   32  C29   D T 601       3.439  -6.695   5.593  1.00 24.08     0.025 A 
HETATM   33  C30   D T 601       4.186  -7.038   6.742  1.00 25.63     0.003 A 
HETATM   34  C31   D T 601       5.143  -8.060   6.662  1.00 25.41     0.025 A 
HETATM   35  C32   D T 601       5.366  -8.747   5.442  1.00 23.77     0.046 A 
HETATM   36 CL33   D T 601       6.539  -9.966   5.409  1.00 25.94    -0.083 Cl
ENDBRANCH   8  29
TORSDOF 9
ENDMDL
MODEL 4
REMARK VINA RESULT:    -7.318      1.098      1.981
REMARK INTER + INTRA:         -12.491
REMARK INTER:                 -11.223
REMARK INTRA:                  -1.267
REMARK UNBOUND:                -1.323
REMARK  9 active torsions:
REMARK  status: ('A' for Active; 'I' for Inactive)
REMARK    1  A    between atoms: C02_2  and  N03_3 
REMARK    2  A    between atoms: N03_3  and  C04_4 
REMARK    3  A    between atoms: N03_3  and  C06_6 
REMARK    4  A    between atoms: C06_6  and  C07_7 
REMARK    5  A    between atoms: C07_7  and  O08_8 
REMARK    6  A    between atoms: O08_8  and  C09_9 
REMARK    7  A    between atoms: C12_12  and  N13_13 
REMARK    8  A    between atoms: N13_13  and  C14_14 
REMARK    9  A    between atoms: C21_21  and  C26_26 
ROOT
HETATM    1  C14   D T 601       9.993 -12.161  -5.035  1.00 17.92     0.728 A 
HETATM    2  N15   D T 601      11.117 -12.905  -5.063  1.00 19.07    -0.044 NA
HETATM    3  C16   D T 601      12.015 -12.880  -6.056  1.00 18.16     0.163 A 
HETATM    4  C17   D T 601      11.756 -12.049  -7.149  1.00 16.80     0.030 A 
HETATM    5  C18   D T 601      10.573 -11.308  -7.146  1.00 18.08     0.151 A 
HETATM    6  N19   D T 601       9.728 -11.382  -6.097  1.00 16.91    -0.074 NA
HETATM    7  C20   D T 601      12.666 -12.008  -8.225  1.00 17.65     0.034 A 
HETATM    8  C21   D T 601      13.836 -12.783  -8.187  1.00 18.53     0.047 A 
HETATM    9  C22   D T 601      14.043 -13.610  -7.057  1.00 19.48     0.260 A 
HETATM   10  O23   D T 601      15.083 -14.302  -7.097  1.00 21.52    -0.267 OA
HETATM   11  N24   D T 601      13.151 -13.649  -6.002  1.00 19.49    -0.301 N 
HETATM   12  C25   D T 601      13.357 -14.468  -4.818  1.00 20.07     0.161 C 
ENDROOT
BRANCH   1  13
HETATM   13  N13   D T 601       9.161 -12.241  -3.984  1.00 20.14    -0.188 N 
HETATM   14 1H13   D T 601       8.752 -13.057  -3.882  1.00 24.16     0.184 HD
BRANCH  13  15
HETATM   15  C12   D T 601       8.821 -11.303  -3.035  1.00 24.69     0.049 A 
HETATM   16  C11   D T 601       7.523 -11.410  -2.468  1.00 26.89     0.033 A 
HETATM   17  C10   D T 601       7.098 -10.502  -1.475  1.00 28.95     0.039 A 
HETATM   18  C09   D T 601       7.973  -9.490  -1.026  1.00 30.95     0.069 A 
HETATM   19  C35   D T 601       9.268  -9.400  -1.568  1.00 28.80     0.039 A 
HETATM   20  C34   D T 601       9.675 -10.293  -2.564  1.00 26.81     0.033 A 
BRANCH  18  21
HETATM   21  O08   D T 601       7.609  -8.635  -0.046  1.00 36.09    -0.350 OA
BRANCH  21  22
HETATM   22  C07   D T 601       6.440  -9.034   0.721  1.00 42.63     0.195 C 
BRANCH  22  23
HETATM   23  C06   D T 601       6.908  -9.644   2.081  1.00 46.85     0.143 C 
BRANCH  23  24
HETATM   24  N03   D T 601       8.095  -8.935   2.694  1.00 51.06    -0.411 N 
BRANCH  24  25
HETATM   25  C02   D T 601       9.513  -9.483   2.569  1.00 53.85     0.112 C 
HETATM   26  C01   D T 601      10.607  -8.599   1.882  1.00 52.69     0.026 C 
ENDBRANCH  24  25
BRANCH  24  27
HETATM   27  C04   D T 601       7.825  -7.595   3.323  1.00 47.80     0.112 C 
HETATM   28  C05   D T 601       6.435  -7.350   3.975  1.00 44.89     0.026 C 
ENDBRANCH  24  27
ENDBRANCH  23  24
ENDBRANCH  22  23
ENDBRANCH  21  22
ENDBRANCH  18  21
ENDBRANCH  13  15
ENDBRANCH   1  13
BRANCH   8  29
HETATM   29  C26   D T 601      14.785 -12.743  -9.260  1.00 21.63     0.023 A 
HETATM   30  C27   D T 601      15.792 -11.739  -9.288  1.00 22.75     0.046 A 
HETATM   31 CL28   D T 601      15.850 -10.555  -8.087  1.00 22.59    -0.083 Cl
HETATM   32  C29   D T 601      16.750 -11.672 -10.334  1.00 24.08     0.025 A 
HETATM   33  C30   D T 601      16.740 -12.650 -11.354  1.00 25.63     0.003 A 
HETATM   34  C31   D T 601      15.768 -13.660 -11.329  1.00 25.41     0.025 A 
HETATM   35  C32   D T 601      14.799 -13.706 -10.295  1.00 23.77     0.046 A 
HETATM   36 CL33   D T 601      13.649 -14.947 -10.325  1.00 25.94    -0.083 Cl
ENDBRANCH   8  29
TORSDOF 9
ENDMDL
MODEL 5
REMARK VINA RESULT:    -7.228      4.785     12.891
REMARK INTER + INTRA:         -12.353
REMARK INTER:                 -11.504
REMARK INTRA:                  -0.849
REMARK UNBOUND:                -1.323
REMARK  9 active torsions:
REMARK  status: ('A' for Active; 'I' for Inactive)
REMARK    1  A    between atoms: C02_2  and  N03_3 
REMARK    2  A    between atoms: N03_3  and  C04_4 
REMARK    3  A    between atoms: N03_3  and  C06_6 
REMARK    4  A    between atoms: C06_6  and  C07_7 
REMARK    5  A    between atoms: C07_7  and  O08_8 
REMARK    6  A    between atoms: O08_8  and  C09_9 
REMARK    7  A    between atoms: C12_12  and  N13_13 
REMARK    8  A    between atoms: N13_13  and  C14_14 
REMARK    9  A    between atoms: C21_21  and  C26_26 
ROOT
HETATM    1  C14   D T 601       6.322 -10.831  -1.547  1.00 17.92     0.728 A 
HETATM    2  N15   D T 601       5.351 -11.125  -0.659  1.00 19.07    -0.044 NA
HETATM    3  C16   D T 601       5.167 -10.479   0.500  1.00 18.16     0.163 A 
HETATM    4  C17   D T 601       6.057  -9.453   0.823  1.00 16.80     0.030 A 
HETATM    5  C18   D T 601       7.091  -9.172  -0.071  1.00 18.08     0.151 A 
HETATM    6  N19   D T 601       7.197  -9.863  -1.225  1.00 16.91    -0.074 NA
HETATM    7  C20   D T 601       5.910  -8.761   2.043  1.00 17.65     0.034 A 
HETATM    8  C21   D T 601       4.862  -9.090   2.917  1.00 18.53     0.047 A 
HETATM    9  C22   D T 601       3.993 -10.142   2.539  1.00 19.48     0.260 A 
HETATM   10  O23   D T 601       3.103 -10.412   3.373  1.00 21.52    -0.267 OA
HETATM   11  N24   D T 601       4.138 -10.819   1.342  1.00 19.49    -0.301 N 
HETATM   12  C25   D T 601       3.241 -11.883   0.920  1.00 20.07     0.161 C 
ENDROOT
BRANCH   1  13
HETATM   13  N13   D T 601       6.415 -11.524  -2.693  1.00 20.14    -0.188 N 
HETATM   14 1H13   D T 601       5.733 -12.120  -2.836  1.00 24.16     0.184 HD
BRANCH  13  15
HETATM   15  C12   D T 601       7.366 -11.487  -3.690  1.00 24.69     0.049 A 
HETATM   16  C11   D T 601       8.680 -11.888  -3.332  1.00 26.89     0.033 A 
HETATM   17  C10   D T 601       9.713 -11.900  -4.295  1.00 28.95     0.039 A 
HETATM   18  C09   D T 601       9.435 -11.527  -5.628  1.00 30.95     0.069 A 
HETATM   19  C35   D T 601       8.127 -11.156  -5.989  1.00 28.80     0.039 A 
HETATM   20  C34   D T 601       7.115 -11.131  -5.024  1.00 26.81     0.033 A 
BRANCH  18  21
HETATM   21  O08   D T 601      10.392 -11.572  -6.580  1.00 36.09    -0.350 OA
BRANCH  21  22
HETATM   22  C07   D T 601      11.716 -11.947  -6.109  1.00 42.63     0.195 C 
BRANCH  22  23
HETATM   23  C06   D T 601      12.679 -12.052  -7.335  1.00 46.85     0.143 C 
BRANCH  23  24
HETATM   24  N03   D T 601      13.902 -12.905  -7.082  1.00 51.06    -0.411 N 
BRANCH  24  25
HETATM   25  C02   D T 601      15.127 -12.362  -6.353  1.00 53.85     0.112 C 
HETATM   26  C01   D T 601      15.332 -10.813  -6.269  1.00 52.69     0.026 C 
ENDBRANCH  24  25
BRANCH  24  27
HETATM   27  C04   D T 601      13.800 -14.356  -7.471  1.00 47.80     0.112 C 
HETATM   28  C05   D T 601      12.508 -14.842  -8.184  1.00 44.89     0.026 C 
ENDBRANCH  24  27
ENDBRANCH  23  24
ENDBRANCH  22  23
ENDBRANCH  21  22
ENDBRANCH  18  21
ENDBRANCH  13  15
ENDBRANCH   1  13
BRANCH   8  29
HETATM   29  C26   D T 601       4.682  -8.388   4.153  1.00 21.63     0.023 A 
HETATM   30  C27   D T 601       5.475  -8.717   5.286  1.00 22.75     0.046 A 
HETATM   31 CL28   D T 601       6.599  -9.973   5.204  1.00 22.59    -0.083 Cl
HETATM   32  C29   D T 601       5.325  -8.041   6.525  1.00 24.08     0.025 A 
HETATM   33  C30   D T 601       4.399  -6.978   6.632  1.00 25.63     0.003 A 
HETATM   34  C31   D T 601       3.625  -6.624   5.518  1.00 25.41     0.025 A 
HETATM   35  C32   D T 601       3.763  -7.321   4.291  1.00 23.77     0.046 A 
HETATM   36 CL33   D T 601       2.796  -6.850   2.986  1.00 25.94    -0.083 Cl
ENDBRANCH   8  29
TORSDOF 9
ENDMDL
MODEL 6
REMARK VINA RESULT:    -7.219      5.778     11.576
REMARK INTER + INTRA:         -12.340
REMARK INTER:                 -10.871
REMARK INTRA:                  -1.470
REMARK UNBOUND:                -1.323
REMARK  9 active torsions:
REMARK  status: ('A' for Active; 'I' for Inactive)
REMARK    1  A    between atoms: C02_2  and  N03_3 
REMARK    2  A    between atoms: N03_3  and  C04_4 
REMARK    3  A    between atoms: N03_3  and  C06_6 
REMARK    4  A    between atoms: C06_6  and  C07_7 
REMARK    5  A    between atoms: C07_7  and  O08_8 
REMARK    6  A    between atoms: O08_8  and  C09_9 
REMARK    7  A    between atoms: C12_12  and  N13_13 
REMARK    8  A    between atoms: N13_13  and  C14_14 
REMARK    9  A    between atoms: C21_21  and  C26_26 
ROOT
HETATM    1  C14   D T 601      10.146 -10.150  -0.337  1.00 17.92     0.728 A 
HETATM    2  N15   D T 601       8.948 -10.707  -0.065  1.00 19.07    -0.044 NA
HETATM    3  C16   D T 601       8.127 -10.294   0.908  1.00 18.16     0.163 A 
HETATM    4  C17   D T 601       8.551  -9.234   1.713  1.00 16.80     0.030 A 
HETATM    5  C18   D T 601       9.808  -8.682   1.465  1.00 18.08     0.151 A 
HETATM    6  N19   D T 601      10.569  -9.150   0.454  1.00 16.91    -0.074 NA
HETATM    7  C20   D T 601       7.725  -8.782   2.762  1.00 17.65     0.034 A 
HETATM    8  C21   D T 601       6.474  -9.379   2.982  1.00 18.53     0.047 A 
HETATM    9  C22   D T 601       6.099 -10.453   2.137  1.00 19.48     0.260 A 
HETATM   10  O23   D T 601       4.992 -10.967   2.403  1.00 21.52    -0.267 OA
HETATM   11  N24   D T 601       6.909 -10.895   1.108  1.00 19.49    -0.301 N 
HETATM   12  C25   D T 601       6.533 -11.975   0.211  1.00 20.07     0.161 C 
ENDROOT
BRANCH   1  13
HETATM   13  N13   D T 601      10.892 -10.624  -1.348  1.00 20.14    -0.188 N 
HETATM   14 1H13   D T 601      11.705 -10.966  -1.096  1.00 24.16     0.184 HD
BRANCH  13  15
HETATM   15  C12   D T 601      10.637 -10.681  -2.701  1.00 24.69     0.049 A 
HETATM   16  C11   D T 601      10.221 -11.936  -3.219  1.00 26.89     0.033 A 
HETATM   17  C10   D T 601       9.921 -12.080  -4.591  1.00 28.95     0.039 A 
HETATM   18  C09   D T 601      10.015 -10.966  -5.453  1.00 30.95     0.069 A 
HETATM   19  C35   D T 601      10.400  -9.716  -4.934  1.00 28.80     0.039 A 
HETATM   20  C34   D T 601      10.713  -9.587  -3.578  1.00 26.81     0.033 A 
BRANCH  18  21
HETATM   21  O08   D T 601       9.690 -11.064  -6.760  1.00 36.09    -0.350 OA
BRANCH  21  22
HETATM   22  C07   D T 601       8.552 -10.262  -7.178  1.00 42.63     0.195 C 
BRANCH  22  23
HETATM   23  C06   D T 601       7.265 -11.147  -7.137  1.00 46.85     0.143 C 
BRANCH  23  24
HETATM   24  N03   D T 601       6.282 -10.750  -6.059  1.00 51.06    -0.411 N 
BRANCH  24  25
HETATM   25  C02   D T 601       5.136  -9.781  -6.330  1.00 53.85     0.112 C 
HETATM   26  C01   D T 601       5.168  -8.917  -7.634  1.00 52.69     0.026 C 
ENDBRANCH  24  25
BRANCH  24  27
HETATM   27  C04   D T 601       6.413 -11.460  -4.738  1.00 47.80     0.112 C 
HETATM   28  C05   D T 601       5.717 -10.843  -3.493  1.00 44.89     0.026 C 
ENDBRANCH  24  27
ENDBRANCH  23  24
ENDBRANCH  22  23
ENDBRANCH  21  22
ENDBRANCH  18  21
ENDBRANCH  13  15
ENDBRANCH   1  13
BRANCH   8  29
HETATM   29  C26   D T 601       5.609  -8.923   4.028  1.00 21.63     0.023 A 
HETATM   30  C27   D T 601       4.550  -8.019   3.740  1.00 22.75     0.046 A 
HETATM   31 CL28   D T 601       4.332  -7.433   2.173  1.00 22.59    -0.083 Cl
HETATM   32  C29   D T 601       3.673  -7.549   4.753  1.00 24.08     0.025 A 
HETATM   33  C30   D T 601       3.817  -8.023   6.076  1.00 25.63     0.003 A 
HETATM   34  C31   D T 601       4.841  -8.933   6.374  1.00 25.41     0.025 A 
HETATM   35  C32   D T 601       5.729  -9.378   5.362  1.00 23.77     0.046 A 
HETATM   36 CL33   D T 601       6.948 -10.472   5.787  1.00 25.94    -0.083 Cl
ENDBRANCH   8  29
TORSDOF 9
ENDMDL
MODEL 7
REMARK VINA RESULT:    -7.197      4.837     13.095
REMARK INTER + INTRA:         -12.307
REMARK INTER:                 -11.307
REMARK INTRA:                  -1.000
REMARK UNBOUND:                -1.323
REMARK  9 active torsions:
REMARK  status: ('A' for Active; 'I' for Inactive)
REMARK    1  A    between atoms: C02_2  and  N03_3 
REMARK    2  A    between atoms: N03_3  and  C04_4 
REMARK    3  A    between atoms: N03_3  and  C06_6 
REMARK    4  A    between atoms: C06_6  and  C07_7 
REMARK    5  A    between atoms: C07_7  and  O08_8 
REMARK    6  A    between atoms: O08_8  and  C09_9 
REMARK    7  A    between atoms: C12_12  and  N13_13 
REMARK    8  A    between atoms: N13_13  and  C14_14 
REMARK    9  A    between atoms: C21_21  and  C26_26 
ROOT
HETATM    1  C14   D T 601       8.597 -10.798   0.439  1.00 17.92     0.728 A 
HETATM    2  N15   D T 601       7.303 -11.041   0.728  1.00 19.07    -0.044 NA
HETATM    3  C16   D T 601       6.608 -10.401   1.677  1.00 18.16     0.163 A 
HETATM    4  C17   D T 601       7.275  -9.437   2.436  1.00 16.80     0.030 A 
HETATM    5  C18   D T 601       8.626  -9.211   2.171  1.00 18.08     0.151 A 
HETATM    6  N19   D T 601       9.249  -9.892   1.187  1.00 16.91    -0.074 NA
HETATM    7  C20   D T 601       6.585  -8.754   3.458  1.00 17.65     0.034 A 
HETATM    8  C21   D T 601       5.228  -9.027   3.696  1.00 18.53     0.047 A 
HETATM    9  C22   D T 601       4.605 -10.017   2.899  1.00 19.48     0.260 A 
HETATM   10  O23   D T 601       3.409 -10.241   3.181  1.00 21.52    -0.267 OA
HETATM   11  N24   D T 601       5.283 -10.685   1.896  1.00 19.49    -0.301 N 
HETATM   12  C25   D T 601       4.656 -11.685   1.046  1.00 20.07     0.161 C 
ENDROOT
BRANCH   1  13
HETATM   13  N13   D T 601       9.205 -11.480  -0.545  1.00 20.14    -0.188 N 
HETATM   14 1H13   D T 601       9.803 -12.115  -0.257  1.00 24.16     0.184 HD
BRANCH  13  15
HETATM   15  C12   D T 601       9.078 -11.386  -1.913  1.00 24.69     0.049 A 
HETATM   16  C11   D T 601      10.013 -10.554  -2.584  1.00 26.89     0.033 A 
HETATM   17  C10   D T 601       9.969 -10.414  -3.988  1.00 28.95     0.039 A 
HETATM   18  C09   D T 601       9.000 -11.119  -4.735  1.00 30.95     0.069 A 
HETATM   19  C35   D T 601       8.092 -11.965  -4.073  1.00 28.80     0.039 A 
HETATM   20  C34   D T 601       8.132 -12.084  -2.681  1.00 26.81     0.033 A 
BRANCH  18  21
HETATM   21  O08   D T 601       8.963 -11.039  -6.083  1.00 36.09    -0.350 OA
BRANCH  21  22
HETATM   22  C07   D T 601      10.250 -11.169  -6.747  1.00 42.63     0.195 C 
BRANCH  22  23
HETATM   23  C06   D T 601      10.673 -12.673  -6.743  1.00 46.85     0.143 C 
BRANCH  23  24
HETATM   24  N03   D T 601      11.988 -12.941  -7.441  1.00 51.06    -0.411 N 
BRANCH  24  25
HETATM   25  C02   D T 601      12.533 -14.355  -7.617  1.00 53.85     0.112 C 
HETATM   26  C01   D T 601      13.623 -14.875  -6.622  1.00 52.69     0.026 C 
ENDBRANCH  24  25
BRANCH  24  27
HETATM   27  C04   D T 601      12.670 -11.754  -8.066  1.00 47.80     0.112 C 
HETATM   28  C05   D T 601      14.004 -11.984  -8.831  1.00 44.89     0.026 C 
ENDBRANCH  24  27
ENDBRANCH  23  24
ENDBRANCH  22  23
ENDBRANCH  21  22
ENDBRANCH  18  21
ENDBRANCH  13  15
ENDBRANCH   1  13
BRANCH   8  29
HETATM   29  C26   D T 601       4.502  -8.331   4.716  1.00 21.63     0.023 A 
HETATM   30  C27   D T 601       4.689  -8.668   6.085  1.00 22.75     0.046 A 
HETATM   31 CL28   D T 601       5.728  -9.924   6.520  1.00 22.59    -0.083 Cl
HETATM   32  C29   D T 601       3.987  -7.997   7.122  1.00 24.08     0.025 A 
HETATM   33  C30   D T 601       3.114  -6.934   6.799  1.00 25.63     0.003 A 
HETATM   34  C31   D T 601       2.936  -6.573   5.456  1.00 25.41     0.025 A 
HETATM   35  C32   D T 601       3.621  -7.264   4.424  1.00 23.77     0.046 A 
HETATM   36 CL33   D T 601       3.358  -6.784   2.824  1.00 25.94    -0.083 Cl
ENDBRANCH   8  29
TORSDOF 9
ENDMDL
MODEL 8
REMARK VINA RESULT:    -6.996      4.207     12.067
REMARK INTER + INTRA:         -12.000
REMARK INTER:                 -10.869
REMARK INTRA:                  -1.132
REMARK UNBOUND:                -1.323
REMARK  9 active torsions:
REMARK  status: ('A' for Active; 'I' for Inactive)
REMARK    1  A    between atoms: C02_2  and  N03_3 
REMARK    2  A    between atoms: N03_3  and  C04_4 
REMARK    3  A    between atoms: N03_3  and  C06_6 
REMARK    4  A    between atoms: C06_6  and  C07_7 
REMARK    5  A    between atoms: C07_7  and  O08_8 
REMARK    6  A    between atoms: O08_8  and  C09_9 
REMARK    7  A    between atoms: C12_12  and  N13_13 
REMARK    8  A    between atoms: N13_13  and  C14_14 
REMARK    9  A    between atoms: C21_21  and  C26_26 
ROOT
HETATM    1  C14   D T 601       8.757 -10.498  -2.315  1.00 17.92     0.728 A 
HETATM    2  N15   D T 601       8.255 -10.914  -1.135  1.00 19.07    -0.044 NA
HETATM    3  C16   D T 601       8.456 -10.291   0.034  1.00 18.16     0.163 A 
HETATM    4  C17   D T 601       9.262  -9.150   0.034  1.00 16.80     0.030 A 
HETATM    5  C18   D T 601       9.820  -8.738  -1.177  1.00 18.08     0.151 A 
HETATM    6  N19   D T 601       9.556  -9.417  -2.313  1.00 16.91    -0.074 NA
HETATM    7  C20   D T 601       9.516  -8.475   1.245  1.00 17.65     0.034 A 
HETATM    8  C21   D T 601       8.942  -8.936   2.441  1.00 18.53     0.047 A 
HETATM    9  C22   D T 601       8.138 -10.100   2.381  1.00 19.48     0.260 A 
HETATM   10  O23   D T 601       7.686 -10.482   3.481  1.00 21.52    -0.267 OA
HETATM   11  N24   D T 601       7.890 -10.760   1.192  1.00 19.49    -0.301 N 
HETATM   12  C25   D T 601       7.044 -11.940   1.102  1.00 20.07     0.161 C 
ENDROOT
BRANCH   1  13
HETATM   13  N13   D T 601       8.484 -11.181  -3.438  1.00 20.14    -0.188 N 
HETATM   14 1H13   D T 601       7.622 -11.490  -3.497  1.00 24.16     0.184 HD
BRANCH  13  15
HETATM   15  C12   D T 601       9.284 -11.493  -4.515  1.00 24.69     0.049 A 
HETATM   16  C11   D T 601      10.423 -12.299  -4.251  1.00 26.89     0.033 A 
HETATM   17  C10   D T 601      11.287 -12.683  -5.299  1.00 28.95     0.039 A 
HETATM   18  C09   D T 601      11.009 -12.280  -6.623  1.00 30.95     0.069 A 
HETATM   19  C35   D T 601       9.865 -11.506  -6.889  1.00 28.80     0.039 A 
HETATM   20  C34   D T 601       9.025 -11.115  -5.842  1.00 26.81     0.033 A 
BRANCH  18  21
HETATM   21  O08   D T 601      11.793 -12.670  -7.652  1.00 36.09    -0.350 OA
BRANCH  21  22
HETATM   22  C07   D T 601      12.512 -11.599  -8.323  1.00 42.63     0.195 C 
BRANCH  22  23
HETATM   23  C06   D T 601      14.000 -11.611  -7.849  1.00 46.85     0.143 C 
BRANCH  23  24
HETATM   24  N03   D T 601      14.982 -12.031  -8.921  1.00 51.06    -0.411 N 
BRANCH  24  25
HETATM   25  C02   D T 601      16.179 -11.165  -9.301  1.00 53.85     0.112 C 
HETATM   26  C01   D T 601      17.469 -11.859  -9.851  1.00 52.69     0.026 C 
ENDBRANCH  24  25
BRANCH  24  27
HETATM   27  C04   D T 601      14.791 -13.405  -9.505  1.00 47.80     0.112 C 
HETATM   28  C05   D T 601      14.354 -13.524 -10.991  1.00 44.89     0.026 C 
ENDBRANCH  24  27
ENDBRANCH  23  24
ENDBRANCH  22  23
ENDBRANCH  21  22
ENDBRANCH  18  21
ENDBRANCH  13  15
ENDBRANCH   1  13
BRANCH   8  29
HETATM   29  C26   D T 601       9.170  -8.256   3.681  1.00 21.63     0.023 A 
HETATM   30  C27   D T 601       8.213  -7.325   4.174  1.00 22.75     0.046 A 
HETATM   31 CL28   D T 601       6.826  -6.974   3.279  1.00 22.59    -0.083 Cl
HETATM   32  C29   D T 601       8.405  -6.636   5.400  1.00 24.08     0.025 A 
HETATM   33  C30   D T 601       9.550  -6.908   6.182  1.00 25.63     0.003 A 
HETATM   34  C31   D T 601      10.492  -7.840   5.723  1.00 25.41     0.025 A 
HETATM   35  C32   D T 601      10.306  -8.506   4.485  1.00 23.77     0.046 A 
HETATM   36 CL33   D T 601      11.482  -9.614   3.984  1.00 25.94    -0.083 Cl
ENDBRANCH   8  29
TORSDOF 9
ENDMDL
MODEL 9
REMARK VINA RESULT:    -6.934      3.554     12.011
REMARK INTER + INTRA:         -11.905
REMARK INTER:                 -10.729
REMARK INTRA:                  -1.176
REMARK UNBOUND:                -1.323
REMARK  9 active torsions:
REMARK  status: ('A' for Active; 'I' for Inactive)
REMARK    1  A    between atoms: C02_2  and  N03_3 
REMARK    2  A    between atoms: N03_3  and  C04_4 
REMARK    3  A    between atoms: N03_3  and  C06_6 
REMARK    4  A    between atoms: C06_6  and  C07_7 
REMARK    5  A    between atoms: C07_7  and  O08_8 
REMARK    6  A    between atoms: O08_8  and  C09_9 
REMARK    7  A    between atoms: C12_12  and  N13_13 
REMARK    8  A    between atoms: N13_13  and  C14_14 
REMARK    9  A    between atoms: C21_21  and  C26_26 
ROOT
HETATM    1  C14   D T 601       9.641 -11.869  -5.096  1.00 17.92     0.728 A 
HETATM    2  N15   D T 601       8.338 -11.635  -4.839  1.00 19.07    -0.044 NA
HETATM    3  C16   D T 601       7.858 -11.262  -3.646  1.00 18.16     0.163 A 
HETATM    4  C17   D T 601       8.764 -11.134  -2.590  1.00 16.80     0.030 A 
HETATM    5  C18   D T 601      10.108 -11.417  -2.838  1.00 18.08     0.151 A 
HETATM    6  N19   D T 601      10.510 -11.775  -4.076  1.00 16.91    -0.074 NA
HETATM    7  C20   D T 601       8.298 -10.763  -1.313  1.00 17.65     0.034 A 
HETATM    8  C21   D T 601       6.933 -10.502  -1.109  1.00 18.53     0.047 A 
HETATM    9  C22   D T 601       6.061 -10.653  -2.214  1.00 19.48     0.260 A 
HETATM   10  O23   D T 601       4.856 -10.442  -1.964  1.00 21.52    -0.267 OA
HETATM   11  N24   D T 601       6.520 -11.016  -3.467  1.00 19.49    -0.301 N 
HETATM   12  C25   D T 601       5.648 -11.148  -4.623  1.00 20.07     0.161 C 
ENDROOT
BRANCH   1  13
HETATM   13  N13   D T 601      10.028 -12.222  -6.332  1.00 20.14    -0.188 N 
HETATM   14 1H13   D T 601       9.345 -12.292  -6.941  1.00 24.16     0.184 HD
BRANCH  13  15
HETATM   15  C12   D T 601      11.281 -12.495  -6.836  1.00 24.69     0.049 A 
HETATM   16  C11   D T 601      11.885 -11.482  -7.626  1.00 26.89     0.033 A 
HETATM   17  C10   D T 601      13.176 -11.669  -8.167  1.00 28.95     0.039 A 
HETATM   18  C09   D T 601      13.880 -12.865  -7.907  1.00 30.95     0.069 A 
HETATM   19  C35   D T 601      13.293 -13.857  -7.102  1.00 28.80     0.039 A 
HETATM   20  C34   D T 601      12.007 -13.670  -6.585  1.00 26.81     0.033 A 
BRANCH  18  21
HETATM   21  O08   D T 601      15.133 -13.053  -8.374  1.00 36.09    -0.350 OA
BRANCH  21  22
HETATM   22  C07   D T 601      15.659 -14.399  -8.212  1.00 42.63     0.195 C 
BRANCH  22  23
HETATM   23  C06   D T 601      16.034 -14.970  -9.616  1.00 46.85     0.143 C 
BRANCH  23  24
HETATM   24  N03   D T 601      15.419 -14.212 -10.771  1.00 51.06    -0.411 N 
BRANCH  24  25
HETATM   25  C02   D T 601      16.139 -13.050 -11.448  1.00 53.85     0.112 C 
HETATM   26  C01   D T 601      16.958 -13.325 -12.752  1.00 52.69     0.026 C 
ENDBRANCH  24  25
BRANCH  24  27
HETATM   27  C04   D T 601      14.115 -14.743 -11.303  1.00 47.80     0.112 C 
HETATM   28  C05   D T 601      13.357 -15.816 -10.472  1.00 44.89     0.026 C 
ENDBRANCH  24  27
ENDBRANCH  23  24
ENDBRANCH  22  23
ENDBRANCH  21  22
ENDBRANCH  18  21
ENDBRANCH  13  15
ENDBRANCH   1  13
BRANCH   8  29
HETATM   29  C26   D T 601       6.440 -10.104   0.175  1.00 21.63     0.023 A 
HETATM   30  C27   D T 601       6.026 -11.084   1.119  1.00 22.75     0.046 A 
HETATM   31 CL28   D T 601       6.063 -12.723   0.718  1.00 22.59    -0.083 Cl
HETATM   32  C29   D T 601       5.535 -10.726   2.402  1.00 24.08     0.025 A 
HETATM   33  C30   D T 601       5.496  -9.364   2.779  1.00 25.63     0.003 A 
HETATM   34  C31   D T 601       5.922  -8.386   1.869  1.00 25.41     0.025 A 
HETATM   35  C32   D T 601       6.388  -8.750   0.581  1.00 23.77     0.046 A 
HETATM   36 CL33   D T 601       6.882  -7.522  -0.472  1.00 25.94    -0.083 Cl
ENDBRANCH   8  29
TORSDOF 9
ENDMDL
