MODEL 1
REMARK VINA RESULT:    -7.381      0.000      0.000
REMARK INTER + INTRA:         -12.928
REMARK INTER:                 -11.264
REMARK INTRA:                  -1.664
REMARK UNBOUND:                -1.664
REMARK  9 active torsions:
REMARK  status: ('A' for Active; 'I' for Inactive)
REMARK    1  A    between atoms: C02_2  and  N03_3 
REMARK    2  A    between atoms: N03_3  and  C04_4 
REMARK    3  A    between atoms: N03_3  and  C06_6 
REMARK    4  A    between atoms: C06_6  and  C07_7 
REMARK    5  A    between atoms: C07_7  and  O08_8 
REMARK    6  A    between atoms: O08_8  and  C09_9 
REMARK    7  A    between atoms: C12_12  and  N13_13 
REMARK    8  A    between atoms: N13_13  and  C14_14 
REMARK    9  A    between atoms: C21_21  and  C26_26 
ROOT
HETATM    1  C14   D T 601      15.170  16.284  -5.743  1.00 17.92     0.728 A 
HETATM    2  N15   D T 601      15.467  14.988  -5.520  1.00 19.07    -0.044 NA
HETATM    3  C16   D T 601      15.270  14.358  -4.355  1.00 18.16     0.163 A 
HETATM    4  C17   D T 601      14.747  15.098  -3.293  1.00 16.80     0.030 A 
HETATM    5  C18   D T 601      14.477  16.451  -3.504  1.00 18.08     0.151 A 
HETATM    6  N19   D T 601      14.694  17.006  -4.714  1.00 16.91    -0.074 NA
HETATM    7  C20   D T 601      14.541  14.477  -2.044  1.00 17.65     0.034 A 
HETATM    8  C21   D T 601      14.842  13.116  -1.877  1.00 18.53     0.047 A 
HETATM    9  C22   D T 601      15.374  12.417  -2.986  1.00 19.48     0.260 A 
HETATM   10  O23   D T 601      15.654  11.220  -2.766  1.00 21.52    -0.267 OA
HETATM   11  N24   D T 601      15.574  13.026  -4.211  1.00 19.49    -0.301 N 
HETATM   12  C25   D T 601      16.092  12.322  -5.373  1.00 20.07     0.161 C 
ENDROOT
BRANCH   1  13
HETATM   13  N13   D T 601      15.389  16.824  -6.952  1.00 20.14    -0.188 N 
HETATM   14 1H13   D T 601      16.270  17.000  -7.140  1.00 24.16     0.184 HD
BRANCH  13  15
HETATM   15  C12   D T 601      14.510  17.158  -7.959  1.00 24.69     0.049 A 
HETATM   16  C11   D T 601      13.818  16.087  -8.583  1.00 26.89     0.033 A 
HETATM   17  C10   D T 601      12.884  16.339  -9.611  1.00 28.95     0.039 A 
HETATM   18  C09   D T 601      12.619  17.668 -10.010  1.00 30.95     0.069 A 
HETATM   19  C35   D T 601      13.284  18.732  -9.372  1.00 28.80     0.039 A 
HETATM   20  C34   D T 601      14.221  18.470  -8.368  1.00 26.81     0.033 A 
BRANCH  18  21
HETATM   21  O08   D T 601      11.698  17.942 -10.959  1.00 36.09    -0.350 OA
BRANCH  21  22
HETATM   22  C07   D T 601      10.529  18.673 -10.495  1.00 42.63     0.195 C 
BRANCH  22  23
HETATM   23  C06   D T 601       9.559  17.680  -9.782  1.00 46.85     0.143 C 
BRANCH  23  24
HETATM   24  N03   D T 601       9.136  18.122  -8.400  1.00 51.06    -0.411 N 
BRANCH  24  25
HETATM   25  C02   D T 601      10.143  18.630  -7.372  1.00 53.85     0.112 C 
HETATM   26  C01   D T 601      10.781  17.611  -6.373  1.00 52.69     0.026 C 
ENDBRANCH  24  25
BRANCH  24  27
HETATM   27  C04   D T 601       7.655  18.158  -8.131  1.00 47.80     0.112 C 
HETATM   28  C05   D T 601       7.150  18.909  -6.867  1.00 44.89     0.026 C 
ENDBRANCH  24  27
ENDBRANCH  23  24
ENDBRANCH  22  23
ENDBRANCH  21  22
ENDBRANCH  18  21
ENDBRANCH  13  15
ENDBRANCH   1  13
BRANCH   8  29
HETATM   29  C26   D T 601      14.623  12.459  -0.623  1.00 21.63     0.023 A 
HETATM   30  C27   D T 601      15.685  12.336   0.317  1.00 22.75     0.046 A 
HETATM   31 CL28   D T 601      17.226  12.915  -0.058  1.00 22.59    -0.083 Cl
HETATM   32  C29   D T 601      15.503  11.696   1.570  1.00 24.08     0.025 A 
HETATM   33  C30   D T 601      14.225  11.205   1.923  1.00 25.63     0.003 A 
HETATM   34  C31   D T 601      13.162  11.339   1.020  1.00 25.41     0.025 A 
HETATM   35  C32   D T 601      13.358  11.959  -0.240  1.00 23.77     0.046 A 
HETATM   36 CL33   D T 601      12.036  12.083  -1.288  1.00 25.94    -0.083 Cl
ENDBRANCH   8  29
TORSDOF 9
ENDMDL
MODEL 2
REMARK VINA RESULT:    -7.326      0.977      2.214
REMARK INTER + INTRA:         -12.845
REMARK INTER:                 -11.199
REMARK INTRA:                  -1.645
REMARK UNBOUND:                -1.664
REMARK  9 active torsions:
REMARK  status: ('A' for Active; 'I' for Inactive)
REMARK    1  A    between atoms: C02_2  and  N03_3 
REMARK    2  A    between atoms: N03_3  and  C04_4 
REMARK    3  A    between atoms: N03_3  and  C06_6 
REMARK    4  A    between atoms: C06_6  and  C07_7 
REMARK    5  A    between atoms: C07_7  and  O08_8 
REMARK    6  A    between atoms: O08_8  and  C09_9 
REMARK    7  A    between atoms: C12_12  and  N13_13 
REMARK    8  A    between atoms: N13_13  and  C14_14 
REMARK    9  A    between atoms: C21_21  and  C26_26 
ROOT
HETATM    1  C14   D T 601      14.610  16.321  -6.330  1.00 17.92     0.728 A 
HETATM    2  N15   D T 601      15.021  15.073  -6.025  1.00 19.07    -0.044 NA
HETATM    3  C16   D T 601      14.911  14.517  -4.811  1.00 18.16     0.163 A 
HETATM    4  C17   D T 601      14.360  15.289  -3.788  1.00 16.80     0.030 A 
HETATM    5  C18   D T 601      13.972  16.597  -4.086  1.00 18.08     0.151 A 
HETATM    6  N19   D T 601      14.106  17.076  -5.339  1.00 16.91    -0.074 NA
HETATM    7  C20   D T 601      14.243  14.749  -2.491  1.00 17.65     0.034 A 
HETATM    8  C21   D T 601      14.661  13.432  -2.237  1.00 18.53     0.047 A 
HETATM    9  C22   D T 601      15.217  12.698  -3.312  1.00 19.48     0.260 A 
HETATM   10  O23   D T 601      15.603  11.547  -3.017  1.00 21.52    -0.267 OA
HETATM   11  N24   D T 601      15.329  13.229  -4.583  1.00 19.49    -0.301 N 
HETATM   12  C25   D T 601      15.870  12.485  -5.710  1.00 20.07     0.161 C 
ENDROOT
BRANCH   1  13
HETATM   13  N13   D T 601      14.748  16.785  -7.582  1.00 20.14    -0.188 N 
HETATM   14 1H13   D T 601      15.611  16.974  -7.828  1.00 24.16     0.184 HD
BRANCH  13  15
HETATM   15  C12   D T 601      13.806  17.026  -8.558  1.00 24.69     0.049 A 
HETATM   16  C11   D T 601      13.418  18.378  -8.750  1.00 26.89     0.033 A 
HETATM   17  C10   D T 601      12.473  18.719  -9.743  1.00 28.95     0.039 A 
HETATM   18  C09   D T 601      11.922  17.711 -10.564  1.00 30.95     0.069 A 
HETATM   19  C35   D T 601      12.327  16.374 -10.393  1.00 28.80     0.039 A 
HETATM   20  C34   D T 601      13.250  16.045  -9.395  1.00 26.81     0.033 A 
BRANCH  18  21
HETATM   21  O08   D T 601      11.050  18.013 -11.550  1.00 36.09    -0.350 OA
BRANCH  21  22
HETATM   22  C07   D T 601      10.094  19.062 -11.233  1.00 42.63     0.195 C 
BRANCH  22  23
HETATM   23  C06   D T 601       8.664  18.441 -11.163  1.00 46.85     0.143 C 
BRANCH  23  24
HETATM   24  N03   D T 601       8.384  17.688  -9.882  1.00 51.06    -0.411 N 
BRANCH  24  25
HETATM   25  C02   D T 601       8.455  18.365  -8.517  1.00 53.85     0.112 C 
HETATM   26  C01   D T 601       9.652  18.027  -7.568  1.00 52.69     0.026 C 
ENDBRANCH  24  25
BRANCH  24  27
HETATM   27  C04   D T 601       7.906  16.268 -10.030  1.00 47.80     0.112 C 
HETATM   28  C05   D T 601       8.798  15.264 -10.813  1.00 44.89     0.026 C 
ENDBRANCH  24  27
ENDBRANCH  23  24
ENDBRANCH  22  23
ENDBRANCH  21  22
ENDBRANCH  18  21
ENDBRANCH  13  15
ENDBRANCH   1  13
BRANCH   8  29
HETATM   29  C26   D T 601      14.535  12.855  -0.933  1.00 21.63     0.023 A 
HETATM   30  C27   D T 601      13.297  12.293  -0.513  1.00 22.75     0.046 A 
HETATM   31 CL28   D T 601      11.949  12.348  -1.529  1.00 22.59    -0.083 Cl
HETATM   32  C29   D T 601      13.137  11.710   0.770  1.00 24.08     0.025 A 
HETATM   33  C30   D T 601      14.244  11.638   1.646  1.00 25.63     0.003 A 
HETATM   34  C31   D T 601      15.478  12.165   1.241  1.00 25.41     0.025 A 
HETATM   35  C32   D T 601      15.623  12.768  -0.034  1.00 23.77     0.046 A 
HETATM   36 CL33   D T 601      17.137  13.392  -0.460  1.00 25.94    -0.083 Cl
ENDBRANCH   8  29
TORSDOF 9
ENDMDL
MODEL 3
REMARK VINA RESULT:    -7.272      1.350      2.726
REMARK INTER + INTRA:         -12.762
REMARK INTER:                 -11.282
REMARK INTRA:                  -1.480
REMARK UNBOUND:                -1.664
REMARK  9 active torsions:
REMARK  status: ('A' for Active; 'I' for Inactive)
REMARK    1  A    between atoms: C02_2  and  N03_3 
REMARK    2  A    between atoms: N03_3  and  C04_4 
REMARK    3  A    between atoms: N03_3  and  C06_6 
REMARK    4  A    between atoms: C06_6  and  C07_7 
REMARK    5  A    between atoms: C07_7  and  O08_8 
REMARK    6  A    between atoms: O08_8  and  C09_9 
REMARK    7  A    between atoms: C12_12  and  N13_13 
REMARK    8  A    between atoms: N13_13  and  C14_14 
REMARK    9  A    between atoms: C21_21  and  C26_26 
ROOT
HETATM    1  C14   D T 601      15.604  14.329  -6.222  1.00 17.92     0.728 A 
HETATM    2  N15   D T 601      15.700  14.908  -5.008  1.00 19.07    -0.044 NA
HETATM    3  C16   D T 601      15.602  14.249  -3.846  1.00 18.16     0.163 A 
HETATM    4  C17   D T 601      15.356  12.876  -3.895  1.00 16.80     0.030 A 
HETATM    5  C18   D T 601      15.212  12.277  -5.147  1.00 18.08     0.151 A 
HETATM    6  N19   D T 601      15.338  13.013  -6.271  1.00 16.91    -0.074 NA
HETATM    7  C20   D T 601      15.227  12.147  -2.695  1.00 17.65     0.034 A 
HETATM    8  C21   D T 601      15.365  12.798  -1.458  1.00 18.53     0.047 A 
HETATM    9  C22   D T 601      15.609  14.192  -1.470  1.00 19.48     0.260 A 
HETATM   10  O23   D T 601      15.687  14.720  -0.340  1.00 21.52    -0.267 OA
HETATM   11  N24   D T 601      15.737  14.904  -2.647  1.00 19.49    -0.301 N 
HETATM   12  C25   D T 601      16.016  16.331  -2.685  1.00 20.07     0.161 C 
ENDROOT
BRANCH   1  13
HETATM   13  N13   D T 601      15.733  15.073  -7.332  1.00 20.14    -0.188 N 
HETATM   14 1H13   D T 601      16.573  15.066  -7.702  1.00 24.16     0.184 HD
BRANCH  13  15
HETATM   15  C12   D T 601      14.814  15.846  -8.007  1.00 24.69     0.049 A 
HETATM   16  C11   D T 601      13.979  15.175  -8.939  1.00 26.89     0.033 A 
HETATM   17  C10   D T 601      12.995  15.885  -9.662  1.00 28.95     0.039 A 
HETATM   18  C09   D T 601      12.827  17.270  -9.443  1.00 30.95     0.069 A 
HETATM   19  C35   D T 601      13.635  17.930  -8.499  1.00 28.80     0.039 A 
HETATM   20  C34   D T 601      14.619  17.221  -7.802  1.00 26.81     0.033 A 
BRANCH  18  21
HETATM   21  O08   D T 601      11.864  17.966 -10.086  1.00 36.09    -0.350 OA
BRANCH  21  22
HETATM   22  C07   D T 601      10.991  18.753  -9.230  1.00 42.63     0.195 C 
BRANCH  22  23
HETATM   23  C06   D T 601       9.807  17.856  -8.751  1.00 46.85     0.143 C 
BRANCH  23  24
HETATM   24  N03   D T 601       9.096  18.382  -7.525  1.00 51.06    -0.411 N 
BRANCH  24  25
HETATM   25  C02   D T 601       7.583  18.572  -7.490  1.00 53.85     0.112 C 
HETATM   26  C01   D T 601       6.948  19.352  -6.292  1.00 52.69     0.026 C 
ENDBRANCH  24  25
BRANCH  24  27
HETATM   27  C04   D T 601       9.941  18.586  -6.295  1.00 47.80     0.112 C 
HETATM   28  C05   D T 601      10.906  17.447  -5.861  1.00 44.89     0.026 C 
ENDBRANCH  24  27
ENDBRANCH  23  24
ENDBRANCH  22  23
ENDBRANCH  21  22
ENDBRANCH  18  21
ENDBRANCH  13  15
ENDBRANCH   1  13
BRANCH   8  29
HETATM   29  C26   D T 601      15.256  12.075  -0.227  1.00 21.63     0.023 A 
HETATM   30  C27   D T 601      13.989  11.911   0.400  1.00 22.75     0.046 A 
HETATM   31 CL28   D T 601      12.609  12.613  -0.273  1.00 22.59    -0.083 Cl
HETATM   32  C29   D T 601      13.845  11.198   1.618  1.00 24.08     0.025 A 
HETATM   33  C30   D T 601      14.975  10.589   2.208  1.00 25.63     0.003 A 
HETATM   34  C31   D T 601      16.227  10.720   1.593  1.00 25.41     0.025 A 
HETATM   35  C32   D T 601      16.368  11.455   0.389  1.00 23.77     0.046 A 
HETATM   36 CL33   D T 601      17.908  11.581  -0.301  1.00 25.94    -0.083 Cl
ENDBRANCH   8  29
TORSDOF 9
ENDMDL
MODEL 4
REMARK VINA RESULT:    -7.266      1.712      2.455
REMARK INTER + INTRA:         -12.753
REMARK INTER:                 -11.068
REMARK INTRA:                  -1.685
REMARK UNBOUND:                -1.664
REMARK  9 active torsions:
REMARK  status: ('A' for Active; 'I' for Inactive)
REMARK    1  A    between atoms: C02_2  and  N03_3 
REMARK    2  A    between atoms: N03_3  and  C04_4 
REMARK    3  A    between atoms: N03_3  and  C06_6 
REMARK    4  A    between atoms: C06_6  and  C07_7 
REMARK    5  A    between atoms: C07_7  and  O08_8 
REMARK    6  A    between atoms: O08_8  and  C09_9 
REMARK    7  A    between atoms: C12_12  and  N13_13 
REMARK    8  A    between atoms: N13_13  and  C14_14 
REMARK    9  A    between atoms: C21_21  and  C26_26 
ROOT
HETATM    1  C14   D T 601      15.711  14.210  -6.270  1.00 17.92     0.728 A 
HETATM    2  N15   D T 601      15.759  14.815  -5.066  1.00 19.07    -0.044 NA
HETATM    3  C16   D T 601      15.744  14.167  -3.893  1.00 18.16     0.163 A 
HETATM    4  C17   D T 601      15.646  12.775  -3.919  1.00 16.80     0.030 A 
HETATM    5  C18   D T 601      15.552  12.145  -5.161  1.00 18.08     0.151 A 
HETATM    6  N19   D T 601      15.586  12.872  -6.296  1.00 16.91    -0.074 NA
HETATM    7  C20   D T 601      15.608  12.056  -2.707  1.00 17.65     0.034 A 
HETATM    8  C21   D T 601      15.691  12.737  -1.482  1.00 18.53     0.047 A 
HETATM    9  C22   D T 601      15.785  14.149  -1.517  1.00 19.48     0.260 A 
HETATM   10  O23   D T 601      15.819  14.700  -0.396  1.00 21.52    -0.267 OA
HETATM   11  N24   D T 601      15.823  14.852  -2.706  1.00 19.49    -0.301 N 
HETATM   12  C25   D T 601      15.948  16.300  -2.768  1.00 20.07     0.161 C 
ENDROOT
BRANCH   1  13
HETATM   13  N13   D T 601      15.748  14.945  -7.392  1.00 20.14    -0.188 N 
HETATM   14 1H13   D T 601      16.499  14.825  -7.905  1.00 24.16     0.184 HD
BRANCH  13  15
HETATM   15  C12   D T 601      14.844  15.852  -7.901  1.00 24.69     0.049 A 
HETATM   16  C11   D T 601      13.841  15.338  -8.763  1.00 26.89     0.033 A 
HETATM   17  C10   D T 601      12.862  16.193  -9.315  1.00 28.95     0.039 A 
HETATM   18  C09   D T 601      12.868  17.568  -8.992  1.00 30.95     0.069 A 
HETATM   19  C35   D T 601      13.845  18.074  -8.115  1.00 28.80     0.039 A 
HETATM   20  C34   D T 601      14.821  17.221  -7.588  1.00 26.81     0.033 A 
BRANCH  18  21
HETATM   21  O08   D T 601      11.917  18.401  -9.469  1.00 36.09    -0.350 OA
BRANCH  21  22
HETATM   22  C07   D T 601      11.183  19.146  -8.459  1.00 42.63     0.195 C 
BRANCH  22  23
HETATM   23  C06   D T 601      10.448  18.139  -7.520  1.00 46.85     0.143 C 
BRANCH  23  24
HETATM   24  N03   D T 601      10.603  18.447  -6.048  1.00 51.06    -0.411 N 
BRANCH  24  25
HETATM   25  C02   D T 601      11.597  17.696  -5.167  1.00 53.85     0.112 C 
HETATM   26  C01   D T 601      11.872  16.185  -5.460  1.00 52.69     0.026 C 
ENDBRANCH  24  25
BRANCH  24  27
HETATM   27  C04   D T 601       9.820  19.621  -5.522  1.00 47.80     0.112 C 
HETATM   28  C05   D T 601      10.379  20.396  -4.296  1.00 44.89     0.026 C 
ENDBRANCH  24  27
ENDBRANCH  23  24
ENDBRANCH  22  23
ENDBRANCH  21  22
ENDBRANCH  18  21
ENDBRANCH  13  15
ENDBRANCH   1  13
BRANCH   8  29
HETATM   29  C26   D T 601      15.674  12.026  -0.238  1.00 21.63     0.023 A 
HETATM   30  C27   D T 601      16.891  11.584   0.352  1.00 22.75     0.046 A 
HETATM   31 CL28   D T 601      18.363  11.846  -0.433  1.00 22.59    -0.083 Cl
HETATM   32  C29   D T 601      16.912  10.881   1.584  1.00 24.08     0.025 A 
HETATM   33  C30   D T 601      15.702  10.649   2.275  1.00 25.63     0.003 A 
HETATM   34  C31   D T 601      14.495  11.097   1.720  1.00 25.41     0.025 A 
HETATM   35  C32   D T 601      14.480  11.778   0.477  1.00 23.77     0.046 A 
HETATM   36 CL33   D T 601      12.991  12.288  -0.142  1.00 25.94    -0.083 Cl
ENDBRANCH   8  29
TORSDOF 9
ENDMDL
MODEL 5
REMARK VINA RESULT:    -7.182      2.206      3.041
REMARK INTER + INTRA:         -12.625
REMARK INTER:                 -10.844
REMARK INTRA:                  -1.781
REMARK UNBOUND:                -1.664
REMARK  9 active torsions:
REMARK  status: ('A' for Active; 'I' for Inactive)
REMARK    1  A    between atoms: C02_2  and  N03_3 
REMARK    2  A    between atoms: N03_3  and  C04_4 
REMARK    3  A    between atoms: N03_3  and  C06_6 
REMARK    4  A    between atoms: C06_6  and  C07_7 
REMARK    5  A    between atoms: C07_7  and  O08_8 
REMARK    6  A    between atoms: O08_8  and  C09_9 
REMARK    7  A    between atoms: C12_12  and  N13_13 
REMARK    8  A    between atoms: N13_13  and  C14_14 
REMARK    9  A    between atoms: C21_21  and  C26_26 
ROOT
HETATM    1  C14   D T 601      14.305  15.968  -7.559  1.00 17.92     0.728 A 
HETATM    2  N15   D T 601      13.460  16.337  -6.576  1.00 19.07    -0.044 NA
HETATM    3  C16   D T 601      13.224  15.617  -5.472  1.00 18.16     0.163 A 
HETATM    4  C17   D T 601      13.875  14.389  -5.343  1.00 16.80     0.030 A 
HETATM    5  C18   D T 601      14.719  13.980  -6.377  1.00 18.08     0.151 A 
HETATM    6  N19   D T 601      14.911  14.773  -7.451  1.00 16.91    -0.074 NA
HETATM    7  C20   D T 601      13.640  13.591  -4.205  1.00 17.65     0.034 A 
HETATM    8  C21   D T 601      12.771  14.040  -3.198  1.00 18.53     0.047 A 
HETATM    9  C22   D T 601      12.135  15.290  -3.385  1.00 19.48     0.260 A 
HETATM   10  O23   D T 601      11.347  15.619  -2.472  1.00 21.52    -0.267 OA
HETATM   11  N24   D T 601      12.367  16.072  -4.500  1.00 19.49    -0.301 N 
HETATM   12  C25   D T 601      11.748  17.373  -4.701  1.00 20.07     0.161 C 
ENDROOT
BRANCH   1  13
HETATM   13  N13   D T 601      14.489  16.767  -8.622  1.00 20.14    -0.188 N 
HETATM   14 1H13   D T 601      15.353  17.051  -8.743  1.00 24.16     0.184 HD
BRANCH  13  15
HETATM   15  C12   D T 601      13.594  17.233  -9.560  1.00 24.69     0.049 A 
HETATM   16  C11   D T 601      12.749  16.269 -10.169  1.00 26.89     0.033 A 
HETATM   17  C10   D T 601      11.788  16.660 -11.128  1.00 28.95     0.039 A 
HETATM   18  C09   D T 601      11.654  18.023 -11.471  1.00 30.95     0.069 A 
HETATM   19  C35   D T 601      12.472  18.983 -10.847  1.00 28.80     0.039 A 
HETATM   20  C34   D T 601      13.433  18.583  -9.912  1.00 26.81     0.033 A 
BRANCH  18  21
HETATM   21  O08   D T 601      10.714  18.432 -12.351  1.00 36.09    -0.350 OA
BRANCH  21  22
HETATM   22  C07   D T 601       9.627  19.211 -11.779  1.00 42.63     0.195 C 
BRANCH  22  23
HETATM   23  C06   D T 601       8.434  18.258 -11.455  1.00 46.85     0.143 C 
BRANCH  23  24
HETATM   24  N03   D T 601       8.469  17.685 -10.057  1.00 51.06    -0.411 N 
BRANCH  24  25
HETATM   25  C02   D T 601       8.952  18.503  -8.862  1.00 53.85     0.112 C 
HETATM   26  C01   D T 601      10.174  17.984  -8.037  1.00 52.69     0.026 C 
ENDBRANCH  24  25
BRANCH  24  27
HETATM   27  C04   D T 601       7.882  16.310  -9.880  1.00 47.80     0.112 C 
HETATM   28  C05   D T 601       8.469  15.141 -10.719  1.00 44.89     0.026 C 
ENDBRANCH  24  27
ENDBRANCH  23  24
ENDBRANCH  22  23
ENDBRANCH  21  22
ENDBRANCH  18  21
ENDBRANCH  13  15
ENDBRANCH   1  13
BRANCH   8  29
HETATM   29  C26   D T 601      12.532  13.254  -2.024  1.00 21.63     0.023 A 
HETATM   30  C27   D T 601      13.506  13.197  -0.988  1.00 22.75     0.046 A 
HETATM   31 CL28   D T 601      14.976  14.010  -1.156  1.00 22.59    -0.083 Cl
HETATM   32  C29   D T 601      13.301  12.432   0.189  1.00 24.08     0.025 A 
HETATM   33  C30   D T 601      12.080  11.744   0.370  1.00 25.63     0.003 A 
HETATM   34  C31   D T 601      11.099  11.808  -0.629  1.00 25.41     0.025 A 
HETATM   35  C32   D T 601      11.321  12.555  -1.814  1.00 23.77     0.046 A 
HETATM   36 CL33   D T 601      10.100  12.587  -2.985  1.00 25.94    -0.083 Cl
ENDBRANCH   8  29
TORSDOF 9
ENDMDL
MODEL 6
REMARK VINA RESULT:    -7.034      1.815      2.471
REMARK INTER + INTRA:         -12.400
REMARK INTER:                 -11.825
REMARK INTRA:                  -0.574
REMARK UNBOUND:                -1.664
REMARK  9 active torsions:
REMARK  status: ('A' for Active; 'I' for Inactive)
REMARK    1  A    between atoms: C02_2  and  N03_3 
REMARK    2  A    between atoms: N03_3  and  C04_4 
REMARK    3  A    between atoms: N03_3  and  C06_6 
REMARK    4  A    between atoms: C06_6  and  C07_7 
REMARK    5  A    between atoms: C07_7  and  O08_8 
REMARK    6  A    between atoms: O08_8  and  C09_9 
REMARK    7  A    between atoms: C12_12  and  N13_13 
REMARK    8  A    between atoms: N13_13  and  C14_14 
REMARK    9  A    between atoms: C21_21  and  C26_26 
ROOT
HETATM    1  C14   D T 601      15.086  15.306  -5.464  1.00 17.92     0.728 A 
HETATM    2  N15   D T 601      13.996  15.529  -4.703  1.00 19.07    -0.044 NA
HETATM    3  C16   D T 601      13.584  14.721  -3.717  1.00 18.16     0.163 A 
HETATM    4  C17   D T 601      14.317  13.558  -3.478  1.00 16.80     0.030 A 
HETATM    5  C18   D T 601      15.423  13.298  -4.290  1.00 18.08     0.151 A 
HETATM    6  N19   D T 601      15.776  14.172  -5.256  1.00 16.91    -0.074 NA
HETATM    7  C20   D T 601      13.908  12.671  -2.462  1.00 17.65     0.034 A 
HETATM    8  C21   D T 601      12.780  12.969  -1.681  1.00 18.53     0.047 A 
HETATM    9  C22   D T 601      12.072  14.160  -1.971  1.00 19.48     0.260 A 
HETATM   10  O23   D T 601      11.059  14.353  -1.266  1.00 21.52    -0.267 OA
HETATM   11  N24   D T 601      12.476  15.030  -2.967  1.00 19.49    -0.301 N 
HETATM   12  C25   D T 601      11.783  16.273  -3.264  1.00 20.07     0.161 C 
ENDROOT
BRANCH   1  13
HETATM   13  N13   D T 601      15.429  16.184  -6.420  1.00 20.14    -0.188 N 
HETATM   14 1H13   D T 601      16.272  16.533  -6.335  1.00 24.16     0.184 HD
BRANCH  13  15
HETATM   15  C12   D T 601      14.721  16.648  -7.507  1.00 24.69     0.049 A 
HETATM   16  C11   D T 601      13.987  15.686  -8.249  1.00 26.89     0.033 A 
HETATM   17  C10   D T 601      13.218  16.076  -9.367  1.00 28.95     0.039 A 
HETATM   18  C09   D T 601      13.163  17.436  -9.741  1.00 30.95     0.069 A 
HETATM   19  C35   D T 601      13.868  18.394  -8.990  1.00 28.80     0.039 A 
HETATM   20  C34   D T 601      14.642  17.995  -7.895  1.00 26.81     0.033 A 
BRANCH  18  21
HETATM   21  O08   D T 601      12.400  17.845 -10.778  1.00 36.09    -0.350 OA
BRANCH  21  22
HETATM   22  C07   D T 601      10.998  17.465 -10.704  1.00 42.63     0.195 C 
BRANCH  22  23
HETATM   23  C06   D T 601      10.206  18.590  -9.969  1.00 46.85     0.143 C 
BRANCH  23  24
HETATM   24  N03   D T 601       9.593  18.153  -8.658  1.00 51.06    -0.411 N 
BRANCH  24  25
HETATM   25  C02   D T 601      10.423  18.022  -7.384  1.00 53.85     0.112 C 
HETATM   26  C01   D T 601      10.738  19.309  -6.553  1.00 52.69     0.026 C 
ENDBRANCH  24  25
BRANCH  24  27
HETATM   27  C04   D T 601       8.098  17.977  -8.642  1.00 47.80     0.112 C 
HETATM   28  C05   D T 601       7.301  18.289  -9.939  1.00 44.89     0.026 C 
ENDBRANCH  24  27
ENDBRANCH  23  24
ENDBRANCH  22  23
ENDBRANCH  21  22
ENDBRANCH  18  21
ENDBRANCH  13  15
ENDBRANCH   1  13
BRANCH   8  29
HETATM   29  C26   D T 601      12.356  12.093  -0.630  1.00 21.63     0.023 A 
HETATM   30  C27   D T 601      13.192  11.870   0.500  1.00 22.75     0.046 A 
HETATM   31 CL28   D T 601      14.715  12.594   0.588  1.00 22.59    -0.083 Cl
HETATM   32  C29   D T 601      12.802  11.012   1.560  1.00 24.08     0.025 A 
HETATM   33  C30   D T 601      11.532  10.394   1.526  1.00 25.63     0.003 A 
HETATM   34  C31   D T 601      10.685  10.620   0.433  1.00 25.41     0.025 A 
HETATM   35  C32   D T 601      11.092  11.460  -0.635  1.00 23.77     0.046 A 
HETATM   36 CL33   D T 601      10.026  11.687  -1.929  1.00 25.94    -0.083 Cl
ENDBRANCH   8  29
TORSDOF 9
ENDMDL
MODEL 7
REMARK VINA RESULT:    -6.942      4.206     11.640
REMARK INTER + INTRA:         -12.259
REMARK INTER:                 -11.452
REMARK INTRA:                  -0.806
REMARK UNBOUND:                -1.664
REMARK  9 active torsions:
REMARK  status: ('A' for Active; 'I' for Inactive)
REMARK    1  A    between atoms: C02_2  and  N03_3 
REMARK    2  A    between atoms: N03_3  and  C04_4 
REMARK    3  A    between atoms: N03_3  and  C06_6 
REMARK    4  A    between atoms: C06_6  and  C07_7 
REMARK    5  A    between atoms: C07_7  and  O08_8 
REMARK    6  A    between atoms: O08_8  and  C09_9 
REMARK    7  A    between atoms: C12_12  and  N13_13 
REMARK    8  A    between atoms: N13_13  and  C14_14 
REMARK    9  A    between atoms: C21_21  and  C26_26 
ROOT
HETATM    1  C14   D T 601      12.752  13.116  -1.159  1.00 17.92     0.728 A 
HETATM    2  N15   D T 601      13.614  13.985  -1.725  1.00 19.07    -0.044 NA
HETATM    3  C16   D T 601      13.371  14.662  -2.855  1.00 18.16     0.163 A 
HETATM    4  C17   D T 601      12.157  14.431  -3.505  1.00 16.80     0.030 A 
HETATM    5  C18   D T 601      11.279  13.501  -2.948  1.00 18.08     0.151 A 
HETATM    6  N19   D T 601      11.596  12.870  -1.798  1.00 16.91    -0.074 NA
HETATM    7  C20   D T 601      11.870  15.109  -4.707  1.00 17.65     0.034 A 
HETATM    8  C21   D T 601      12.793  16.026  -5.236  1.00 18.53     0.047 A 
HETATM    9  C22   D T 601      14.009  16.215  -4.537  1.00 19.48     0.260 A 
HETATM   10  O23   D T 601      14.803  17.016  -5.075  1.00 21.52    -0.267 OA
HETATM   11  N24   D T 601      14.288  15.551  -3.358  1.00 19.49    -0.301 N 
HETATM   12  C25   D T 601      15.517  15.751  -2.606  1.00 20.07     0.161 C 
ENDROOT
BRANCH   1  13
HETATM   13  N13   D T 601      13.079  12.497  -0.013  1.00 20.14    -0.188 N 
HETATM   14 1H13   D T 601      12.413  12.479   0.616  1.00 24.16     0.184 HD
BRANCH  13  15
HETATM   15  C12   D T 601      14.252  11.886   0.373  1.00 24.69     0.049 A 
HETATM   16  C11   D T 601      14.259  11.269   1.652  1.00 26.89     0.033 A 
HETATM   17  C10   D T 601      15.412  10.603   2.121  1.00 28.95     0.039 A 
HETATM   18  C09   D T 601      16.562  10.532   1.306  1.00 30.95     0.069 A 
HETATM   19  C35   D T 601      16.547  11.118   0.027  1.00 28.80     0.039 A 
HETATM   20  C34   D T 601      15.406  11.792  -0.421  1.00 26.81     0.033 A 
BRANCH  18  21
HETATM   21  O08   D T 601      17.664   9.863   1.710  1.00 36.09    -0.350 OA
BRANCH  21  22
HETATM   22  C07   D T 601      18.105  10.155   3.064  1.00 42.63     0.195 C 
BRANCH  22  23
HETATM   23  C06   D T 601      19.193   9.116   3.480  1.00 46.85     0.143 C 
BRANCH  23  24
HETATM   24  N03   D T 601      19.886   9.441   4.783  1.00 51.06    -0.411 N 
BRANCH  24  25
HETATM   25  C02   D T 601      19.250   9.127   6.135  1.00 53.85     0.112 C 
HETATM   26  C01   D T 601      18.414  10.237   6.851  1.00 52.69     0.026 C 
ENDBRANCH  24  25
BRANCH  24  27
HETATM   27  C04   D T 601      21.291   9.973   4.682  1.00 47.80     0.112 C 
HETATM   28  C05   D T 601      21.506  11.511   4.724  1.00 44.89     0.026 C 
ENDBRANCH  24  27
ENDBRANCH  23  24
ENDBRANCH  22  23
ENDBRANCH  21  22
ENDBRANCH  18  21
ENDBRANCH  13  15
ENDBRANCH   1  13
BRANCH   8  29
HETATM   29  C26   D T 601      12.514  16.740  -6.446  1.00 21.63     0.023 A 
HETATM   30  C27   D T 601      11.752  17.941  -6.412  1.00 22.75     0.046 A 
HETATM   31 CL28   D T 601      11.122  18.508  -4.951  1.00 22.59    -0.083 Cl
HETATM   32  C29   D T 601      11.461  18.676  -7.590  1.00 24.08     0.025 A 
HETATM   33  C30   D T 601      11.976  18.237  -8.830  1.00 25.63     0.003 A 
HETATM   34  C31   D T 601      12.749  17.069  -8.881  1.00 25.41     0.025 A 
HETATM   35  C32   D T 601      13.016  16.327  -7.702  1.00 23.77     0.046 A 
HETATM   36 CL33   D T 601      13.950  14.922  -7.831  1.00 25.94    -0.083 Cl
ENDBRANCH   8  29
TORSDOF 9
ENDMDL
MODEL 8
REMARK VINA RESULT:    -6.907      2.533      3.676
REMARK INTER + INTRA:         -12.206
REMARK INTER:                 -10.928
REMARK INTRA:                  -1.278
REMARK UNBOUND:                -1.664
REMARK  9 active torsions:
REMARK  status: ('A' for Active; 'I' for Inactive)
REMARK    1  A    between atoms: C02_2  and  N03_3 
REMARK    2  A    between atoms: N03_3  and  C04_4 
REMARK    3  A    between atoms: N03_3  and  C06_6 
REMARK    4  A    between atoms: C06_6  and  C07_7 
REMARK    5  A    between atoms: C07_7  and  O08_8 
REMARK    6  A    between atoms: O08_8  and  C09_9 
REMARK    7  A    between atoms: C12_12  and  N13_13 
REMARK    8  A    between atoms: N13_13  and  C14_14 
REMARK    9  A    between atoms: C21_21  and  C26_26 
ROOT
HETATM    1  C14   D T 601      13.509  16.399  -7.066  1.00 17.92     0.728 A 
HETATM    2  N15   D T 601      12.851  16.693  -5.926  1.00 19.07    -0.044 NA
HETATM    3  C16   D T 601      12.642  15.824  -4.928  1.00 18.16     0.163 A 
HETATM    4  C17   D T 601      13.114  14.520  -5.090  1.00 16.80     0.030 A 
HETATM    5  C18   D T 601      13.759  14.197  -6.284  1.00 18.08     0.151 A 
HETATM    6  N19   D T 601      13.939  15.137  -7.235  1.00 16.91    -0.074 NA
HETATM    7  C20   D T 601      12.900  13.570  -4.071  1.00 17.65     0.034 A 
HETATM    8  C21   D T 601      12.232  13.940  -2.893  1.00 18.53     0.047 A 
HETATM    9  C22   D T 601      11.771  15.274  -2.786  1.00 19.48     0.260 A 
HETATM   10  O23   D T 601      11.155  15.533  -1.731  1.00 21.52    -0.267 OA
HETATM   11  N24   D T 601      11.984  16.205  -3.785  1.00 19.49    -0.301 N 
HETATM   12  C25   D T 601      11.546  17.588  -3.687  1.00 20.07     0.161 C 
ENDROOT
BRANCH   1  13
HETATM   13  N13   D T 601      13.683  17.344  -8.003  1.00 20.14    -0.188 N 
HETATM   14 1H13   D T 601      14.426  17.869  -7.885  1.00 24.16     0.184 HD
BRANCH  13  15
HETATM   15  C12   D T 601      12.929  17.657  -9.113  1.00 24.69     0.049 A 
HETATM   16  C11   D T 601      12.693  16.609 -10.040  1.00 26.89     0.033 A 
HETATM   17  C10   D T 601      11.914  16.835 -11.196  1.00 28.95     0.039 A 
HETATM   18  C09   D T 601      11.348  18.109 -11.423  1.00 30.95     0.069 A 
HETATM   19  C35   D T 601      11.558  19.141 -10.490  1.00 28.80     0.039 A 
HETATM   20  C34   D T 601      12.347  18.911  -9.357  1.00 26.81     0.033 A 
BRANCH  18  21
HETATM   21  O08   D T 601      10.562  18.342 -12.496  1.00 36.09    -0.350 OA
BRANCH  21  22
HETATM   22  C07   D T 601       9.166  17.969 -12.334  1.00 42.63     0.195 C 
BRANCH  22  23
HETATM   23  C06   D T 601       8.329  19.253 -12.039  1.00 46.85     0.143 C 
BRANCH  23  24
HETATM   24  N03   D T 601       7.233  19.048 -11.017  1.00 51.06    -0.411 N 
BRANCH  24  25
HETATM   25  C02   D T 601       7.336  17.986  -9.926  1.00 53.85     0.112 C 
HETATM   26  C01   D T 601       8.406  18.161  -8.800  1.00 52.69     0.026 C 
ENDBRANCH  24  25
BRANCH  24  27
HETATM   27  C04   D T 601       6.093  20.032 -11.050  1.00 47.80     0.112 C 
HETATM   28  C05   D T 601       5.214  20.190  -9.778  1.00 44.89     0.026 C 
ENDBRANCH  24  27
ENDBRANCH  23  24
ENDBRANCH  22  23
ENDBRANCH  21  22
ENDBRANCH  18  21
ENDBRANCH  13  15
ENDBRANCH   1  13
BRANCH   8  29
HETATM   29  C26   D T 601      12.019  12.996  -1.836  1.00 21.63     0.023 A 
HETATM   30  C27   D T 601      10.782  12.299  -1.735  1.00 22.75     0.046 A 
HETATM   31 CL28   D T 601       9.534  12.618  -2.826  1.00 22.59    -0.083 Cl
HETATM   32  C29   D T 601      10.539  11.355  -0.704  1.00 24.08     0.025 A 
HETATM   33  C30   D T 601      11.562  11.056   0.223  1.00 25.63     0.003 A 
HETATM   34  C31   D T 601      12.795  11.714   0.125  1.00 25.41     0.025 A 
HETATM   35  C32   D T 601      13.022  12.675  -0.893  1.00 23.77     0.046 A 
HETATM   36 CL33   D T 601      14.530  13.439  -0.954  1.00 25.94    -0.083 Cl
ENDBRANCH   8  29
TORSDOF 9
ENDMDL
MODEL 9
REMARK VINA RESULT:    -6.793      4.203     11.541
REMARK INTER + INTRA:         -12.031
REMARK INTER:                 -11.296
REMARK INTRA:                  -0.735
REMARK UNBOUND:                -1.664
REMARK  9 active torsions:
REMARK  status: ('A' for Active; 'I' for Inactive)
REMARK    1  A    between atoms: C02_2  and  N03_3 
REMARK    2  A    between atoms: N03_3  and  C04_4 
REMARK    3  A    between atoms: N03_3  and  C06_6 
REMARK    4  A    between atoms: C06_6  and  C07_7 
REMARK    5  A    between atoms: C07_7  and  O08_8 
REMARK    6  A    between atoms: O08_8  and  C09_9 
REMARK    7  A    between atoms: C12_12  and  N13_13 
REMARK    8  A    between atoms: N13_13  and  C14_14 
REMARK    9  A    between atoms: C21_21  and  C26_26 
ROOT
HETATM    1  C14   D T 601      12.729  13.041  -1.054  1.00 17.92     0.728 A 
HETATM    2  N15   D T 601      13.592  13.894  -1.644  1.00 19.07    -0.044 NA
HETATM    3  C16   D T 601      13.293  14.660  -2.701  1.00 18.16     0.163 A 
HETATM    4  C17   D T 601      12.013  14.549  -3.246  1.00 16.80     0.030 A 
HETATM    5  C18   D T 601      11.128  13.637  -2.668  1.00 18.08     0.151 A 
HETATM    6  N19   D T 601      11.506  12.911  -1.595  1.00 16.91    -0.074 NA
HETATM    7  C20   D T 601      11.664  15.324  -4.371  1.00 17.65     0.034 A 
HETATM    8  C21   D T 601      12.594  16.217  -4.926  1.00 18.53     0.047 A 
HETATM    9  C22   D T 601      13.879  16.284  -4.335  1.00 19.48     0.260 A 
HETATM   10  O23   D T 601      14.673  17.069  -4.895  1.00 21.52    -0.267 OA
HETATM   11  N24   D T 601      14.219  15.525  -3.232  1.00 19.49    -0.301 N 
HETATM   12  C25   D T 601      15.522  15.597  -2.590  1.00 20.07     0.161 C 
ENDROOT
BRANCH   1  13
HETATM   13  N13   D T 601      13.117  12.327   0.014  1.00 20.14    -0.188 N 
HETATM   14 1H13   D T 601      12.461  12.187   0.640  1.00 24.16     0.184 HD
BRANCH  13  15
HETATM   15  C12   D T 601      14.337  11.769   0.326  1.00 24.69     0.049 A 
HETATM   16  C11   D T 601      14.465  11.195   1.618  1.00 26.89     0.033 A 
HETATM   17  C10   D T 601      15.675  10.584   2.015  1.00 28.95     0.039 A 
HETATM   18  C09   D T 601      16.760  10.525   1.114  1.00 30.95     0.069 A 
HETATM   19  C35   D T 601      16.625  11.068  -0.177  1.00 28.80     0.039 A 
HETATM   20  C34   D T 601      15.429  11.688  -0.554  1.00 26.81     0.033 A 
BRANCH  18  21
HETATM   21  O08   D T 601      17.914   9.908   1.450  1.00 36.09    -0.350 OA
BRANCH  21  22
HETATM   22  C07   D T 601      18.591  10.452   2.617  1.00 42.63     0.195 C 
BRANCH  22  23
HETATM   23  C06   D T 601      18.970   9.280   3.576  1.00 46.85     0.143 C 
BRANCH  23  24
HETATM   24  N03   D T 601      19.484   9.733   4.923  1.00 51.06    -0.411 N 
BRANCH  24  25
HETATM   25  C02   D T 601      20.965  10.007   5.171  1.00 53.85     0.112 C 
HETATM   26  C01   D T 601      21.508  11.460   4.971  1.00 52.69     0.026 C 
ENDBRANCH  24  25
BRANCH  24  27
HETATM   27  C04   D T 601      18.446  10.026   5.974  1.00 47.80     0.112 C 
HETATM   28  C05   D T 601      18.894  10.086   7.461  1.00 44.89     0.026 C 
ENDBRANCH  24  27
ENDBRANCH  23  24
ENDBRANCH  22  23
ENDBRANCH  21  22
ENDBRANCH  18  21
ENDBRANCH  13  15
ENDBRANCH   1  13
BRANCH   8  29
HETATM   29  C26   D T 601      12.256  17.028  -6.057  1.00 21.63     0.023 A 
HETATM   30  C27   D T 601      12.624  16.619  -7.370  1.00 22.75     0.046 A 
HETATM   31 CL28   D T 601      13.511  15.201  -7.602  1.00 22.59    -0.083 Cl
HETATM   32  C29   D T 601      12.302  17.396  -8.513  1.00 24.08     0.025 A 
HETATM   33  C30   D T 601      11.554  18.585  -8.359  1.00 25.63     0.003 A 
HETATM   34  C31   D T 601      11.162  18.991  -7.077  1.00 25.41     0.025 A 
HETATM   35  C32   D T 601      11.509  18.222  -5.937  1.00 23.77     0.046 A 
HETATM   36 CL33   D T 601      11.010  18.770  -4.416  1.00 25.94    -0.083 Cl
ENDBRANCH   8  29
TORSDOF 9
ENDMDL
