MODEL 1
REMARK VINA RESULT:    -7.911      0.000      0.000
REMARK INTER + INTRA:         -12.740
REMARK INTER:                 -12.073
REMARK INTRA:                  -0.667
REMARK UNBOUND:                -0.667
REMARK  9 active torsions:
REMARK  status: ('A' for Active; 'I' for Inactive)
REMARK    1  A    between atoms: C02_2  and  N03_3 
REMARK    2  A    between atoms: N03_3  and  C04_4 
REMARK    3  A    between atoms: N03_3  and  C06_6 
REMARK    4  A    between atoms: C06_6  and  C07_7 
REMARK    5  A    between atoms: C07_7  and  O08_8 
REMARK    6  A    between atoms: O08_8  and  C09_9 
REMARK    7  A    between atoms: C12_12  and  N13_13 
REMARK    8  A    between atoms: N13_13  and  C14_14 
REMARK    9  A    between atoms: C21_21  and  C26_26 
ROOT
HETATM    1  C14   D T 601       0.889  13.296   0.052  1.00 17.92     0.728 A 
HETATM    2  N15   D T 601       1.744  14.249  -0.372  1.00 19.07    -0.044 NA
HETATM    3  C16   D T 601       1.585  14.966  -1.492  1.00 18.16     0.163 A 
HETATM    4  C17   D T 601       0.472  14.690  -2.289  1.00 16.80     0.030 A 
HETATM    5  C18   D T 601      -0.395  13.675  -1.881  1.00 18.08     0.151 A 
HETATM    6  N19   D T 601      -0.166  13.009  -0.730  1.00 16.91    -0.074 NA
HETATM    7  C20   D T 601       0.278  15.407  -3.486  1.00 17.65     0.034 A 
HETATM    8  C21   D T 601       1.186  16.410  -3.862  1.00 18.53     0.047 A 
HETATM    9  C22   D T 601       2.298  16.643  -3.017  1.00 19.48     0.260 A 
HETATM   10  O23   D T 601       3.088  17.521  -3.422  1.00 21.52    -0.267 OA
HETATM   11  N24   D T 601       2.487  15.940  -1.843  1.00 19.49    -0.301 N 
HETATM   12  C25   D T 601       3.605  16.181  -0.945  1.00 20.07     0.161 C 
ENDROOT
BRANCH   1  13
HETATM   13  N13   D T 601       1.126  12.642   1.199  1.00 20.14    -0.188 N 
HETATM   14 1H13   D T 601       0.417  12.155   1.515  1.00 24.16     0.184 HD
BRANCH  13  15
HETATM   15  C12   D T 601       2.260  12.583   1.980  1.00 24.69     0.049 A 
HETATM   16  C11   D T 601       2.270  11.611   3.015  1.00 26.89     0.033 A 
HETATM   17  C10   D T 601       3.399  11.466   3.851  1.00 28.95     0.039 A 
HETATM   18  C09   D T 601       4.533  12.282   3.647  1.00 30.95     0.069 A 
HETATM   19  C35   D T 601       4.534  13.225   2.603  1.00 28.80     0.039 A 
HETATM   20  C34   D T 601       3.404  13.373   1.792  1.00 26.81     0.033 A 
BRANCH  18  21
HETATM   21  O08   D T 601       5.644  12.136   4.403  1.00 36.09    -0.350 OA
BRANCH  21  22
HETATM   22  C07   D T 601       6.817  12.847   3.923  1.00 42.63     0.195 C 
BRANCH  22  23
HETATM   23  C06   D T 601       7.761  11.836   3.198  1.00 46.85     0.143 C 
BRANCH  23  24
HETATM   24  N03   D T 601       8.268  12.322   1.859  1.00 51.06    -0.411 N 
BRANCH  24  25
HETATM   25  C02   D T 601       7.501  12.065   0.565  1.00 53.85     0.112 C 
HETATM   26  C01   D T 601       7.010  13.288  -0.277  1.00 52.69     0.026 C 
ENDBRANCH  24  25
BRANCH  24  27
HETATM   27  C04   D T 601       9.501  13.185   1.881  1.00 47.80     0.112 C 
HETATM   28  C05   D T 601      10.654  12.806   2.851  1.00 44.89     0.026 C 
ENDBRANCH  24  27
ENDBRANCH  23  24
ENDBRANCH  22  23
ENDBRANCH  21  22
ENDBRANCH  18  21
ENDBRANCH  13  15
ENDBRANCH   1  13
BRANCH   8  29
HETATM   29  C26   D T 601       0.997  17.165  -5.064  1.00 21.63     0.023 A 
HETATM   30  C27   D T 601       1.763  16.870  -6.226  1.00 22.75     0.046 A 
HETATM   31 CL28   D T 601       2.940  15.660  -6.184  1.00 22.59    -0.083 Cl
HETATM   32  C29   D T 601       1.598  17.595  -7.434  1.00 24.08     0.025 A 
HETATM   33  C30   D T 601       0.617  18.610  -7.511  1.00 25.63     0.003 A 
HETATM   34  C31   D T 601      -0.164  18.898  -6.383  1.00 25.41     0.025 A 
HETATM   35  C32   D T 601       0.023  18.185  -5.173  1.00 23.77     0.046 A 
HETATM   36 CL33   D T 601      -0.947  18.587  -3.846  1.00 25.94    -0.083 Cl
ENDBRANCH   8  29
TORSDOF 9
ENDMDL
MODEL 2
REMARK VINA RESULT:    -7.776      0.331      1.950
REMARK INTER + INTRA:         -12.534
REMARK INTER:                 -11.813
REMARK INTRA:                  -0.721
REMARK UNBOUND:                -0.667
REMARK  9 active torsions:
REMARK  status: ('A' for Active; 'I' for Inactive)
REMARK    1  A    between atoms: C02_2  and  N03_3 
REMARK    2  A    between atoms: N03_3  and  C04_4 
REMARK    3  A    between atoms: N03_3  and  C06_6 
REMARK    4  A    between atoms: C06_6  and  C07_7 
REMARK    5  A    between atoms: C07_7  and  O08_8 
REMARK    6  A    between atoms: O08_8  and  C09_9 
REMARK    7  A    between atoms: C12_12  and  N13_13 
REMARK    8  A    between atoms: N13_13  and  C14_14 
REMARK    9  A    between atoms: C21_21  and  C26_26 
ROOT
HETATM    1  C14   D T 601       0.775  13.405  -0.116  1.00 17.92     0.728 A 
HETATM    2  N15   D T 601       1.623  14.370  -0.525  1.00 19.07    -0.044 NA
HETATM    3  C16   D T 601       1.485  15.068  -1.660  1.00 18.16     0.163 A 
HETATM    4  C17   D T 601       0.406  14.755  -2.490  1.00 16.80     0.030 A 
HETATM    5  C18   D T 601      -0.452  13.726  -2.095  1.00 18.08     0.151 A 
HETATM    6  N19   D T 601      -0.247  13.083  -0.928  1.00 16.91    -0.074 NA
HETATM    7  C20   D T 601       0.236  15.451  -3.704  1.00 17.65     0.034 A 
HETATM    8  C21   D T 601       1.134  16.468  -4.065  1.00 18.53     0.047 A 
HETATM    9  C22   D T 601       2.211  16.738  -3.187  1.00 19.48     0.260 A 
HETATM   10  O23   D T 601       2.995  17.628  -3.578  1.00 21.52    -0.267 OA
HETATM   11  N24   D T 601       2.377  16.056  -1.996  1.00 19.49    -0.301 N 
HETATM   12  C25   D T 601       3.458  16.335  -1.065  1.00 20.07     0.161 C 
ENDROOT
BRANCH   1  13
HETATM   13  N13   D T 601       0.987  12.773   1.048  1.00 20.14    -0.188 N 
HETATM   14 1H13   D T 601       0.259  12.325   1.379  1.00 24.16     0.184 HD
BRANCH  13  15
HETATM   15  C12   D T 601       2.120  12.687   1.828  1.00 24.69     0.049 A 
HETATM   16  C11   D T 601       2.149  11.648   2.796  1.00 26.89     0.033 A 
HETATM   17  C10   D T 601       3.279  11.473   3.625  1.00 28.95     0.039 A 
HETATM   18  C09   D T 601       4.395  12.325   3.480  1.00 30.95     0.069 A 
HETATM   19  C35   D T 601       4.378  13.336   2.502  1.00 28.80     0.039 A 
HETATM   20  C34   D T 601       3.247  13.512   1.698  1.00 26.81     0.033 A 
BRANCH  18  21
HETATM   21  O08   D T 601       5.507  12.153   4.229  1.00 36.09    -0.350 OA
BRANCH  21  22
HETATM   22  C07   D T 601       6.681  12.878   3.769  1.00 42.63     0.195 C 
BRANCH  22  23
HETATM   23  C06   D T 601       7.765  11.850   3.316  1.00 46.85     0.143 C 
BRANCH  23  24
HETATM   24  N03   D T 601       8.469  12.227   2.032  1.00 51.06    -0.411 N 
BRANCH  24  25
HETATM   25  C02   D T 601       9.939  12.634   2.007  1.00 53.85     0.112 C 
HETATM   26  C01   D T 601      10.313  14.085   1.557  1.00 52.69     0.026 C 
ENDBRANCH  24  25
BRANCH  24  27
HETATM   27  C04   D T 601       7.681  12.055   0.760  1.00 47.80     0.112 C 
HETATM   28  C05   D T 601       7.126  13.324   0.055  1.00 44.89     0.026 C 
ENDBRANCH  24  27
ENDBRANCH  23  24
ENDBRANCH  22  23
ENDBRANCH  21  22
ENDBRANCH  18  21
ENDBRANCH  13  15
ENDBRANCH   1  13
BRANCH   8  29
HETATM   29  C26   D T 601       0.968  17.201  -5.283  1.00 21.63     0.023 A 
HETATM   30  C27   D T 601       0.010  18.250  -5.365  1.00 22.75     0.046 A 
HETATM   31 CL28   D T 601      -0.979  18.605  -4.043  1.00 22.59    -0.083 Cl
HETATM   32  C29   D T 601      -0.177  19.000  -6.555  1.00 24.08     0.025 A 
HETATM   33  C30   D T 601       0.637  18.738  -7.681  1.00 25.63     0.003 A 
HETATM   34  C31   D T 601       1.603  17.725  -7.610  1.00 25.41     0.025 A 
HETATM   35  C32   D T 601       1.768  16.964  -6.425  1.00 23.77     0.046 A 
HETATM   36 CL33   D T 601       2.946  15.750  -6.408  1.00 25.94    -0.083 Cl
ENDBRANCH   8  29
TORSDOF 9
ENDMDL
MODEL 3
REMARK VINA RESULT:    -7.704      1.404      2.648
REMARK INTER + INTRA:         -12.424
REMARK INTER:                 -11.948
REMARK INTRA:                  -0.477
REMARK UNBOUND:                -0.667
REMARK  9 active torsions:
REMARK  status: ('A' for Active; 'I' for Inactive)
REMARK    1  A    between atoms: C02_2  and  N03_3 
REMARK    2  A    between atoms: N03_3  and  C04_4 
REMARK    3  A    between atoms: N03_3  and  C06_6 
REMARK    4  A    between atoms: C06_6  and  C07_7 
REMARK    5  A    between atoms: C07_7  and  O08_8 
REMARK    6  A    between atoms: O08_8  and  C09_9 
REMARK    7  A    between atoms: C12_12  and  N13_13 
REMARK    8  A    between atoms: N13_13  and  C14_14 
REMARK    9  A    between atoms: C21_21  and  C26_26 
ROOT
HETATM    1  C14   D T 601       1.307  13.488   0.176  1.00 17.92     0.728 A 
HETATM    2  N15   D T 601       2.119  14.435  -0.335  1.00 19.07    -0.044 NA
HETATM    3  C16   D T 601       1.879  15.108  -1.469  1.00 18.16     0.163 A 
HETATM    4  C17   D T 601       0.723  14.788  -2.184  1.00 16.80     0.030 A 
HETATM    5  C18   D T 601      -0.101  13.777  -1.684  1.00 18.08     0.151 A 
HETATM    6  N19   D T 601       0.209  13.158  -0.527  1.00 16.91    -0.074 NA
HETATM    7  C20   D T 601       0.443  15.457  -3.392  1.00 17.65     0.034 A 
HETATM    8  C21   D T 601       1.310  16.456  -3.861  1.00 18.53     0.047 A 
HETATM    9  C22   D T 601       2.469  16.736  -3.097  1.00 19.48     0.260 A 
HETATM   10  O23   D T 601       3.219  17.609  -3.582  1.00 21.52    -0.267 OA
HETATM   11  N24   D T 601       2.742  16.079  -1.912  1.00 19.49    -0.301 N 
HETATM   12  C25   D T 601       3.910  16.369  -1.095  1.00 20.07     0.161 C 
ENDROOT
BRANCH   1  13
HETATM   13  N13   D T 601       1.625  12.881   1.329  1.00 20.14    -0.188 N 
HETATM   14 1H13   D T 601       0.931  12.437   1.732  1.00 24.16     0.184 HD
BRANCH  13  15
HETATM   15  C12   D T 601       2.823  12.815   2.007  1.00 24.69     0.049 A 
HETATM   16  C11   D T 601       2.873  11.945   3.128  1.00 26.89     0.033 A 
HETATM   17  C10   D T 601       4.066  11.800   3.870  1.00 28.95     0.039 A 
HETATM   18  C09   D T 601       5.223  12.511   3.484  1.00 30.95     0.069 A 
HETATM   19  C35   D T 601       5.182  13.350   2.356  1.00 28.80     0.039 A 
HETATM   20  C34   D T 601       3.991  13.501   1.639  1.00 26.81     0.033 A 
BRANCH  18  21
HETATM   21  O08   D T 601       6.391  12.357   4.148  1.00 36.09    -0.350 OA
BRANCH  21  22
HETATM   22  C07   D T 601       7.483  11.808   3.361  1.00 42.63     0.195 C 
BRANCH  22  23
HETATM   23  C06   D T 601       8.358  10.894   4.276  1.00 46.85     0.143 C 
BRANCH  23  24
HETATM   24  N03   D T 601       8.872  11.583   5.519  1.00 51.06    -0.411 N 
BRANCH  24  25
HETATM   25  C02   D T 601       9.720  12.849   5.448  1.00 53.85     0.112 C 
HETATM   26  C01   D T 601       9.123  14.190   5.988  1.00 52.69     0.026 C 
ENDBRANCH  24  25
BRANCH  24  27
HETATM   27  C04   D T 601       8.396  11.032   6.837  1.00 47.80     0.112 C 
HETATM   28  C05   D T 601       6.973  11.415   7.331  1.00 44.89     0.026 C 
ENDBRANCH  24  27
ENDBRANCH  23  24
ENDBRANCH  22  23
ENDBRANCH  21  22
ENDBRANCH  18  21
ENDBRANCH  13  15
ENDBRANCH   1  13
BRANCH   8  29
HETATM   29  C26   D T 601       1.034  17.163  -5.075  1.00 21.63     0.023 A 
HETATM   30  C27   D T 601       0.043  18.184  -5.102  1.00 22.75     0.046 A 
HETATM   31 CL28   D T 601      -0.855  18.535  -3.716  1.00 22.59    -0.083 Cl
HETATM   32  C29   D T 601      -0.252  18.908  -6.286  1.00 24.08     0.025 A 
HETATM   33  C30   D T 601       0.483  18.648  -7.465  1.00 25.63     0.003 A 
HETATM   34  C31   D T 601       1.480  17.663  -7.450  1.00 25.41     0.025 A 
HETATM   35  C32   D T 601       1.753  16.928  -6.270  1.00 23.77     0.046 A 
HETATM   36 CL33   D T 601       2.964  15.747  -6.321  1.00 25.94    -0.083 Cl
ENDBRANCH   8  29
TORSDOF 9
ENDMDL
MODEL 4
REMARK VINA RESULT:    -7.545      2.753      4.193
REMARK INTER + INTRA:         -12.182
REMARK INTER:                 -11.179
REMARK INTRA:                  -1.002
REMARK UNBOUND:                -0.667
REMARK  9 active torsions:
REMARK  status: ('A' for Active; 'I' for Inactive)
REMARK    1  A    between atoms: C02_2  and  N03_3 
REMARK    2  A    between atoms: N03_3  and  C04_4 
REMARK    3  A    between atoms: N03_3  and  C06_6 
REMARK    4  A    between atoms: C06_6  and  C07_7 
REMARK    5  A    between atoms: C07_7  and  O08_8 
REMARK    6  A    between atoms: O08_8  and  C09_9 
REMARK    7  A    between atoms: C12_12  and  N13_13 
REMARK    8  A    between atoms: N13_13  and  C14_14 
REMARK    9  A    between atoms: C21_21  and  C26_26 
ROOT
HETATM    1  C14   D T 601       4.560  14.614  -1.137  1.00 17.92     0.728 A 
HETATM    2  N15   D T 601       3.233  14.431  -1.290  1.00 19.07    -0.044 NA
HETATM    3  C16   D T 601       2.402  15.330  -1.835  1.00 18.16     0.163 A 
HETATM    4  C17   D T 601       2.942  16.549  -2.249  1.00 16.80     0.030 A 
HETATM    5  C18   D T 601       4.309  16.764  -2.055  1.00 18.08     0.151 A 
HETATM    6  N19   D T 601       5.076  15.799  -1.509  1.00 16.91    -0.074 NA
HETATM    7  C20   D T 601       2.101  17.531  -2.809  1.00 17.65     0.034 A 
HETATM    8  C21   D T 601       0.730  17.273  -2.970  1.00 18.53     0.047 A 
HETATM    9  C22   D T 601       0.237  16.021  -2.528  1.00 19.48     0.260 A 
HETATM   10  O23   D T 601      -0.995  15.865  -2.666  1.00 21.52    -0.267 OA
HETATM   11  N24   D T 601       1.064  15.060  -1.980  1.00 19.49    -0.301 N 
HETATM   12  C25   D T 601       0.586  13.757  -1.545  1.00 20.07     0.161 C 
ENDROOT
BRANCH   1  13
HETATM   13  N13   D T 601       5.314  13.646  -0.594  1.00 20.14    -0.188 N 
HETATM   14 1H13   D T 601       5.805  13.160  -1.197  1.00 24.16     0.184 HD
BRANCH  13  15
HETATM   15  C12   D T 601       5.470  13.262   0.720  1.00 24.69     0.049 A 
HETATM   16  C11   D T 601       6.777  12.879   1.120  1.00 26.89     0.033 A 
HETATM   17  C10   D T 601       7.034  12.490   2.453  1.00 28.95     0.039 A 
HETATM   18  C09   D T 601       5.987  12.498   3.400  1.00 30.95     0.069 A 
HETATM   19  C35   D T 601       4.698  12.904   3.011  1.00 28.80     0.039 A 
HETATM   20  C34   D T 601       4.451  13.270   1.684  1.00 26.81     0.033 A 
BRANCH  18  21
HETATM   21  O08   D T 601       6.212  12.173   4.692  1.00 36.09    -0.350 OA
BRANCH  21  22
HETATM   22  C07   D T 601       7.519  11.599   4.968  1.00 42.63     0.195 C 
BRANCH  22  23
HETATM   23  C06   D T 601       8.135  12.314   6.212  1.00 46.85     0.143 C 
BRANCH  23  24
HETATM   24  N03   D T 601       8.452  11.383   7.360  1.00 51.06    -0.411 N 
BRANCH  24  25
HETATM   25  C02   D T 601       9.858  10.837   7.592  1.00 53.85     0.112 C 
HETATM   26  C01   D T 601      10.050   9.640   8.580  1.00 52.69     0.026 C 
ENDBRANCH  24  25
BRANCH  24  27
HETATM   27  C04   D T 601       7.339  11.124   8.340  1.00 47.80     0.112 C 
HETATM   28  C05   D T 601       6.497  12.330   8.840  1.00 44.89     0.026 C 
ENDBRANCH  24  27
ENDBRANCH  23  24
ENDBRANCH  22  23
ENDBRANCH  21  22
ENDBRANCH  18  21
ENDBRANCH  13  15
ENDBRANCH   1  13
BRANCH   8  29
HETATM   29  C26   D T 601      -0.141  18.248  -3.556  1.00 21.63     0.023 A 
HETATM   30  C27   D T 601      -0.291  18.319  -4.969  1.00 22.75     0.046 A 
HETATM   31 CL28   D T 601       0.595  17.290  -5.973  1.00 22.59    -0.083 Cl
HETATM   32  C29   D T 601      -1.149  19.269  -5.583  1.00 24.08     0.025 A 
HETATM   33  C30   D T 601      -1.914  20.142  -4.776  1.00 25.63     0.003 A 
HETATM   34  C31   D T 601      -1.796  20.069  -3.381  1.00 25.41     0.025 A 
HETATM   35  C32   D T 601      -0.920  19.134  -2.777  1.00 23.77     0.046 A 
HETATM   36 CL33   D T 601      -0.819  19.103  -1.088  1.00 25.94    -0.083 Cl
ENDBRANCH   8  29
TORSDOF 9
ENDMDL
MODEL 5
REMARK VINA RESULT:    -7.490      1.392      2.277
REMARK INTER + INTRA:         -12.098
REMARK INTER:                 -11.873
REMARK INTRA:                  -0.225
REMARK UNBOUND:                -0.667
REMARK  9 active torsions:
REMARK  status: ('A' for Active; 'I' for Inactive)
REMARK    1  A    between atoms: C02_2  and  N03_3 
REMARK    2  A    between atoms: N03_3  and  C04_4 
REMARK    3  A    between atoms: N03_3  and  C06_6 
REMARK    4  A    between atoms: C06_6  and  C07_7 
REMARK    5  A    between atoms: C07_7  and  O08_8 
REMARK    6  A    between atoms: O08_8  and  C09_9 
REMARK    7  A    between atoms: C12_12  and  N13_13 
REMARK    8  A    between atoms: N13_13  and  C14_14 
REMARK    9  A    between atoms: C21_21  and  C26_26 
ROOT
HETATM    1  C14   D T 601       0.859  13.254   0.142  1.00 17.92     0.728 A 
HETATM    2  N15   D T 601       1.712  14.211  -0.277  1.00 19.07    -0.044 NA
HETATM    3  C16   D T 601       1.550  14.935  -1.392  1.00 18.16     0.163 A 
HETATM    4  C17   D T 601       0.437  14.662  -2.190  1.00 16.80     0.030 A 
HETATM    5  C18   D T 601      -0.428  13.642  -1.786  1.00 18.08     0.151 A 
HETATM    6  N19   D T 601      -0.197  12.970  -0.640  1.00 16.91    -0.074 NA
HETATM    7  C20   D T 601       0.239  15.386  -3.383  1.00 17.65     0.034 A 
HETATM    8  C21   D T 601       1.145  16.392  -3.754  1.00 18.53     0.047 A 
HETATM    9  C22   D T 601       2.258  16.622  -2.909  1.00 19.48     0.260 A 
HETATM   10  O23   D T 601       3.047  17.503  -3.310  1.00 21.52    -0.267 OA
HETATM   11  N24   D T 601       2.451  15.911  -1.740  1.00 19.49    -0.301 N 
HETATM   12  C25   D T 601       3.569  16.149  -0.842  1.00 20.07     0.161 C 
ENDROOT
BRANCH   1  13
HETATM   13  N13   D T 601       1.099  12.594   1.285  1.00 20.14    -0.188 N 
HETATM   14 1H13   D T 601       0.370  12.166   1.639  1.00 24.16     0.184 HD
BRANCH  13  15
HETATM   15  C12   D T 601       2.260  12.454   2.013  1.00 24.69     0.049 A 
HETATM   16  C11   D T 601       3.322  13.341   1.694  1.00 26.89     0.033 A 
HETATM   17  C10   D T 601       4.543  13.283   2.403  1.00 28.95     0.039 A 
HETATM   18  C09   D T 601       4.703  12.347   3.447  1.00 30.95     0.069 A 
HETATM   19  C35   D T 601       3.641  11.488   3.783  1.00 28.80     0.039 A 
HETATM   20  C34   D T 601       2.443  11.542   3.063  1.00 26.81     0.033 A 
BRANCH  18  21
HETATM   21  O08   D T 601       5.843  12.299   4.172  1.00 36.09    -0.350 OA
BRANCH  21  22
HETATM   22  C07   D T 601       7.063  12.140   3.397  1.00 42.63     0.195 C 
BRANCH  22  23
HETATM   23  C06   D T 601       8.107  11.354   4.251  1.00 46.85     0.143 C 
BRANCH  23  24
HETATM   24  N03   D T 601       8.306  11.911   5.642  1.00 51.06    -0.411 N 
BRANCH  24  25
HETATM   25  C02   D T 601       8.075  11.065   6.891  1.00 53.85     0.112 C 
HETATM   26  C01   D T 601       8.655  11.560   8.256  1.00 52.69     0.026 C 
ENDBRANCH  24  25
BRANCH  24  27
HETATM   27  C04   D T 601       8.871  13.304   5.732  1.00 47.80     0.112 C 
HETATM   28  C05   D T 601      10.209  13.610   5.005  1.00 44.89     0.026 C 
ENDBRANCH  24  27
ENDBRANCH  23  24
ENDBRANCH  22  23
ENDBRANCH  21  22
ENDBRANCH  18  21
ENDBRANCH  13  15
ENDBRANCH   1  13
BRANCH   8  29
HETATM   29  C26   D T 601       0.953  17.154  -4.951  1.00 21.63     0.023 A 
HETATM   30  C27   D T 601       1.704  16.854  -6.121  1.00 22.75     0.046 A 
HETATM   31 CL28   D T 601       2.867  15.630  -6.096  1.00 22.59    -0.083 Cl
HETATM   32  C29   D T 601       1.535  17.586  -7.326  1.00 24.08     0.025 A 
HETATM   33  C30   D T 601       0.566  18.612  -7.389  1.00 25.63     0.003 A 
HETATM   34  C31   D T 601      -0.200  18.905  -6.252  1.00 25.41     0.025 A 
HETATM   35  C32   D T 601      -0.010  18.186  -5.046  1.00 23.77     0.046 A 
HETATM   36 CL33   D T 601      -0.961  18.594  -3.707  1.00 25.94    -0.083 Cl
ENDBRANCH   8  29
TORSDOF 9
ENDMDL
MODEL 6
REMARK VINA RESULT:    -7.373      4.870     11.436
REMARK INTER + INTRA:         -11.919
REMARK INTER:                 -10.721
REMARK INTRA:                  -1.197
REMARK UNBOUND:                -0.667
REMARK  9 active torsions:
REMARK  status: ('A' for Active; 'I' for Inactive)
REMARK    1  A    between atoms: C02_2  and  N03_3 
REMARK    2  A    between atoms: N03_3  and  C04_4 
REMARK    3  A    between atoms: N03_3  and  C06_6 
REMARK    4  A    between atoms: C06_6  and  C07_7 
REMARK    5  A    between atoms: C07_7  and  O08_8 
REMARK    6  A    between atoms: O08_8  and  C09_9 
REMARK    7  A    between atoms: C12_12  and  N13_13 
REMARK    8  A    between atoms: N13_13  and  C14_14 
REMARK    9  A    between atoms: C21_21  and  C26_26 
ROOT
HETATM    1  C14   D T 601       6.507  13.827   1.873  1.00 17.92     0.728 A 
HETATM    2  N15   D T 601       7.375  14.269   2.806  1.00 19.07    -0.044 NA
HETATM    3  C16   D T 601       7.707  13.591   3.912  1.00 18.16     0.163 A 
HETATM    4  C17   D T 601       7.092  12.356   4.129  1.00 16.80     0.030 A 
HETATM    5  C18   D T 601       6.159  11.912   3.190  1.00 18.08     0.151 A 
HETATM    6  N19   D T 601       5.892  12.652   2.095  1.00 16.91    -0.074 NA
HETATM    7  C20   D T 601       7.398  11.620   5.291  1.00 17.65     0.034 A 
HETATM    8  C21   D T 601       8.333  12.115   6.213  1.00 18.53     0.047 A 
HETATM    9  C22   D T 601       8.922  13.375   5.944  1.00 19.48     0.260 A 
HETATM   10  O23   D T 601       9.718  13.779   6.817  1.00 21.52    -0.267 OA
HETATM   11  N24   D T 601       8.622  14.096   4.804  1.00 19.49    -0.301 N 
HETATM   12  C25   D T 601       9.234  15.377   4.491  1.00 20.07     0.161 C 
ENDROOT
BRANCH   1  13
HETATM   13  N13   D T 601       6.251  14.572   0.787  1.00 20.14    -0.188 N 
HETATM   14 1H13   D T 601       6.908  15.175   0.572  1.00 24.16     0.184 HD
BRANCH  13  15
HETATM   15  C12   D T 601       5.162  14.581  -0.058  1.00 24.69     0.049 A 
HETATM   16  C11   D T 601       4.006  15.264   0.401  1.00 26.89     0.033 A 
HETATM   17  C10   D T 601       2.850  15.341  -0.408  1.00 28.95     0.039 A 
HETATM   18  C09   D T 601       2.850  14.748  -1.689  1.00 30.95     0.069 A 
HETATM   19  C35   D T 601       4.005  14.096  -2.155  1.00 28.80     0.039 A 
HETATM   20  C34   D T 601       5.138  14.010  -1.340  1.00 26.81     0.033 A 
BRANCH  18  21
HETATM   21  O08   D T 601       1.775  14.844  -2.502  1.00 36.09    -0.350 OA
BRANCH  21  22
HETATM   22  C07   D T 601       0.507  15.071  -1.828  1.00 42.63     0.195 C 
BRANCH  22  23
HETATM   23  C06   D T 601      -0.373  13.788  -1.958  1.00 46.85     0.143 C 
BRANCH  23  24
HETATM   24  N03   D T 601      -0.773  13.182  -0.632  1.00 51.06    -0.411 N 
BRANCH  24  25
HETATM   25  C02   D T 601       0.087  12.133   0.068  1.00 53.85     0.112 C 
HETATM   26  C01   D T 601       1.154  12.604   1.110  1.00 52.69     0.026 C 
ENDBRANCH  24  25
BRANCH  24  27
HETATM   27  C04   D T 601      -1.996  13.759   0.028  1.00 47.80     0.112 C 
HETATM   28  C05   D T 601      -2.048  13.808   1.580  1.00 44.89     0.026 C 
ENDBRANCH  24  27
ENDBRANCH  23  24
ENDBRANCH  22  23
ENDBRANCH  21  22
ENDBRANCH  18  21
ENDBRANCH  13  15
ENDBRANCH   1  13
BRANCH   8  29
HETATM   29  C26   D T 601       8.674  11.375   7.390  1.00 21.63     0.023 A 
HETATM   30  C27   D T 601       9.888  10.634   7.445  1.00 22.75     0.046 A 
HETATM   31 CL28   D T 601      10.913  10.579   6.105  1.00 22.59    -0.083 Cl
HETATM   32  C29   D T 601      10.259   9.893   8.597  1.00 24.08     0.025 A 
HETATM   33  C30   D T 601       9.431   9.921   9.742  1.00 25.63     0.003 A 
HETATM   34  C31   D T 601       8.243  10.665   9.714  1.00 25.41     0.025 A 
HETATM   35  C32   D T 601       7.868  11.383   8.552  1.00 23.77     0.046 A 
HETATM   36 CL33   D T 601       6.417  12.255   8.580  1.00 25.94    -0.083 Cl
ENDBRANCH   8  29
TORSDOF 9
ENDMDL
MODEL 7
REMARK VINA RESULT:    -7.369      2.451      3.983
REMARK INTER + INTRA:         -11.913
REMARK INTER:                 -10.608
REMARK INTRA:                  -1.305
REMARK UNBOUND:                -0.667
REMARK  9 active torsions:
REMARK  status: ('A' for Active; 'I' for Inactive)
REMARK    1  A    between atoms: C02_2  and  N03_3 
REMARK    2  A    between atoms: N03_3  and  C04_4 
REMARK    3  A    between atoms: N03_3  and  C06_6 
REMARK    4  A    between atoms: C06_6  and  C07_7 
REMARK    5  A    between atoms: C07_7  and  O08_8 
REMARK    6  A    between atoms: O08_8  and  C09_9 
REMARK    7  A    between atoms: C12_12  and  N13_13 
REMARK    8  A    between atoms: N13_13  and  C14_14 
REMARK    9  A    between atoms: C21_21  and  C26_26 
ROOT
HETATM    1  C14   D T 601       0.846  15.454  -3.157  1.00 17.92     0.728 A 
HETATM    2  N15   D T 601       1.766  15.406  -4.141  1.00 19.07    -0.044 NA
HETATM    3  C16   D T 601       1.831  16.273  -5.160  1.00 18.16     0.163 A 
HETATM    4  C17   D T 601       0.863  17.278  -5.223  1.00 16.80     0.030 A 
HETATM    5  C18   D T 601      -0.120  17.308  -4.232  1.00 18.08     0.151 A 
HETATM    6  N19   D T 601      -0.104  16.403  -3.232  1.00 16.91    -0.074 NA
HETATM    7  C20   D T 601       0.882  18.198  -6.290  1.00 17.65     0.034 A 
HETATM    8  C21   D T 601       1.882  18.118  -7.271  1.00 18.53     0.047 A 
HETATM    9  C22   D T 601       2.835  17.076  -7.159  1.00 19.48     0.260 A 
HETATM   10  O23   D T 601       3.678  17.036  -8.079  1.00 21.52    -0.267 OA
HETATM   11  N24   D T 601       2.816  16.175  -6.112  1.00 19.49    -0.301 N 
HETATM   12  C25   D T 601       3.799  15.114  -5.959  1.00 20.07     0.161 C 
ENDROOT
BRANCH   1  13
HETATM   13  N13   D T 601       0.874  14.549  -2.166  1.00 20.14    -0.188 N 
HETATM   14 1H13   D T 601       0.234  13.895  -2.227  1.00 24.16     0.184 HD
BRANCH  13  15
HETATM   15  C12   D T 601       1.705  14.442  -1.073  1.00 24.69     0.049 A 
HETATM   16  C11   D T 601       1.353  13.472  -0.098  1.00 26.89     0.033 A 
HETATM   17  C10   D T 601       2.159  13.279   1.046  1.00 28.95     0.039 A 
HETATM   18  C09   D T 601       3.333  14.045   1.214  1.00 30.95     0.069 A 
HETATM   19  C35   D T 601       3.697  14.987   0.234  1.00 28.80     0.039 A 
HETATM   20  C34   D T 601       2.883  15.182  -0.886  1.00 26.81     0.033 A 
BRANCH  18  21
HETATM   21  O08   D T 601       4.147  13.852   2.275  1.00 36.09    -0.350 OA
BRANCH  21  22
HETATM   22  C07   D T 601       4.076  12.530   2.877  1.00 42.63     0.195 C 
BRANCH  22  23
HETATM   23  C06   D T 601       5.390  12.267   3.679  1.00 46.85     0.143 C 
BRANCH  23  24
HETATM   24  N03   D T 601       6.640  12.765   2.988  1.00 51.06    -0.411 N 
BRANCH  24  25
HETATM   25  C02   D T 601       7.489  13.891   3.570  1.00 53.85     0.112 C 
HETATM   26  C01   D T 601       8.793  13.526   4.353  1.00 52.69     0.026 C 
ENDBRANCH  24  25
BRANCH  24  27
HETATM   27  C04   D T 601       7.077  12.005   1.764  1.00 47.80     0.112 C 
HETATM   28  C05   D T 601       6.963  12.702   0.380  1.00 44.89     0.026 C 
ENDBRANCH  24  27
ENDBRANCH  23  24
ENDBRANCH  22  23
ENDBRANCH  21  22
ENDBRANCH  18  21
ENDBRANCH  13  15
ENDBRANCH   1  13
BRANCH   8  29
HETATM   29  C26   D T 601       1.933  19.055  -8.352  1.00 21.63     0.023 A 
HETATM   30  C27   D T 601       1.121  18.865  -9.505  1.00 22.75     0.046 A 
HETATM   31 CL28   D T 601       0.128  17.506  -9.633  1.00 22.59    -0.083 Cl
HETATM   32  C29   D T 601       1.143  19.777 -10.593  1.00 24.08     0.025 A 
HETATM   33  C30   D T 601       1.955  20.932 -10.520  1.00 25.63     0.003 A 
HETATM   34  C31   D T 601       2.743  21.147  -9.381  1.00 25.41     0.025 A 
HETATM   35  C32   D T 601       2.734  20.220  -8.309  1.00 23.77     0.046 A 
HETATM   36 CL33   D T 601       3.714  20.535  -6.966  1.00 25.94    -0.083 Cl
ENDBRANCH   8  29
TORSDOF 9
ENDMDL
MODEL 8
REMARK VINA RESULT:    -7.335      4.311     10.432
REMARK INTER + INTRA:         -11.861
REMARK INTER:                 -10.383
REMARK INTRA:                  -1.478
REMARK UNBOUND:                -0.667
REMARK  9 active torsions:
REMARK  status: ('A' for Active; 'I' for Inactive)
REMARK    1  A    between atoms: C02_2  and  N03_3 
REMARK    2  A    between atoms: N03_3  and  C04_4 
REMARK    3  A    between atoms: N03_3  and  C06_6 
REMARK    4  A    between atoms: C06_6  and  C07_7 
REMARK    5  A    between atoms: C07_7  and  O08_8 
REMARK    6  A    between atoms: O08_8  and  C09_9 
REMARK    7  A    between atoms: C12_12  and  N13_13 
REMARK    8  A    between atoms: N13_13  and  C14_14 
REMARK    9  A    between atoms: C21_21  and  C26_26 
ROOT
HETATM    1  C14   D T 601       0.177  18.549  -6.067  1.00 17.92     0.728 A 
HETATM    2  N15   D T 601       1.107  17.590  -5.884  1.00 19.07    -0.044 NA
HETATM    3  C16   D T 601       1.190  16.813  -4.796  1.00 18.16     0.163 A 
HETATM    4  C17   D T 601       0.268  17.029  -3.769  1.00 16.80     0.030 A 
HETATM    5  C18   D T 601      -0.671  18.050  -3.932  1.00 18.08     0.151 A 
HETATM    6  N19   D T 601      -0.692  18.778  -5.067  1.00 16.91    -0.074 NA
HETATM    7  C20   D T 601       0.332  16.248  -2.598  1.00 17.65     0.034 A 
HETATM    8  C21   D T 601       1.305  15.243  -2.475  1.00 18.53     0.047 A 
HETATM    9  C22   D T 601       2.216  15.071  -3.546  1.00 19.48     0.260 A 
HETATM   10  O23   D T 601       3.078  14.186  -3.364  1.00 21.52    -0.267 OA
HETATM   11  N24   D T 601       2.151  15.838  -4.694  1.00 19.49    -0.301 N 
HETATM   12  C25   D T 601       3.056  15.662  -5.818  1.00 20.07     0.161 C 
ENDROOT
BRANCH   1  13
HETATM   13  N13   D T 601       0.164  19.266  -7.201  1.00 20.14    -0.188 N 
HETATM   14 1H13   D T 601      -0.289  20.060  -7.147  1.00 24.16     0.184 HD
BRANCH  13  15
HETATM   15  C12   D T 601       0.721  19.002  -8.434  1.00 24.69     0.049 A 
HETATM   16  C11   D T 601       1.865  19.763  -8.791  1.00 26.89     0.033 A 
HETATM   17  C10   D T 601       2.513  19.546 -10.027  1.00 28.95     0.039 A 
HETATM   18  C09   D T 601       2.031  18.555 -10.908  1.00 30.95     0.069 A 
HETATM   19  C35   D T 601       0.914  17.781 -10.542  1.00 28.80     0.039 A 
HETATM   20  C34   D T 601       0.269  18.016  -9.323  1.00 26.81     0.033 A 
BRANCH  18  21
HETATM   21  O08   D T 601       2.657  18.294 -12.077  1.00 36.09    -0.350 OA
BRANCH  21  22
HETATM   22  C07   D T 601       3.922  18.984 -12.268  1.00 42.63     0.195 C 
BRANCH  22  23
HETATM   23  C06   D T 601       5.087  17.955 -12.119  1.00 46.85     0.143 C 
BRANCH  23  24
HETATM   24  N03   D T 601       5.874  18.101 -10.836  1.00 51.06    -0.411 N 
BRANCH  24  25
HETATM   25  C02   D T 601       6.518  19.424 -10.430  1.00 53.85     0.112 C 
HETATM   26  C01   D T 601       6.101  20.082  -9.075  1.00 52.69     0.026 C 
ENDBRANCH  24  25
BRANCH  24  27
HETATM   27  C04   D T 601       5.880  16.911  -9.914  1.00 47.80     0.112 C 
HETATM   28  C05   D T 601       4.742  16.780  -8.865  1.00 44.89     0.026 C 
ENDBRANCH  24  27
ENDBRANCH  23  24
ENDBRANCH  22  23
ENDBRANCH  21  22
ENDBRANCH  18  21
ENDBRANCH  13  15
ENDBRANCH   1  13
BRANCH   8  29
HETATM   29  C26   D T 601       1.376  14.423  -1.304  1.00 21.63     0.023 A 
HETATM   30  C27   D T 601       2.390  14.647  -0.332  1.00 22.75     0.046 A 
HETATM   31 CL28   D T 601       3.553  15.846  -0.575  1.00 22.59    -0.083 Cl
HETATM   32  C29   D T 601       2.487  13.856   0.843  1.00 24.08     0.025 A 
HETATM   33  C30   D T 601       1.527  12.847   1.087  1.00 25.63     0.003 A 
HETATM   34  C31   D T 601       0.506  12.630   0.152  1.00 25.41     0.025 A 
HETATM   35  C32   D T 601       0.430  13.407  -1.030  1.00 23.77     0.046 A 
HETATM   36 CL33   D T 601      -0.823  13.088  -2.122  1.00 25.94    -0.083 Cl
ENDBRANCH   8  29
TORSDOF 9
ENDMDL
MODEL 9
REMARK VINA RESULT:    -7.282      4.131     10.920
REMARK INTER + INTRA:         -11.780
REMARK INTER:                 -10.195
REMARK INTRA:                  -1.585
REMARK UNBOUND:                -0.667
REMARK  9 active torsions:
REMARK  status: ('A' for Active; 'I' for Inactive)
REMARK    1  A    between atoms: C02_2  and  N03_3 
REMARK    2  A    between atoms: N03_3  and  C04_4 
REMARK    3  A    between atoms: N03_3  and  C06_6 
REMARK    4  A    between atoms: C06_6  and  C07_7 
REMARK    5  A    between atoms: C07_7  and  O08_8 
REMARK    6  A    between atoms: O08_8  and  C09_9 
REMARK    7  A    between atoms: C12_12  and  N13_13 
REMARK    8  A    between atoms: N13_13  and  C14_14 
REMARK    9  A    between atoms: C21_21  and  C26_26 
ROOT
HETATM    1  C14   D T 601       4.786  13.193   1.577  1.00 17.92     0.728 A 
HETATM    2  N15   D T 601       6.055  13.610   1.390  1.00 19.07    -0.044 NA
HETATM    3  C16   D T 601       7.035  13.481   2.294  1.00 18.16     0.163 A 
HETATM    4  C17   D T 601       6.716  12.900   3.523  1.00 16.80     0.030 A 
HETATM    5  C18   D T 601       5.394  12.505   3.741  1.00 18.08     0.151 A 
HETATM    6  N19   D T 601       4.471  12.660   2.770  1.00 16.91    -0.074 NA
HETATM    7  C20   D T 601       7.713  12.764   4.509  1.00 17.65     0.034 A 
HETATM    8  C21   D T 601       9.025  13.190   4.248  1.00 18.53     0.047 A 
HETATM    9  C22   D T 601       9.289  13.776   2.986  1.00 19.48     0.260 A 
HETATM   10  O23   D T 601      10.465  14.166   2.826  1.00 21.52    -0.267 OA
HETATM   11  N24   D T 601       8.311  13.908   2.019  1.00 19.49    -0.301 N 
HETATM   12  C25   D T 601       8.565  14.480   0.707  1.00 20.07     0.161 C 
ENDROOT
BRANCH   1  13
HETATM   13  N13   D T 601       3.877  13.351   0.603  1.00 20.14    -0.188 N 
HETATM   14 1H13   D T 601       3.177  12.759   0.633  1.00 24.16     0.184 HD
BRANCH  13  15
HETATM   15  C12   D T 601       3.822  14.256  -0.435  1.00 24.69     0.049 A 
HETATM   16  C11   D T 601       4.160  13.766  -1.724  1.00 26.89     0.033 A 
HETATM   17  C10   D T 601       4.112  14.619  -2.850  1.00 28.95     0.039 A 
HETATM   18  C09   D T 601       3.709  15.963  -2.695  1.00 30.95     0.069 A 
HETATM   19  C35   D T 601       3.347  16.440  -1.422  1.00 28.80     0.039 A 
HETATM   20  C34   D T 601       3.415  15.593  -0.312  1.00 26.81     0.033 A 
BRANCH  18  21
HETATM   21  O08   D T 601       3.611  16.789  -3.760  1.00 36.09    -0.350 OA
BRANCH  21  22
HETATM   22  C07   D T 601       2.513  17.741  -3.706  1.00 42.63     0.195 C 
BRANCH  22  23
HETATM   23  C06   D T 601       1.239  17.080  -4.319  1.00 46.85     0.143 C 
BRANCH  23  24
HETATM   24  N03   D T 601      -0.002  17.237  -3.470  1.00 51.06    -0.411 N 
BRANCH  24  25
HETATM   25  C02   D T 601      -0.785  18.545  -3.417  1.00 53.85     0.112 C 
HETATM   26  C01   D T 601      -0.941  19.277  -2.044  1.00 52.69     0.026 C 
ENDBRANCH  24  25
BRANCH  24  27
HETATM   27  C04   D T 601      -0.503  15.996  -2.779  1.00 47.80     0.112 C 
HETATM   28  C05   D T 601       0.255  14.660  -3.014  1.00 44.89     0.026 C 
ENDBRANCH  24  27
ENDBRANCH  23  24
ENDBRANCH  22  23
ENDBRANCH  21  22
ENDBRANCH  18  21
ENDBRANCH  13  15
ENDBRANCH   1  13
BRANCH   8  29
HETATM   29  C26   D T 601      10.058  13.043   5.228  1.00 21.63     0.023 A 
HETATM   30  C27   D T 601      10.289  14.068   6.188  1.00 22.75     0.046 A 
HETATM   31 CL28   D T 601       9.382  15.491   6.148  1.00 22.59    -0.083 Cl
HETATM   32  C29   D T 601      11.301  13.952   7.176  1.00 24.08     0.025 A 
HETATM   33  C30   D T 601      12.076  12.772   7.247  1.00 25.63     0.003 A 
HETATM   34  C31   D T 601      11.846  11.742   6.325  1.00 25.41     0.025 A 
HETATM   35  C32   D T 601      10.849  11.874   5.326  1.00 23.77     0.046 A 
HETATM   36 CL33   D T 601      10.627  10.597   4.239  1.00 25.94    -0.083 Cl
ENDBRANCH   8  29
TORSDOF 9
ENDMDL
