MODEL 1
REMARK VINA RESULT:    -8.447      0.000      0.000
REMARK INTER + INTRA:         -14.741
REMARK INTER:                 -12.892
REMARK INTRA:                  -1.849
REMARK UNBOUND:                -1.849
REMARK  9 active torsions:
REMARK  status: ('A' for Active; 'I' for Inactive)
REMARK    1  A    between atoms: C02_2  and  N03_3 
REMARK    2  A    between atoms: N03_3  and  C04_4 
REMARK    3  A    between atoms: N03_3  and  C06_6 
REMARK    4  A    between atoms: C06_6  and  C07_7 
REMARK    5  A    between atoms: C07_7  and  O08_8 
REMARK    6  A    between atoms: O08_8  and  C09_9 
REMARK    7  A    between atoms: C12_12  and  N13_13 
REMARK    8  A    between atoms: N13_13  and  C14_14 
REMARK    9  A    between atoms: C21_21  and  C26_26 
ROOT
HETATM    1  C14   D T 601       1.000   8.984  -0.498  1.00 17.92     0.728 A 
HETATM    2  N15   D T 601       0.746  10.258  -0.143  1.00 19.07    -0.044 NA
HETATM    3  C16   D T 601      -0.479  10.799  -0.089  1.00 18.16     0.163 A 
HETATM    4  C17   D T 601      -1.562   9.996  -0.452  1.00 16.80     0.030 A 
HETATM    5  C18   D T 601      -1.302   8.686  -0.863  1.00 18.08     0.151 A 
HETATM    6  N19   D T 601      -0.037   8.217  -0.876  1.00 16.91    -0.074 NA
HETATM    7  C20   D T 601      -2.866  10.530  -0.429  1.00 17.65     0.034 A 
HETATM    8  C21   D T 601      -3.075  11.858  -0.021  1.00 18.53     0.047 A 
HETATM    9  C22   D T 601      -1.940  12.627   0.332  1.00 19.48     0.260 A 
HETATM   10  O23   D T 601      -2.186  13.809   0.650  1.00 21.52    -0.267 OA
HETATM   11  N24   D T 601      -0.662  12.100   0.309  1.00 19.49    -0.301 N 
HETATM   12  C25   D T 601       0.517  12.862   0.694  1.00 20.07     0.161 C 
ENDROOT
BRANCH   1  13
HETATM   13  N13   D T 601       2.262   8.527  -0.505  1.00 20.14    -0.188 N 
HETATM   14 1H13   D T 601       2.596   8.335  -1.337  1.00 24.16     0.184 HD
BRANCH  13  15
HETATM   15  C12   D T 601       3.140   8.301   0.533  1.00 24.69     0.049 A 
HETATM   16  C11   D T 601       4.187   9.244   0.700  1.00 26.89     0.033 A 
HETATM   17  C10   D T 601       5.122   9.101   1.749  1.00 28.95     0.039 A 
HETATM   18  C09   D T 601       5.003   8.022   2.651  1.00 30.95     0.069 A 
HETATM   19  C35   D T 601       3.949   7.102   2.504  1.00 28.80     0.039 A 
HETATM   20  C34   D T 601       3.040   7.243   1.450  1.00 26.81     0.033 A 
BRANCH  18  21
HETATM   21  O08   D T 601       5.855   7.885   3.692  1.00 36.09    -0.350 OA
BRANCH  21  22
HETATM   22  C07   D T 601       6.140   9.109   4.424  1.00 42.63     0.195 C 
BRANCH  22  23
HETATM   23  C06   D T 601       5.565   8.981   5.869  1.00 46.85     0.143 C 
BRANCH  23  24
HETATM   24  N03   D T 601       4.068   9.174   5.954  1.00 51.06    -0.411 N 
BRANCH  24  25
HETATM   25  C02   D T 601       3.390  10.449   5.460  1.00 53.85     0.112 C 
HETATM   26  C01   D T 601       2.554  10.397   4.139  1.00 52.69     0.026 C 
ENDBRANCH  24  25
BRANCH  24  27
HETATM   27  C04   D T 601       3.264   7.992   6.428  1.00 47.80     0.112 C 
HETATM   28  C05   D T 601       3.855   6.568   6.234  1.00 44.89     0.026 C 
ENDBRANCH  24  27
ENDBRANCH  23  24
ENDBRANCH  22  23
ENDBRANCH  21  22
ENDBRANCH  18  21
ENDBRANCH  13  15
ENDBRANCH   1  13
BRANCH   8  29
HETATM   29  C26   D T 601      -4.392  12.417   0.030  1.00 21.63     0.023 A 
HETATM   30  C27   D T 601      -5.034  12.852  -1.163  1.00 22.75     0.046 A 
HETATM   31 CL28   D T 601      -4.229  12.763  -2.645  1.00 22.59    -0.083 Cl
HETATM   32  C29   D T 601      -6.341  13.408  -1.150  1.00 24.08     0.025 A 
HETATM   33  C30   D T 601      -7.049  13.492   0.069  1.00 25.63     0.003 A 
HETATM   34  C31   D T 601      -6.442  13.046   1.252  1.00 25.41     0.025 A 
HETATM   35  C32   D T 601      -5.128  12.514   1.234  1.00 23.77     0.046 A 
HETATM   36 CL33   D T 601      -4.449  12.001   2.695  1.00 25.94    -0.083 Cl
ENDBRANCH   8  29
TORSDOF 9
ENDMDL
MODEL 2
REMARK VINA RESULT:    -8.294      1.197      2.415
REMARK INTER + INTRA:         -14.507
REMARK INTER:                 -13.205
REMARK INTRA:                  -1.302
REMARK UNBOUND:                -1.849
REMARK  9 active torsions:
REMARK  status: ('A' for Active; 'I' for Inactive)
REMARK    1  A    between atoms: C02_2  and  N03_3 
REMARK    2  A    between atoms: N03_3  and  C04_4 
REMARK    3  A    between atoms: N03_3  and  C06_6 
REMARK    4  A    between atoms: C06_6  and  C07_7 
REMARK    5  A    between atoms: C07_7  and  O08_8 
REMARK    6  A    between atoms: O08_8  and  C09_9 
REMARK    7  A    between atoms: C12_12  and  N13_13 
REMARK    8  A    between atoms: N13_13  and  C14_14 
REMARK    9  A    between atoms: C21_21  and  C26_26 
ROOT
HETATM    1  C14   D T 601       1.026   8.867   0.526  1.00 17.92     0.728 A 
HETATM    2  N15   D T 601       0.712  10.143   0.824  1.00 19.07    -0.044 NA
HETATM    3  C16   D T 601      -0.495  10.691   0.629  1.00 18.16     0.163 A 
HETATM    4  C17   D T 601      -1.487   9.894   0.053  1.00 16.80     0.030 A 
HETATM    5  C18   D T 601      -1.156   8.583  -0.298  1.00 18.08     0.151 A 
HETATM    6  N19   D T 601       0.083   8.107  -0.055  1.00 16.91    -0.074 NA
HETATM    7  C20   D T 601      -2.765  10.435  -0.188  1.00 17.65     0.034 A 
HETATM    8  C21   D T 601      -3.045  11.764   0.170  1.00 18.53     0.047 A 
HETATM    9  C22   D T 601      -2.001  12.527   0.747  1.00 19.48     0.260 A 
HETATM   10  O23   D T 601      -2.300  13.710   1.010  1.00 21.52    -0.267 OA
HETATM   11  N24   D T 601      -0.747  11.993   0.983  1.00 19.49    -0.301 N 
HETATM   12  C25   D T 601       0.333  12.748   1.599  1.00 20.07     0.161 C 
ENDROOT
BRANCH   1  13
HETATM   13  N13   D T 601       2.261   8.404   0.775  1.00 20.14    -0.188 N 
HETATM   14 1H13   D T 601       2.804   8.343   0.038  1.00 24.16     0.184 HD
BRANCH  13  15
HETATM   15  C12   D T 601       2.848   8.004   1.957  1.00 24.69     0.049 A 
HETATM   16  C11   D T 601       3.835   6.989   1.866  1.00 26.89     0.033 A 
HETATM   17  C10   D T 601       4.502   6.531   3.024  1.00 28.95     0.039 A 
HETATM   18  C09   D T 601       4.198   7.100   4.279  1.00 30.95     0.069 A 
HETATM   19  C35   D T 601       3.240   8.127   4.366  1.00 28.80     0.039 A 
HETATM   20  C34   D T 601       2.573   8.560   3.216  1.00 26.81     0.033 A 
BRANCH  18  21
HETATM   21  O08   D T 601       4.853   6.715   5.397  1.00 36.09    -0.350 OA
BRANCH  21  22
HETATM   22  C07   D T 601       4.107   6.873   6.636  1.00 42.63     0.195 C 
BRANCH  22  23
HETATM   23  C06   D T 601       5.055   7.462   7.727  1.00 46.85     0.143 C 
BRANCH  23  24
HETATM   24  N03   D T 601       5.232   8.962   7.641  1.00 51.06    -0.411 N 
BRANCH  24  25
HETATM   25  C02   D T 601       6.461   9.592   6.992  1.00 53.85     0.112 C 
HETATM   26  C01   D T 601       6.445   9.866   5.452  1.00 52.69     0.026 C 
ENDBRANCH  24  25
BRANCH  24  27
HETATM   27  C04   D T 601       4.075   9.803   8.110  1.00 47.80     0.112 C 
HETATM   28  C05   D T 601       3.251  10.587   7.050  1.00 44.89     0.026 C 
ENDBRANCH  24  27
ENDBRANCH  23  24
ENDBRANCH  22  23
ENDBRANCH  21  22
ENDBRANCH  18  21
ENDBRANCH  13  15
ENDBRANCH   1  13
BRANCH   8  29
HETATM   29  C26   D T 601      -4.342  12.331  -0.047  1.00 21.63     0.023 A 
HETATM   30  C27   D T 601      -5.230  12.530   1.047  1.00 22.75     0.046 A 
HETATM   31 CL28   D T 601      -4.784  12.054   2.604  1.00 22.59    -0.083 Cl
HETATM   32  C29   D T 601      -6.522  13.092   0.869  1.00 24.08     0.025 A 
HETATM   33  C30   D T 601      -6.928  13.510  -0.418  1.00 25.63     0.003 A 
HETATM   34  C31   D T 601      -6.058  13.343  -1.504  1.00 25.41     0.025 A 
HETATM   35  C32   D T 601      -4.779  12.759  -1.322  1.00 23.77     0.046 A 
HETATM   36 CL33   D T 601      -3.779  12.578  -2.674  1.00 25.94    -0.083 Cl
ENDBRANCH   8  29
TORSDOF 9
ENDMDL
MODEL 3
REMARK VINA RESULT:    -8.268      1.575      2.393
REMARK INTER + INTRA:         -14.467
REMARK INTER:                 -12.983
REMARK INTRA:                  -1.484
REMARK UNBOUND:                -1.849
REMARK  9 active torsions:
REMARK  status: ('A' for Active; 'I' for Inactive)
REMARK    1  A    between atoms: C02_2  and  N03_3 
REMARK    2  A    between atoms: N03_3  and  C04_4 
REMARK    3  A    between atoms: N03_3  and  C06_6 
REMARK    4  A    between atoms: C06_6  and  C07_7 
REMARK    5  A    between atoms: C07_7  and  O08_8 
REMARK    6  A    between atoms: O08_8  and  C09_9 
REMARK    7  A    between atoms: C12_12  and  N13_13 
REMARK    8  A    between atoms: N13_13  and  C14_14 
REMARK    9  A    between atoms: C21_21  and  C26_26 
ROOT
HETATM    1  C14   D T 601       1.630   8.712   1.262  1.00 17.92     0.728 A 
HETATM    2  N15   D T 601       1.308  10.018   1.348  1.00 19.07    -0.044 NA
HETATM    3  C16   D T 601       0.166  10.547   0.889  1.00 18.16     0.163 A 
HETATM    4  C17   D T 601      -0.739   9.694   0.255  1.00 16.80     0.030 A 
HETATM    5  C18   D T 601      -0.393   8.347   0.123  1.00 18.08     0.151 A 
HETATM    6  N19   D T 601       0.775   7.894   0.627  1.00 16.91    -0.074 NA
HETATM    7  C20   D T 601      -1.943  10.212  -0.261  1.00 17.65     0.034 A 
HETATM    8  C21   D T 601      -2.240  11.578  -0.117  1.00 18.53     0.047 A 
HETATM    9  C22   D T 601      -1.284  12.396   0.531  1.00 19.48     0.260 A 
HETATM   10  O23   D T 601      -1.588  13.606   0.597  1.00 21.52    -0.267 OA
HETATM   11  N24   D T 601      -0.103  11.885   1.037  1.00 19.49    -0.301 N 
HETATM   12  C25   D T 601       0.881  12.701   1.731  1.00 20.07     0.161 C 
ENDROOT
BRANCH   1  13
HETATM   13  N13   D T 601       2.793   8.272   1.769  1.00 20.14    -0.188 N 
HETATM   14 1H13   D T 601       3.475   8.203   1.160  1.00 24.16     0.184 HD
BRANCH  13  15
HETATM   15  C12   D T 601       3.131   7.909   3.055  1.00 24.69     0.049 A 
HETATM   16  C11   D T 601       4.225   7.015   3.198  1.00 26.89     0.033 A 
HETATM   17  C10   D T 601       4.652   6.603   4.480  1.00 28.95     0.039 A 
HETATM   18  C09   D T 601       3.999   7.098   5.629  1.00 30.95     0.069 A 
HETATM   19  C35   D T 601       2.933   8.006   5.489  1.00 28.80     0.039 A 
HETATM   20  C34   D T 601       2.506   8.393   4.215  1.00 26.81     0.033 A 
BRANCH  18  21
HETATM   21  O08   D T 601       4.415   6.758   6.869  1.00 36.09    -0.350 OA
BRANCH  21  22
HETATM   22  C07   D T 601       4.574   7.868   7.795  1.00 42.63     0.195 C 
BRANCH  22  23
HETATM   23  C06   D T 601       5.874   8.650   7.431  1.00 46.85     0.143 C 
BRANCH  23  24
HETATM   24  N03   D T 601       5.630  10.079   6.998  1.00 51.06    -0.411 N 
BRANCH  24  25
HETATM   25  C02   D T 601       4.707  11.011   7.777  1.00 53.85     0.112 C 
HETATM   26  C01   D T 601       3.287  11.324   7.201  1.00 52.69     0.026 C 
ENDBRANCH  24  25
BRANCH  24  27
HETATM   27  C04   D T 601       6.446  10.576   5.834  1.00 47.80     0.112 C 
HETATM   28  C05   D T 601       6.108  10.049   4.412  1.00 44.89     0.026 C 
ENDBRANCH  24  27
ENDBRANCH  23  24
ENDBRANCH  22  23
ENDBRANCH  21  22
ENDBRANCH  18  21
ENDBRANCH  13  15
ENDBRANCH   1  13
BRANCH   8  29
HETATM   29  C26   D T 601      -3.467  12.124  -0.615  1.00 21.63     0.023 A 
HETATM   30  C27   D T 601      -3.672  12.270  -2.015  1.00 22.75     0.046 A 
HETATM   31 CL28   D T 601      -2.451  11.849  -3.103  1.00 22.59    -0.083 Cl
HETATM   32  C29   D T 601      -4.876  12.804  -2.543  1.00 24.08     0.025 A 
HETATM   33  C30   D T 601      -5.924  13.160  -1.666  1.00 25.63     0.003 A 
HETATM   34  C31   D T 601      -5.749  13.001  -0.283  1.00 25.41     0.025 A 
HETATM   35  C32   D T 601      -4.534  12.490   0.237  1.00 23.77     0.046 A 
HETATM   36 CL33   D T 601      -4.383  12.330   1.915  1.00 25.94    -0.083 Cl
ENDBRANCH   8  29
TORSDOF 9
ENDMDL
MODEL 4
REMARK VINA RESULT:    -8.257      0.344      1.769
REMARK INTER + INTRA:         -14.451
REMARK INTER:                 -12.822
REMARK INTRA:                  -1.629
REMARK UNBOUND:                -1.849
REMARK  9 active torsions:
REMARK  status: ('A' for Active; 'I' for Inactive)
REMARK    1  A    between atoms: C02_2  and  N03_3 
REMARK    2  A    between atoms: N03_3  and  C04_4 
REMARK    3  A    between atoms: N03_3  and  C06_6 
REMARK    4  A    between atoms: C06_6  and  C07_7 
REMARK    5  A    between atoms: C07_7  and  O08_8 
REMARK    6  A    between atoms: O08_8  and  C09_9 
REMARK    7  A    between atoms: C12_12  and  N13_13 
REMARK    8  A    between atoms: N13_13  and  C14_14 
REMARK    9  A    between atoms: C21_21  and  C26_26 
ROOT
HETATM    1  C14   D T 601       1.194   8.895  -0.416  1.00 17.92     0.728 A 
HETATM    2  N15   D T 601       0.921  10.171  -0.081  1.00 19.07    -0.044 NA
HETATM    3  C16   D T 601      -0.308  10.705  -0.077  1.00 18.16     0.163 A 
HETATM    4  C17   D T 601      -1.373   9.893  -0.473  1.00 16.80     0.030 A 
HETATM    5  C18   D T 601      -1.091   8.582  -0.864  1.00 18.08     0.151 A 
HETATM    6  N19   D T 601       0.176   8.119  -0.825  1.00 16.91    -0.074 NA
HETATM    7  C20   D T 601      -2.679  10.420  -0.504  1.00 17.65     0.034 A 
HETATM    8  C21   D T 601      -2.910  11.750  -0.115  1.00 18.53     0.047 A 
HETATM    9  C22   D T 601      -1.793  12.528   0.274  1.00 19.48     0.260 A 
HETATM   10  O23   D T 601      -2.057  13.711   0.573  1.00 21.52    -0.267 OA
HETATM   11  N24   D T 601      -0.512  12.009   0.303  1.00 19.49    -0.301 N 
HETATM   12  C25   D T 601       0.647  12.779   0.725  1.00 20.07     0.161 C 
ENDROOT
BRANCH   1  13
HETATM   13  N13   D T 601       2.458   8.445  -0.371  1.00 20.14    -0.188 N 
HETATM   14 1H13   D T 601       2.740   8.017  -1.132  1.00 24.16     0.184 HD
BRANCH  13  15
HETATM   15  C12   D T 601       3.404   8.522   0.629  1.00 24.69     0.049 A 
HETATM   16  C11   D T 601       3.377   7.497   1.611  1.00 26.89     0.033 A 
HETATM   17  C10   D T 601       4.321   7.487   2.662  1.00 28.95     0.039 A 
HETATM   18  C09   D T 601       5.309   8.492   2.727  1.00 30.95     0.069 A 
HETATM   19  C35   D T 601       5.354   9.493   1.739  1.00 28.80     0.039 A 
HETATM   20  C34   D T 601       4.403   9.504   0.713  1.00 26.81     0.033 A 
BRANCH  18  21
HETATM   21  O08   D T 601       6.253   8.482   3.695  1.00 36.09    -0.350 OA
BRANCH  21  22
HETATM   22  C07   D T 601       6.091   9.493   4.728  1.00 42.63     0.195 C 
BRANCH  22  23
HETATM   23  C06   D T 601       5.330   8.867   5.937  1.00 46.85     0.143 C 
BRANCH  23  24
HETATM   24  N03   D T 601       3.824   8.978   5.840  1.00 51.06    -0.411 N 
BRANCH  24  25
HETATM   25  C02   D T 601       3.142  10.243   5.327  1.00 53.85     0.112 C 
HETATM   26  C01   D T 601       1.939  10.104   4.336  1.00 52.69     0.026 C 
ENDBRANCH  24  25
BRANCH  24  27
HETATM   27  C04   D T 601       3.037   7.733   6.149  1.00 47.80     0.112 C 
HETATM   28  C05   D T 601       3.813   6.424   6.461  1.00 44.89     0.026 C 
ENDBRANCH  24  27
ENDBRANCH  23  24
ENDBRANCH  22  23
ENDBRANCH  21  22
ENDBRANCH  18  21
ENDBRANCH  13  15
ENDBRANCH   1  13
BRANCH   8  29
HETATM   29  C26   D T 601      -4.232  12.302  -0.118  1.00 21.63     0.023 A 
HETATM   30  C27   D T 601      -4.947  12.458   1.101  1.00 22.75     0.046 A 
HETATM   31 CL28   D T 601      -4.267  11.946   2.559  1.00 22.59    -0.083 Cl
HETATM   32  C29   D T 601      -6.257  13.004   1.136  1.00 24.08     0.025 A 
HETATM   33  C30   D T 601      -6.857  13.451  -0.062  1.00 25.63     0.003 A 
HETATM   34  C31   D T 601      -6.158  13.328  -1.271  1.00 25.41     0.025 A 
HETATM   35  C32   D T 601      -4.860  12.759  -1.300  1.00 23.77     0.046 A 
HETATM   36 CL33   D T 601      -4.072  12.630  -2.792  1.00 25.94    -0.083 Cl
ENDBRANCH   8  29
TORSDOF 9
ENDMDL
MODEL 5
REMARK VINA RESULT:    -8.154      3.625      5.888
REMARK INTER + INTRA:         -14.294
REMARK INTER:                 -12.904
REMARK INTRA:                  -1.389
REMARK UNBOUND:                -1.849
REMARK  9 active torsions:
REMARK  status: ('A' for Active; 'I' for Inactive)
REMARK    1  A    between atoms: C02_2  and  N03_3 
REMARK    2  A    between atoms: N03_3  and  C04_4 
REMARK    3  A    between atoms: N03_3  and  C06_6 
REMARK    4  A    between atoms: C06_6  and  C07_7 
REMARK    5  A    between atoms: C07_7  and  O08_8 
REMARK    6  A    between atoms: O08_8  and  C09_9 
REMARK    7  A    between atoms: C12_12  and  N13_13 
REMARK    8  A    between atoms: N13_13  and  C14_14 
REMARK    9  A    between atoms: C21_21  and  C26_26 
ROOT
HETATM    1  C14   D T 601       1.074   8.902  -0.225  1.00 17.92     0.728 A 
HETATM    2  N15   D T 601       0.809  10.182   0.102  1.00 19.07    -0.044 NA
HETATM    3  C16   D T 601      -0.414  10.729   0.084  1.00 18.16     0.163 A 
HETATM    4  C17   D T 601      -1.481   9.927  -0.326  1.00 16.80     0.030 A 
HETATM    5  C18   D T 601      -1.207   8.611  -0.707  1.00 18.08     0.151 A 
HETATM    6  N19   D T 601       0.055   8.136  -0.647  1.00 16.91    -0.074 NA
HETATM    7  C20   D T 601      -2.781  10.467  -0.379  1.00 17.65     0.034 A 
HETATM    8  C21   D T 601      -3.005  11.801   0.001  1.00 18.53     0.047 A 
HETATM    9  C22   D T 601      -1.886  12.569   0.405  1.00 19.48     0.260 A 
HETATM   10  O23   D T 601      -2.142  13.756   0.696  1.00 21.52    -0.267 OA
HETATM   11  N24   D T 601      -0.611  12.036   0.456  1.00 19.49    -0.301 N 
HETATM   12  C25   D T 601       0.550  12.797   0.893  1.00 20.07     0.161 C 
ENDROOT
BRANCH   1  13
HETATM   13  N13   D T 601       2.333   8.440  -0.159  1.00 20.14    -0.188 N 
HETATM   14 1H13   D T 601       2.576   8.105   0.660  1.00 24.16     0.184 HD
BRANCH  13  15
HETATM   15  C12   D T 601       3.320   8.385  -1.119  1.00 24.69     0.049 A 
HETATM   16  C11   D T 601       3.853   7.102  -1.412  1.00 26.89     0.033 A 
HETATM   17  C10   D T 601       4.855   6.950  -2.396  1.00 28.95     0.039 A 
HETATM   18  C09   D T 601       5.318   8.078  -3.106  1.00 30.95     0.069 A 
HETATM   19  C35   D T 601       4.771   9.346  -2.836  1.00 28.80     0.039 A 
HETATM   20  C34   D T 601       3.792   9.488  -1.847  1.00 26.81     0.033 A 
BRANCH  18  21
HETATM   21  O08   D T 601       6.243   7.956  -4.084  1.00 36.09    -0.350 OA
BRANCH  21  22
HETATM   22  C07   D T 601       6.543   6.590  -4.486  1.00 42.63     0.195 C 
BRANCH  22  23
HETATM   23  C06   D T 601       6.170   6.411  -5.990  1.00 46.85     0.143 C 
BRANCH  23  24
HETATM   24  N03   D T 601       4.682   6.432  -6.261  1.00 51.06    -0.411 N 
BRANCH  24  25
HETATM   25  C02   D T 601       3.704   5.582  -5.454  1.00 53.85     0.112 C 
HETATM   26  C01   D T 601       2.394   5.078  -6.144  1.00 52.69     0.026 C 
ENDBRANCH  24  25
BRANCH  24  27
HETATM   27  C04   D T 601       4.198   7.432  -7.277  1.00 47.80     0.112 C 
HETATM   28  C05   D T 601       4.163   8.934  -6.881  1.00 44.89     0.026 C 
ENDBRANCH  24  27
ENDBRANCH  23  24
ENDBRANCH  22  23
ENDBRANCH  21  22
ENDBRANCH  18  21
ENDBRANCH  13  15
ENDBRANCH   1  13
BRANCH   8  29
HETATM   29  C26   D T 601      -4.320  12.366  -0.024  1.00 21.63     0.023 A 
HETATM   30  C27   D T 601      -4.899  12.782  -1.256  1.00 22.75     0.046 A 
HETATM   31 CL28   D T 601      -4.022  12.661  -2.693  1.00 22.59    -0.083 Cl
HETATM   32  C29   D T 601      -6.201  13.343  -1.318  1.00 24.08     0.025 A 
HETATM   33  C30   D T 601      -6.970  13.454  -0.138  1.00 25.63     0.003 A 
HETATM   34  C31   D T 601      -6.425  13.028   1.082  1.00 25.41     0.025 A 
HETATM   35  C32   D T 601      -5.114  12.491   1.139  1.00 23.77     0.046 A 
HETATM   36 CL33   D T 601      -4.511  12.003   2.642  1.00 25.94    -0.083 Cl
ENDBRANCH   8  29
TORSDOF 9
ENDMDL
MODEL 6
REMARK VINA RESULT:    -8.022      1.720      3.130
REMARK INTER + INTRA:         -14.092
REMARK INTER:                 -12.679
REMARK INTRA:                  -1.413
REMARK UNBOUND:                -1.849
REMARK  9 active torsions:
REMARK  status: ('A' for Active; 'I' for Inactive)
REMARK    1  A    between atoms: C02_2  and  N03_3 
REMARK    2  A    between atoms: N03_3  and  C04_4 
REMARK    3  A    between atoms: N03_3  and  C06_6 
REMARK    4  A    between atoms: C06_6  and  C07_7 
REMARK    5  A    between atoms: C07_7  and  O08_8 
REMARK    6  A    between atoms: O08_8  and  C09_9 
REMARK    7  A    between atoms: C12_12  and  N13_13 
REMARK    8  A    between atoms: N13_13  and  C14_14 
REMARK    9  A    between atoms: C21_21  and  C26_26 
ROOT
HETATM    1  C14   D T 601       2.173  10.885   1.431  1.00 17.92     0.728 A 
HETATM    2  N15   D T 601       1.150  10.162   0.933  1.00 19.07    -0.044 NA
HETATM    3  C16   D T 601      -0.073  10.651   0.689  1.00 18.16     0.163 A 
HETATM    4  C17   D T 601      -0.313  11.992   0.996  1.00 16.80     0.030 A 
HETATM    5  C18   D T 601       0.731  12.736   1.553  1.00 18.08     0.151 A 
HETATM    6  N19   D T 601       1.938  12.168   1.754  1.00 16.91    -0.074 NA
HETATM    7  C20   D T 601      -1.590  12.542   0.774  1.00 17.65     0.034 A 
HETATM    8  C21   D T 601      -2.612  11.749   0.226  1.00 18.53     0.047 A 
HETATM    9  C22   D T 601      -2.314  10.395  -0.063  1.00 19.48     0.260 A 
HETATM   10  O23   D T 601      -3.271   9.733  -0.514  1.00 21.52    -0.267 OA
HETATM   11  N24   D T 601      -1.059   9.858   0.156  1.00 19.49    -0.301 N 
HETATM   12  C25   D T 601      -0.721   8.478  -0.158  1.00 20.07     0.161 C 
ENDROOT
BRANCH   1  13
HETATM   13  N13   D T 601       3.370  10.309   1.624  1.00 20.14    -0.188 N 
HETATM   14 1H13   D T 601       3.693   9.844   0.903  1.00 24.16     0.184 HD
BRANCH  13  15
HETATM   15  C12   D T 601       4.195  10.303   2.729  1.00 24.69     0.049 A 
HETATM   16  C11   D T 601       4.630   9.034   3.191  1.00 26.89     0.033 A 
HETATM   17  C10   D T 601       5.493   8.934   4.306  1.00 28.95     0.039 A 
HETATM   18  C09   D T 601       5.940  10.106   4.954  1.00 30.95     0.069 A 
HETATM   19  C35   D T 601       5.531  11.366   4.478  1.00 28.80     0.039 A 
HETATM   20  C34   D T 601       4.663  11.452   3.385  1.00 26.81     0.033 A 
BRANCH  18  21
HETATM   21  O08   D T 601       6.801  10.043   5.993  1.00 36.09    -0.350 OA
BRANCH  21  22
HETATM   22  C07   D T 601       6.410   9.146   7.069  1.00 42.63     0.195 C 
BRANCH  22  23
HETATM   23  C06   D T 601       5.107   9.689   7.734  1.00 46.85     0.143 C 
BRANCH  23  24
HETATM   24  N03   D T 601       3.927   8.747   7.632  1.00 51.06    -0.411 N 
BRANCH  24  25
HETATM   25  C02   D T 601       2.512   9.254   7.370  1.00 53.85     0.112 C 
HETATM   26  C01   D T 601       2.205   9.970   6.013  1.00 52.69     0.026 C 
ENDBRANCH  24  25
BRANCH  24  27
HETATM   27  C04   D T 601       4.237   7.275   7.672  1.00 47.80     0.112 C 
HETATM   28  C05   D T 601       3.823   6.397   6.458  1.00 44.89     0.026 C 
ENDBRANCH  24  27
ENDBRANCH  23  24
ENDBRANCH  22  23
ENDBRANCH  21  22
ENDBRANCH  18  21
ENDBRANCH  13  15
ENDBRANCH   1  13
BRANCH   8  29
HETATM   29  C26   D T 601      -3.913  12.291  -0.028  1.00 21.63     0.023 A 
HETATM   30  C27   D T 601      -4.807  12.545   1.049  1.00 22.75     0.046 A 
HETATM   31 CL28   D T 601      -4.364  12.162   2.633  1.00 22.59    -0.083 Cl
HETATM   32  C29   D T 601      -6.103  13.085   0.834  1.00 24.08     0.025 A 
HETATM   33  C30   D T 601      -6.507  13.425  -0.475  1.00 25.63     0.003 A 
HETATM   34  C31   D T 601      -5.630  13.204  -1.547  1.00 25.41     0.025 A 
HETATM   35  C32   D T 601      -4.348  12.642  -1.327  1.00 23.77     0.046 A 
HETATM   36 CL33   D T 601      -3.340  12.393  -2.663  1.00 25.94    -0.083 Cl
ENDBRANCH   8  29
TORSDOF 9
ENDMDL
MODEL 7
REMARK VINA RESULT:    -7.995      1.444      2.918
REMARK INTER + INTRA:         -14.051
REMARK INTER:                 -12.416
REMARK INTRA:                  -1.636
REMARK UNBOUND:                -1.849
REMARK  9 active torsions:
REMARK  status: ('A' for Active; 'I' for Inactive)
REMARK    1  A    between atoms: C02_2  and  N03_3 
REMARK    2  A    between atoms: N03_3  and  C04_4 
REMARK    3  A    between atoms: N03_3  and  C06_6 
REMARK    4  A    between atoms: C06_6  and  C07_7 
REMARK    5  A    between atoms: C07_7  and  O08_8 
REMARK    6  A    between atoms: O08_8  and  C09_9 
REMARK    7  A    between atoms: C12_12  and  N13_13 
REMARK    8  A    between atoms: N13_13  and  C14_14 
REMARK    9  A    between atoms: C21_21  and  C26_26 
ROOT
HETATM    1  C14   D T 601       2.160  10.874   0.500  1.00 17.92     0.728 A 
HETATM    2  N15   D T 601       1.074  10.161   0.142  1.00 19.07    -0.044 NA
HETATM    3  C16   D T 601      -0.165  10.664   0.050  1.00 18.16     0.163 A 
HETATM    4  C17   D T 601      -0.347  12.010   0.373  1.00 16.80     0.030 A 
HETATM    5  C18   D T 601       0.767  12.745   0.787  1.00 18.08     0.151 A 
HETATM    6  N19   D T 601       1.983  12.162   0.840  1.00 16.91    -0.074 NA
HETATM    7  C20   D T 601      -1.636  12.575   0.309  1.00 17.65     0.034 A 
HETATM    8  C21   D T 601      -2.728  11.792  -0.099  1.00 18.53     0.047 A 
HETATM    9  C22   D T 601      -2.485  10.432  -0.412  1.00 19.48     0.260 A 
HETATM   10  O23   D T 601      -3.500   9.779  -0.733  1.00 21.52    -0.267 OA
HETATM   11  N24   D T 601      -1.219   9.880  -0.349  1.00 19.49    -0.301 N 
HETATM   12  C25   D T 601      -0.940   8.494  -0.691  1.00 20.07     0.161 C 
ENDROOT
BRANCH   1  13
HETATM   13  N13   D T 601       3.365  10.284   0.546  1.00 20.14    -0.188 N 
HETATM   14 1H13   D T 601       3.756  10.147  -0.272  1.00 24.16     0.184 HD
BRANCH  13  15
HETATM   15  C12   D T 601       4.111   9.851   1.621  1.00 24.69     0.049 A 
HETATM   16  C11   D T 601       4.945  10.814   2.246  1.00 26.89     0.033 A 
HETATM   17  C10   D T 601       5.732  10.463   3.366  1.00 28.95     0.039 A 
HETATM   18  C09   D T 601       5.674   9.149   3.879  1.00 30.95     0.069 A 
HETATM   19  C35   D T 601       4.826   8.202   3.277  1.00 28.80     0.039 A 
HETATM   20  C34   D T 601       4.066   8.555   2.157  1.00 26.81     0.033 A 
BRANCH  18  21
HETATM   21  O08   D T 601       6.380   8.797   4.977  1.00 36.09    -0.350 OA
BRANCH  21  22
HETATM   22  C07   D T 601       6.573   9.856   5.955  1.00 42.63     0.195 C 
BRANCH  22  23
HETATM   23  C06   D T 601       6.109   9.344   7.354  1.00 46.85     0.143 C 
BRANCH  23  24
HETATM   24  N03   D T 601       4.674   8.865   7.388  1.00 51.06    -0.411 N 
BRANCH  24  25
HETATM   25  C02   D T 601       4.317   7.410   7.675  1.00 53.85     0.112 C 
HETATM   26  C01   D T 601       3.941   6.474   6.480  1.00 52.69     0.026 C 
ENDBRANCH  24  25
BRANCH  24  27
HETATM   27  C04   D T 601       3.610   9.922   7.255  1.00 47.80     0.112 C 
HETATM   28  C05   D T 601       2.754   9.953   5.958  1.00 44.89     0.026 C 
ENDBRANCH  24  27
ENDBRANCH  23  24
ENDBRANCH  22  23
ENDBRANCH  21  22
ENDBRANCH  18  21
ENDBRANCH  13  15
ENDBRANCH   1  13
BRANCH   8  29
HETATM   29  C26   D T 601      -4.044  12.349  -0.191  1.00 21.63     0.023 A 
HETATM   30  C27   D T 601      -4.816  12.567   0.984  1.00 22.75     0.046 A 
HETATM   31 CL28   D T 601      -4.208  12.124   2.496  1.00 22.59    -0.083 Cl
HETATM   32  C29   D T 601      -6.122  13.120   0.930  1.00 24.08     0.025 A 
HETATM   33  C30   D T 601      -6.662  13.511  -0.315  1.00 25.63     0.003 A 
HETATM   34  C31   D T 601      -5.907  13.326  -1.483  1.00 25.41     0.025 A 
HETATM   35  C32   D T 601      -4.613  12.750  -1.423  1.00 23.77     0.046 A 
HETATM   36 CL33   D T 601      -3.757  12.546  -2.867  1.00 25.94    -0.083 Cl
ENDBRANCH   8  29
TORSDOF 9
ENDMDL
MODEL 8
REMARK VINA RESULT:    -7.742      2.404      3.613
REMARK INTER + INTRA:         -13.665
REMARK INTER:                 -11.950
REMARK INTRA:                  -1.716
REMARK UNBOUND:                -1.849
REMARK  9 active torsions:
REMARK  status: ('A' for Active; 'I' for Inactive)
REMARK    1  A    between atoms: C02_2  and  N03_3 
REMARK    2  A    between atoms: N03_3  and  C04_4 
REMARK    3  A    between atoms: N03_3  and  C06_6 
REMARK    4  A    between atoms: C06_6  and  C07_7 
REMARK    5  A    between atoms: C07_7  and  O08_8 
REMARK    6  A    between atoms: O08_8  and  C09_9 
REMARK    7  A    between atoms: C12_12  and  N13_13 
REMARK    8  A    between atoms: N13_13  and  C14_14 
REMARK    9  A    between atoms: C21_21  and  C26_26 
ROOT
HETATM    1  C14   D T 601       3.725   8.064   1.074  1.00 17.92     0.728 A 
HETATM    2  N15   D T 601       3.139   9.264   1.252  1.00 19.07    -0.044 NA
HETATM    3  C16   D T 601       2.100   9.713   0.534  1.00 18.16     0.163 A 
HETATM    4  C17   D T 601       1.609   8.893  -0.484  1.00 16.80     0.030 A 
HETATM    5  C18   D T 601       2.239   7.665  -0.703  1.00 18.08     0.151 A 
HETATM    6  N19   D T 601       3.274   7.285   0.076  1.00 16.91    -0.074 NA
HETATM    7  C20   D T 601       0.531   9.334  -1.276  1.00 17.65     0.034 A 
HETATM    8  C21   D T 601      -0.061  10.583  -1.026  1.00 18.53     0.047 A 
HETATM    9  C22   D T 601       0.481  11.374   0.016  1.00 19.48     0.260 A 
HETATM   10  O23   D T 601      -0.063  12.487   0.166  1.00 21.52    -0.267 OA
HETATM   11  N24   D T 601       1.539  10.939   0.792  1.00 19.49    -0.301 N 
HETATM   12  C25   D T 601       2.095  11.721   1.886  1.00 20.07     0.161 C 
ENDROOT
BRANCH   1  13
HETATM   13  N13   D T 601       4.752   7.695   1.856  1.00 20.14    -0.188 N 
HETATM   14 1H13   D T 601       5.483   7.374   1.404  1.00 24.16     0.184 HD
BRANCH  13  15
HETATM   15  C12   D T 601       4.889   7.720   3.228  1.00 24.69     0.049 A 
HETATM   16  C11   D T 601       5.605   8.816   3.776  1.00 26.89     0.033 A 
HETATM   17  C10   D T 601       5.779   8.932   5.173  1.00 28.95     0.039 A 
HETATM   18  C09   D T 601       5.220   7.961   6.032  1.00 30.95     0.069 A 
HETATM   19  C35   D T 601       4.486   6.890   5.491  1.00 28.80     0.039 A 
HETATM   20  C34   D T 601       4.336   6.775   4.105  1.00 26.81     0.033 A 
BRANCH  18  21
HETATM   21  O08   D T 601       5.331   8.071   7.375  1.00 36.09    -0.350 OA
BRANCH  21  22
HETATM   22  C07   D T 601       4.074   8.242   8.088  1.00 42.63     0.195 C 
BRANCH  22  23
HETATM   23  C06   D T 601       3.639   9.738   7.997  1.00 46.85     0.143 C 
BRANCH  23  24
HETATM   24  N03   D T 601       2.211   9.936   7.539  1.00 51.06    -0.411 N 
BRANCH  24  25
HETATM   25  C02   D T 601       1.878  10.520   6.170  1.00 53.85     0.112 C 
HETATM   26  C01   D T 601       2.010   9.608   4.906  1.00 52.69     0.026 C 
ENDBRANCH  24  25
BRANCH  24  27
HETATM   27  C04   D T 601       1.135   9.405   8.448  1.00 47.80     0.112 C 
HETATM   28  C05   D T 601       1.168   9.806   9.949  1.00 44.89     0.026 C 
ENDBRANCH  24  27
ENDBRANCH  23  24
ENDBRANCH  22  23
ENDBRANCH  21  22
ENDBRANCH  18  21
ENDBRANCH  13  15
ENDBRANCH   1  13
BRANCH   8  29
HETATM   29  C26   D T 601      -1.171  11.044  -1.805  1.00 21.63     0.023 A 
HETATM   30  C27   D T 601      -0.962  11.582  -3.105  1.00 22.75     0.046 A 
HETATM   31 CL28   D T 601       0.602  11.730  -3.725  1.00 22.59    -0.083 Cl
HETATM   32  C29   D T 601      -2.040  12.045  -3.905  1.00 24.08     0.025 A 
HETATM   33  C30   D T 601      -3.363  11.930  -3.425  1.00 25.63     0.003 A 
HETATM   34  C31   D T 601      -3.590  11.381  -2.155  1.00 25.41     0.025 A 
HETATM   35  C32   D T 601      -2.507  10.944  -1.353  1.00 23.77     0.046 A 
HETATM   36 CL33   D T 601      -2.847  10.298   0.174  1.00 25.94    -0.083 Cl
ENDBRANCH   8  29
TORSDOF 9
ENDMDL
MODEL 9
REMARK VINA RESULT:    -7.707      3.312     10.105
REMARK INTER + INTRA:         -13.611
REMARK INTER:                 -12.414
REMARK INTRA:                  -1.197
REMARK UNBOUND:                -1.849
REMARK  9 active torsions:
REMARK  status: ('A' for Active; 'I' for Inactive)
REMARK    1  A    between atoms: C02_2  and  N03_3 
REMARK    2  A    between atoms: N03_3  and  C04_4 
REMARK    3  A    between atoms: N03_3  and  C06_6 
REMARK    4  A    between atoms: C06_6  and  C07_7 
REMARK    5  A    between atoms: C07_7  and  O08_8 
REMARK    6  A    between atoms: O08_8  and  C09_9 
REMARK    7  A    between atoms: C12_12  and  N13_13 
REMARK    8  A    between atoms: N13_13  and  C14_14 
REMARK    9  A    between atoms: C21_21  and  C26_26 
ROOT
HETATM    1  C14   D T 601       0.714   9.196   0.936  1.00 17.92     0.728 A 
HETATM    2  N15   D T 601       1.714   8.346   1.245  1.00 19.07    -0.044 NA
HETATM    3  C16   D T 601       2.663   8.595   2.157  1.00 18.16     0.163 A 
HETATM    4  C17   D T 601       2.631   9.827   2.812  1.00 16.80     0.030 A 
HETATM    5  C18   D T 601       1.623  10.731   2.466  1.00 18.08     0.151 A 
HETATM    6  N19   D T 601       0.697  10.394   1.543  1.00 16.91    -0.074 NA
HETATM    7  C20   D T 601       3.622  10.139   3.764  1.00 17.65     0.034 A 
HETATM    8  C21   D T 601       4.624   9.202   4.068  1.00 18.53     0.047 A 
HETATM    9  C22   D T 601       4.610   7.970   3.371  1.00 19.48     0.260 A 
HETATM   10  O23   D T 601       5.545   7.195   3.658  1.00 21.52    -0.267 OA
HETATM   11  N24   D T 601       3.636   7.667   2.437  1.00 19.49    -0.301 N 
HETATM   12  C25   D T 601       3.584   6.398   1.728  1.00 20.07     0.161 C 
ENDROOT
BRANCH   1  13
HETATM   13  N13   D T 601      -0.202   8.849   0.019  1.00 20.14    -0.188 N 
HETATM   14 1H13   D T 601      -0.246   7.950  -0.159  1.00 24.16     0.184 HD
BRANCH  13  15
HETATM   15  C12   D T 601      -1.090   9.620  -0.699  1.00 24.69     0.049 A 
HETATM   16  C11   D T 601      -0.643  10.103  -1.957  1.00 26.89     0.033 A 
HETATM   17  C10   D T 601      -1.494  10.886  -2.768  1.00 28.95     0.039 A 
HETATM   18  C09   D T 601      -2.805  11.176  -2.334  1.00 30.95     0.069 A 
HETATM   19  C35   D T 601      -3.259  10.675  -1.100  1.00 28.80     0.039 A 
HETATM   20  C34   D T 601      -2.402   9.916  -0.296  1.00 26.81     0.033 A 
BRANCH  18  21
HETATM   21  O08   D T 601      -3.657  11.884  -3.109  1.00 36.09    -0.350 OA
BRANCH  21  22
HETATM   22  C07   D T 601      -4.974  12.112  -2.534  1.00 42.63     0.195 C 
BRANCH  22  23
HETATM   23  C06   D T 601      -4.969  13.478  -1.781  1.00 46.85     0.143 C 
BRANCH  23  24
HETATM   24  N03   D T 601      -5.656  13.439  -0.434  1.00 51.06    -0.411 N 
BRANCH  24  25
HETATM   25  C02   D T 601      -4.870  13.329   0.869  1.00 53.85     0.112 C 
HETATM   26  C01   D T 601      -3.419  13.910   0.928  1.00 52.69     0.026 C 
ENDBRANCH  24  25
BRANCH  24  27
HETATM   27  C04   D T 601      -7.147  13.648  -0.435  1.00 47.80     0.112 C 
HETATM   28  C05   D T 601      -7.915  13.513   0.909  1.00 44.89     0.026 C 
ENDBRANCH  24  27
ENDBRANCH  23  24
ENDBRANCH  22  23
ENDBRANCH  21  22
ENDBRANCH  18  21
ENDBRANCH  13  15
ENDBRANCH   1  13
BRANCH   8  29
HETATM   29  C26   D T 601       5.630   9.487   5.047  1.00 21.63     0.023 A 
HETATM   30  C27   D T 601       6.812  10.188   4.678  1.00 22.75     0.046 A 
HETATM   31 CL28   D T 601       7.065  10.646   3.073  1.00 22.59    -0.083 Cl
HETATM   32  C29   D T 601       7.827  10.490   5.623  1.00 24.08     0.025 A 
HETATM   33  C30   D T 601       7.648  10.131   6.977  1.00 25.63     0.003 A 
HETATM   34  C31   D T 601       6.479   9.461   7.364  1.00 25.41     0.025 A 
HETATM   35  C32   D T 601       5.481   9.141   6.410  1.00 23.77     0.046 A 
HETATM   36 CL33   D T 601       4.097   8.324   6.938  1.00 25.94    -0.083 Cl
ENDBRANCH   8  29
TORSDOF 9
ENDMDL
