MODEL 1
REMARK VINA RESULT:    -6.805      0.000      0.000
REMARK INTER + INTRA:         -11.926
REMARK INTER:                 -10.386
REMARK INTRA:                  -1.540
REMARK UNBOUND:                -1.540
REMARK  9 active torsions:
REMARK  status: ('A' for Active; 'I' for Inactive)
REMARK    1  A    between atoms: C02_2  and  N03_3 
REMARK    2  A    between atoms: N03_3  and  C04_4 
REMARK    3  A    between atoms: N03_3  and  C06_6 
REMARK    4  A    between atoms: C06_6  and  C07_7 
REMARK    5  A    between atoms: C07_7  and  O08_8 
REMARK    6  A    between atoms: O08_8  and  C09_9 
REMARK    7  A    between atoms: C12_12  and  N13_13 
REMARK    8  A    between atoms: N13_13  and  C14_14 
REMARK    9  A    between atoms: C21_21  and  C26_26 
ROOT
HETATM    1  C14   D T 601     -12.374  -6.805  -3.780  1.00 17.92     0.728 A 
HETATM    2  N15   D T 601     -12.242  -6.630  -5.110  1.00 19.07    -0.044 NA
HETATM    3  C16   D T 601     -11.069  -6.611  -5.758  1.00 18.16     0.163 A 
HETATM    4  C17   D T 601      -9.904  -6.758  -5.001  1.00 16.80     0.030 A 
HETATM    5  C18   D T 601     -10.031  -6.898  -3.618  1.00 18.08     0.151 A 
HETATM    6  N19   D T 601     -11.253  -6.918  -3.046  1.00 16.91    -0.074 NA
HETATM    7  C20   D T 601      -8.649  -6.725  -5.641  1.00 17.65     0.034 A 
HETATM    8  C21   D T 601      -8.572  -6.567  -7.034  1.00 18.53     0.047 A 
HETATM    9  C22   D T 601      -9.786  -6.419  -7.749  1.00 19.48     0.260 A 
HETATM   10  O23   D T 601      -9.652  -6.248  -8.978  1.00 21.52    -0.267 OA
HETATM   11  N24   D T 601     -11.016  -6.452  -7.121  1.00 19.49    -0.301 N 
HETATM   12  C25   D T 601     -12.276  -6.331  -7.836  1.00 20.07     0.161 C 
ENDROOT
BRANCH   1  13
HETATM   13  N13   D T 601     -13.595  -6.826  -3.224  1.00 20.14    -0.188 N 
HETATM   14 1H13   D T 601     -14.188  -6.223  -3.581  1.00 24.16     0.184 HD
BRANCH  13  15
HETATM   15  C12   D T 601     -14.104  -7.601  -2.206  1.00 24.69     0.049 A 
HETATM   16  C11   D T 601     -14.080  -7.037  -0.902  1.00 26.89     0.033 A 
HETATM   17  C10   D T 601     -14.599  -7.753   0.199  1.00 28.95     0.039 A 
HETATM   18  C09   D T 601     -15.164  -9.032   0.001  1.00 30.95     0.069 A 
HETATM   19  C35   D T 601     -15.215  -9.579  -1.295  1.00 28.80     0.039 A 
HETATM   20  C34   D T 601     -14.681  -8.870  -2.376  1.00 26.81     0.033 A 
BRANCH  18  21
HETATM   21  O08   D T 601     -15.708  -9.721   1.027  1.00 36.09    -0.350 OA
BRANCH  21  22
HETATM   22  C07   D T 601     -14.771 -10.148   2.053  1.00 42.63     0.195 C 
BRANCH  22  23
HETATM   23  C06   D T 601     -14.350 -11.626   1.773  1.00 46.85     0.143 C 
BRANCH  23  24
HETATM   24  N03   D T 601     -12.876 -11.800   1.488  1.00 51.06    -0.411 N 
BRANCH  24  25
HETATM   25  C02   D T 601     -11.864 -12.061   2.599  1.00 53.85     0.112 C 
HETATM   26  C01   D T 601     -10.467 -12.659   2.225  1.00 52.69     0.026 C 
ENDBRANCH  24  25
BRANCH  24  27
HETATM   27  C04   D T 601     -12.473 -11.834   0.037  1.00 47.80     0.112 C 
HETATM   28  C05   D T 601     -11.806 -10.571  -0.576  1.00 44.89     0.026 C 
ENDBRANCH  24  27
ENDBRANCH  23  24
ENDBRANCH  22  23
ENDBRANCH  21  22
ENDBRANCH  18  21
ENDBRANCH  13  15
ENDBRANCH   1  13
BRANCH   8  29
HETATM   29  C26   D T 601      -7.309  -6.552  -7.708  1.00 21.63     0.023 A 
HETATM   30  C27   D T 601      -6.821  -7.725  -8.347  1.00 22.75     0.046 A 
HETATM   31 CL28   D T 601      -7.703  -9.164  -8.274  1.00 22.59    -0.083 Cl
HETATM   32  C29   D T 601      -5.576  -7.744  -9.027  1.00 24.08     0.025 A 
HETATM   33  C30   D T 601      -4.813  -6.559  -9.117  1.00 25.63     0.003 A 
HETATM   34  C31   D T 601      -5.288  -5.386  -8.514  1.00 25.41     0.025 A 
HETATM   35  C32   D T 601      -6.522  -5.381  -7.816  1.00 23.77     0.046 A 
HETATM   36 CL33   D T 601      -7.036  -3.935  -7.104  1.00 25.94    -0.083 Cl
ENDBRANCH   8  29
TORSDOF 9
ENDMDL
MODEL 2
REMARK VINA RESULT:    -6.747      0.221      1.748
REMARK INTER + INTRA:         -11.838
REMARK INTER:                 -10.234
REMARK INTRA:                  -1.604
REMARK UNBOUND:                -1.540
REMARK  9 active torsions:
REMARK  status: ('A' for Active; 'I' for Inactive)
REMARK    1  A    between atoms: C02_2  and  N03_3 
REMARK    2  A    between atoms: N03_3  and  C04_4 
REMARK    3  A    between atoms: N03_3  and  C06_6 
REMARK    4  A    between atoms: C06_6  and  C07_7 
REMARK    5  A    between atoms: C07_7  and  O08_8 
REMARK    6  A    between atoms: O08_8  and  C09_9 
REMARK    7  A    between atoms: C12_12  and  N13_13 
REMARK    8  A    between atoms: N13_13  and  C14_14 
REMARK    9  A    between atoms: C21_21  and  C26_26 
ROOT
HETATM    1  C14   D T 601     -12.366  -6.824  -3.743  1.00 17.92     0.728 A 
HETATM    2  N15   D T 601     -12.224  -6.628  -5.069  1.00 19.07    -0.044 NA
HETATM    3  C16   D T 601     -11.047  -6.608  -5.708  1.00 18.16     0.163 A 
HETATM    4  C17   D T 601      -9.887  -6.776  -4.946  1.00 16.80     0.030 A 
HETATM    5  C18   D T 601     -10.026  -6.937  -3.567  1.00 18.08     0.151 A 
HETATM    6  N19   D T 601     -11.252  -6.958  -3.003  1.00 16.91    -0.074 NA
HETATM    7  C20   D T 601      -8.628  -6.741  -5.576  1.00 17.65     0.034 A 
HETATM    8  C21   D T 601      -8.540  -6.562  -6.966  1.00 18.53     0.047 A 
HETATM    9  C22   D T 601      -9.747  -6.393  -7.687  1.00 19.48     0.260 A 
HETATM   10  O23   D T 601      -9.603  -6.202  -8.913  1.00 21.52    -0.267 OA
HETATM   11  N24   D T 601     -10.982  -6.427  -7.068  1.00 19.49    -0.301 N 
HETATM   12  C25   D T 601     -12.236  -6.285  -7.791  1.00 20.07     0.161 C 
ENDROOT
BRANCH   1  13
HETATM   13  N13   D T 601     -13.592  -6.845  -3.196  1.00 20.14    -0.188 N 
HETATM   14 1H13   D T 601     -14.183  -6.244  -3.559  1.00 24.16     0.184 HD
BRANCH  13  15
HETATM   15  C12   D T 601     -14.108  -7.617  -2.179  1.00 24.69     0.049 A 
HETATM   16  C11   D T 601     -14.699  -8.853  -2.554  1.00 26.89     0.033 A 
HETATM   17  C10   D T 601     -15.236  -9.717  -1.575  1.00 28.95     0.039 A 
HETATM   18  C09   D T 601     -15.168  -9.360  -0.211  1.00 30.95     0.069 A 
HETATM   19  C35   D T 601     -14.557  -8.149   0.164  1.00 28.80     0.039 A 
HETATM   20  C34   D T 601     -14.045  -7.291  -0.815  1.00 26.81     0.033 A 
BRANCH  18  21
HETATM   21  O08   D T 601     -15.633 -10.187   0.752  1.00 36.09    -0.350 OA
BRANCH  21  22
HETATM   22  C07   D T 601     -14.830 -10.242   1.963  1.00 42.63     0.195 C 
BRANCH  22  23
HETATM   23  C06   D T 601     -14.260 -11.685   2.129  1.00 46.85     0.143 C 
BRANCH  23  24
HETATM   24  N03   D T 601     -12.839 -11.844   1.638  1.00 51.06    -0.411 N 
BRANCH  24  25
HETATM   25  C02   D T 601     -11.666 -12.007   2.600  1.00 53.85     0.112 C 
HETATM   26  C01   D T 601     -10.564 -13.069   2.275  1.00 52.69     0.026 C 
ENDBRANCH  24  25
BRANCH  24  27
HETATM   27  C04   D T 601     -12.653 -11.963   0.148  1.00 47.80     0.112 C 
HETATM   28  C05   D T 601     -11.813 -10.880  -0.583  1.00 44.89     0.026 C 
ENDBRANCH  24  27
ENDBRANCH  23  24
ENDBRANCH  22  23
ENDBRANCH  21  22
ENDBRANCH  18  21
ENDBRANCH  13  15
ENDBRANCH   1  13
BRANCH   8  29
HETATM   29  C26   D T 601      -7.272  -6.544  -7.631  1.00 21.63     0.023 A 
HETATM   30  C27   D T 601      -6.489  -5.357  -7.654  1.00 22.75     0.046 A 
HETATM   31 CL28   D T 601      -7.069  -3.940  -6.940  1.00 22.59    -0.083 Cl
HETATM   32  C29   D T 601      -5.227  -5.305  -8.301  1.00 24.08     0.025 A 
HETATM   33  C30   D T 601      -4.704  -6.472  -8.903  1.00 25.63     0.003 A 
HETATM   34  C31   D T 601      -5.450  -7.658  -8.869  1.00 25.41     0.025 A 
HETATM   35  C32   D T 601      -6.721  -7.695  -8.242  1.00 23.77     0.046 A 
HETATM   36 CL33   D T 601      -7.575  -9.156  -8.243  1.00 25.94    -0.083 Cl
ENDBRANCH   8  29
TORSDOF 9
ENDMDL
MODEL 3
REMARK VINA RESULT:    -6.664      3.657     10.037
REMARK INTER + INTRA:         -11.711
REMARK INTER:                  -9.941
REMARK INTRA:                  -1.770
REMARK UNBOUND:                -1.540
REMARK  9 active torsions:
REMARK  status: ('A' for Active; 'I' for Inactive)
REMARK    1  A    between atoms: C02_2  and  N03_3 
REMARK    2  A    between atoms: N03_3  and  C04_4 
REMARK    3  A    between atoms: N03_3  and  C06_6 
REMARK    4  A    between atoms: C06_6  and  C07_7 
REMARK    5  A    between atoms: C07_7  and  O08_8 
REMARK    6  A    between atoms: O08_8  and  C09_9 
REMARK    7  A    between atoms: C12_12  and  N13_13 
REMARK    8  A    between atoms: N13_13  and  C14_14 
REMARK    9  A    between atoms: C21_21  and  C26_26 
ROOT
HETATM    1  C14   D T 601     -11.176  -8.186  -5.412  1.00 17.92     0.728 A 
HETATM    2  N15   D T 601     -11.852  -9.315  -5.119  1.00 19.07    -0.044 NA
HETATM    3  C16   D T 601     -12.370  -9.594  -3.915  1.00 18.16     0.163 A 
HETATM    4  C17   D T 601     -12.174  -8.666  -2.889  1.00 16.80     0.030 A 
HETATM    5  C18   D T 601     -11.438  -7.515  -3.175  1.00 18.08     0.151 A 
HETATM    6  N19   D T 601     -10.961  -7.305  -4.420  1.00 16.91    -0.074 NA
HETATM    7  C20   D T 601     -12.685  -8.931  -1.603  1.00 17.65     0.034 A 
HETATM    8  C21   D T 601     -13.407 -10.110  -1.361  1.00 18.53     0.047 A 
HETATM    9  C22   D T 601     -13.571 -11.016  -2.437  1.00 19.48     0.260 A 
HETATM   10  O23   D T 601     -14.190 -12.063  -2.152  1.00 21.52    -0.267 OA
HETATM   11  N24   D T 601     -13.069 -10.756  -3.698  1.00 19.49    -0.301 N 
HETATM   12  C25   D T 601     -13.249 -11.657  -4.825  1.00 20.07     0.161 C 
ENDROOT
BRANCH   1  13
HETATM   13  N13   D T 601     -10.709  -7.988  -6.655  1.00 20.14    -0.188 N 
HETATM   14 1H13   D T 601     -11.243  -8.323  -7.322  1.00 24.16     0.184 HD
BRANCH  13  15
HETATM   15  C12   D T 601      -9.560  -7.367  -7.093  1.00 24.69     0.049 A 
HETATM   16  C11   D T 601      -9.703  -6.050  -7.606  1.00 26.89     0.033 A 
HETATM   17  C10   D T 601      -8.576  -5.331  -8.060  1.00 28.95     0.039 A 
HETATM   18  C09   D T 601      -7.294  -5.917  -7.987  1.00 30.95     0.069 A 
HETATM   19  C35   D T 601      -7.147  -7.210  -7.453  1.00 28.80     0.039 A 
HETATM   20  C34   D T 601      -8.272  -7.922  -7.023  1.00 26.81     0.033 A 
BRANCH  18  21
HETATM   21  O08   D T 601      -6.192  -5.236  -8.372  1.00 36.09    -0.350 OA
BRANCH  21  22
HETATM   22  C07   D T 601      -5.168  -5.086  -7.351  1.00 42.63     0.195 C 
BRANCH  22  23
HETATM   23  C06   D T 601      -5.626  -3.997  -6.329  1.00 46.85     0.143 C 
BRANCH  23  24
HETATM   24  N03   D T 601      -5.387  -4.373  -4.885  1.00 51.06    -0.411 N 
BRANCH  24  25
HETATM   25  C02   D T 601      -4.471  -3.556  -3.979  1.00 53.85     0.112 C 
HETATM   26  C01   D T 601      -4.581  -3.739  -2.429  1.00 52.69     0.026 C 
ENDBRANCH  24  25
BRANCH  24  27
HETATM   27  C04   D T 601      -6.202  -5.519  -4.346  1.00 47.80     0.112 C 
HETATM   28  C05   D T 601      -7.743  -5.345  -4.236  1.00 44.89     0.026 C 
ENDBRANCH  24  27
ENDBRANCH  23  24
ENDBRANCH  22  23
ENDBRANCH  21  22
ENDBRANCH  18  21
ENDBRANCH  13  15
ENDBRANCH   1  13
BRANCH   8  29
HETATM   29  C26   D T 601     -13.954 -10.391  -0.068  1.00 21.63     0.023 A 
HETATM   30  C27   D T 601     -13.154 -11.012   0.931  1.00 22.75     0.046 A 
HETATM   31 CL28   D T 601     -11.565 -11.470   0.587  1.00 22.59    -0.083 Cl
HETATM   32  C29   D T 601     -13.663 -11.301   2.224  1.00 24.08     0.025 A 
HETATM   33  C30   D T 601     -14.985 -10.926   2.553  1.00 25.63     0.003 A 
HETATM   34  C31   D T 601     -15.781 -10.292   1.589  1.00 25.41     0.025 A 
HETATM   35  C32   D T 601     -15.273 -10.028   0.292  1.00 23.77     0.046 A 
HETATM   36 CL33   D T 601     -16.287  -9.267  -0.828  1.00 25.94    -0.083 Cl
ENDBRANCH   8  29
TORSDOF 9
ENDMDL
MODEL 4
REMARK VINA RESULT:    -6.634      3.268      9.900
REMARK INTER + INTRA:         -11.664
REMARK INTER:                  -9.685
REMARK INTRA:                  -1.980
REMARK UNBOUND:                -1.540
REMARK  9 active torsions:
REMARK  status: ('A' for Active; 'I' for Inactive)
REMARK    1  A    between atoms: C02_2  and  N03_3 
REMARK    2  A    between atoms: N03_3  and  C04_4 
REMARK    3  A    between atoms: N03_3  and  C06_6 
REMARK    4  A    between atoms: C06_6  and  C07_7 
REMARK    5  A    between atoms: C07_7  and  O08_8 
REMARK    6  A    between atoms: O08_8  and  C09_9 
REMARK    7  A    between atoms: C12_12  and  N13_13 
REMARK    8  A    between atoms: N13_13  and  C14_14 
REMARK    9  A    between atoms: C21_21  and  C26_26 
ROOT
HETATM    1  C14   D T 601     -11.487  -8.990  -6.977  1.00 17.92     0.728 A 
HETATM    2  N15   D T 601     -11.479  -8.237  -5.858  1.00 19.07    -0.044 NA
HETATM    3  C16   D T 601     -11.833  -8.683  -4.645  1.00 18.16     0.163 A 
HETATM    4  C17   D T 601     -12.265 -10.008  -4.537  1.00 16.80     0.030 A 
HETATM    5  C18   D T 601     -12.316 -10.779  -5.699  1.00 18.08     0.151 A 
HETATM    6  N19   D T 601     -11.929 -10.255  -6.881  1.00 16.91    -0.074 NA
HETATM    7  C20   D T 601     -12.665 -10.510  -3.284  1.00 17.65     0.034 A 
HETATM    8  C21   D T 601     -12.609  -9.690  -2.145  1.00 18.53     0.047 A 
HETATM    9  C22   D T 601     -12.167  -8.355  -2.315  1.00 19.48     0.260 A 
HETATM   10  O23   D T 601     -12.173  -7.665  -1.274  1.00 21.52    -0.267 OA
HETATM   11  N24   D T 601     -11.775  -7.863  -3.545  1.00 19.49    -0.301 N 
HETATM   12  C25   D T 601     -11.290  -6.506  -3.739  1.00 20.07     0.161 C 
ENDROOT
BRANCH   1  13
HETATM   13  N13   D T 601     -11.097  -8.457  -8.146  1.00 20.14    -0.188 N 
HETATM   14 1H13   D T 601     -11.759  -8.398  -8.779  1.00 24.16     0.184 HD
BRANCH  13  15
HETATM   15  C12   D T 601      -9.868  -7.986  -8.551  1.00 24.69     0.049 A 
HETATM   16  C11   D T 601      -9.812  -6.633  -8.978  1.00 26.89     0.033 A 
HETATM   17  C10   D T 601      -8.590  -6.061  -9.392  1.00 28.95     0.039 A 
HETATM   18  C09   D T 601      -7.409  -6.834  -9.366  1.00 30.95     0.069 A 
HETATM   19  C35   D T 601      -7.458  -8.166  -8.916  1.00 28.80     0.039 A 
HETATM   20  C34   D T 601      -8.677  -8.730  -8.525  1.00 26.81     0.033 A 
BRANCH  18  21
HETATM   21  O08   D T 601      -6.217  -6.301  -9.714  1.00 36.09    -0.350 OA
BRANCH  21  22
HETATM   22  C07   D T 601      -5.930  -4.997  -9.139  1.00 42.63     0.195 C 
BRANCH  22  23
HETATM   23  C06   D T 601      -5.325  -5.194  -7.713  1.00 46.85     0.143 C 
BRANCH  23  24
HETATM   24  N03   D T 601      -6.304  -4.936  -6.590  1.00 51.06    -0.411 N 
BRANCH  24  25
HETATM   25  C02   D T 601      -7.011  -3.594  -6.427  1.00 53.85     0.112 C 
HETATM   26  C01   D T 601      -6.804  -2.788  -5.102  1.00 52.69     0.026 C 
ENDBRANCH  24  25
BRANCH  24  27
HETATM   27  C04   D T 601      -6.648  -6.114  -5.717  1.00 47.80     0.112 C 
HETATM   28  C05   D T 601      -8.141  -6.518  -5.570  1.00 44.89     0.026 C 
ENDBRANCH  24  27
ENDBRANCH  23  24
ENDBRANCH  22  23
ENDBRANCH  21  22
ENDBRANCH  18  21
ENDBRANCH  13  15
ENDBRANCH   1  13
BRANCH   8  29
HETATM   29  C26   D T 601     -12.991 -10.184  -0.857  1.00 21.63     0.023 A 
HETATM   30  C27   D T 601     -14.327 -10.027  -0.394  1.00 22.75     0.046 A 
HETATM   31 CL28   D T 601     -15.465  -9.210  -1.338  1.00 22.59    -0.083 Cl
HETATM   32  C29   D T 601     -14.741 -10.508   0.875  1.00 24.08     0.025 A 
HETATM   33  C30   D T 601     -13.820 -11.203   1.691  1.00 25.63     0.003 A 
HETATM   34  C31   D T 601     -12.505 -11.389   1.242  1.00 25.41     0.025 A 
HETATM   35  C32   D T 601     -12.093 -10.885  -0.017  1.00 23.77     0.046 A 
HETATM   36 CL33   D T 601     -10.491 -11.136  -0.498  1.00 25.94    -0.083 Cl
ENDBRANCH   8  29
TORSDOF 9
ENDMDL
MODEL 5
REMARK VINA RESULT:    -6.601      1.166      1.681
REMARK INTER + INTRA:         -11.615
REMARK INTER:                  -9.685
REMARK INTRA:                  -1.930
REMARK UNBOUND:                -1.540
REMARK  9 active torsions:
REMARK  status: ('A' for Active; 'I' for Inactive)
REMARK    1  A    between atoms: C02_2  and  N03_3 
REMARK    2  A    between atoms: N03_3  and  C04_4 
REMARK    3  A    between atoms: N03_3  and  C06_6 
REMARK    4  A    between atoms: C06_6  and  C07_7 
REMARK    5  A    between atoms: C07_7  and  O08_8 
REMARK    6  A    between atoms: O08_8  and  C09_9 
REMARK    7  A    between atoms: C12_12  and  N13_13 
REMARK    8  A    between atoms: N13_13  and  C14_14 
REMARK    9  A    between atoms: C21_21  and  C26_26 
ROOT
HETATM    1  C14   D T 601     -12.058  -6.469  -3.929  1.00 17.92     0.728 A 
HETATM    2  N15   D T 601     -12.096  -6.431  -5.276  1.00 19.07    -0.044 NA
HETATM    3  C16   D T 601     -11.024  -6.577  -6.067  1.00 18.16     0.163 A 
HETATM    4  C17   D T 601      -9.780  -6.755  -5.455  1.00 16.80     0.030 A 
HETATM    5  C18   D T 601      -9.729  -6.753  -4.060  1.00 18.08     0.151 A 
HETATM    6  N19   D T 601     -10.859  -6.612  -3.337  1.00 16.91    -0.074 NA
HETATM    7  C20   D T 601      -8.626  -6.893  -6.250  1.00 17.65     0.034 A 
HETATM    8  C21   D T 601      -8.727  -6.874  -7.650  1.00 18.53     0.047 A 
HETATM    9  C22   D T 601     -10.013  -6.687  -8.215  1.00 19.48     0.260 A 
HETATM   10  O23   D T 601     -10.035  -6.644  -9.463  1.00 21.52    -0.267 OA
HETATM   11  N24   D T 601     -11.145  -6.552  -7.435  1.00 19.49    -0.301 N 
HETATM   12  C25   D T 601     -12.478  -6.388  -7.992  1.00 20.07     0.161 C 
ENDROOT
BRANCH   1  13
HETATM   13  N13   D T 601     -13.190  -6.330  -3.222  1.00 20.14    -0.188 N 
HETATM   14 1H13   D T 601     -13.655  -5.557  -3.393  1.00 24.16     0.184 HD
BRANCH  13  15
HETATM   15  C12   D T 601     -13.768  -7.153  -2.282  1.00 24.69     0.049 A 
HETATM   16  C11   D T 601     -14.354  -8.355  -2.761  1.00 26.89     0.033 A 
HETATM   17  C10   D T 601     -14.952  -9.268  -1.865  1.00 28.95     0.039 A 
HETATM   18  C09   D T 601     -14.952  -8.994  -0.480  1.00 30.95     0.069 A 
HETATM   19  C35   D T 601     -14.346  -7.818  -0.002  1.00 28.80     0.039 A 
HETATM   20  C34   D T 601     -13.772  -6.911  -0.899  1.00 26.81     0.033 A 
BRANCH  18  21
HETATM   21  O08   D T 601     -15.477  -9.870   0.405  1.00 36.09    -0.350 OA
BRANCH  21  22
HETATM   22  C07   D T 601     -15.099 -11.259   0.201  1.00 42.63     0.195 C 
BRANCH  22  23
HETATM   23  C06   D T 601     -13.611 -11.449   0.635  1.00 46.85     0.143 C 
BRANCH  23  24
HETATM   24  N03   D T 601     -12.664 -11.705  -0.515  1.00 51.06    -0.411 N 
BRANCH  24  25
HETATM   25  C02   D T 601     -11.294 -11.039  -0.596  1.00 53.85     0.112 C 
HETATM   26  C01   D T 601     -11.166  -9.661  -1.326  1.00 52.69     0.026 C 
ENDBRANCH  24  25
BRANCH  24  27
HETATM   27  C04   D T 601     -13.086 -12.753  -1.510  1.00 47.80     0.112 C 
HETATM   28  C05   D T 601     -13.072 -12.388  -3.021  1.00 44.89     0.026 C 
ENDBRANCH  24  27
ENDBRANCH  23  24
ENDBRANCH  22  23
ENDBRANCH  21  22
ENDBRANCH  18  21
ENDBRANCH  13  15
ENDBRANCH   1  13
BRANCH   8  29
HETATM   29  C26   D T 601      -7.571  -7.034  -8.478  1.00 21.63     0.023 A 
HETATM   30  C27   D T 601      -7.247  -8.307  -9.023  1.00 22.75     0.046 A 
HETATM   31 CL28   D T 601      -8.196  -9.656  -8.658  1.00 22.59    -0.083 Cl
HETATM   32  C29   D T 601      -6.110  -8.500  -9.851  1.00 24.08     0.025 A 
HETATM   33  C30   D T 601      -5.297  -7.395 -10.186  1.00 25.63     0.003 A 
HETATM   34  C31   D T 601      -5.613  -6.127  -9.678  1.00 25.41     0.025 A 
HETATM   35  C32   D T 601      -6.737  -5.947  -8.832  1.00 23.77     0.046 A 
HETATM   36 CL33   D T 601      -7.060  -4.394  -8.246  1.00 25.94    -0.083 Cl
ENDBRANCH   8  29
TORSDOF 9
ENDMDL
MODEL 6
REMARK VINA RESULT:    -6.501      3.028      4.714
REMARK INTER + INTRA:         -11.461
REMARK INTER:                 -10.541
REMARK INTRA:                  -0.920
REMARK UNBOUND:                -1.540
REMARK  9 active torsions:
REMARK  status: ('A' for Active; 'I' for Inactive)
REMARK    1  A    between atoms: C02_2  and  N03_3 
REMARK    2  A    between atoms: N03_3  and  C04_4 
REMARK    3  A    between atoms: N03_3  and  C06_6 
REMARK    4  A    between atoms: C06_6  and  C07_7 
REMARK    5  A    between atoms: C07_7  and  O08_8 
REMARK    6  A    between atoms: O08_8  and  C09_9 
REMARK    7  A    between atoms: C12_12  and  N13_13 
REMARK    8  A    between atoms: N13_13  and  C14_14 
REMARK    9  A    between atoms: C21_21  and  C26_26 
ROOT
HETATM    1  C14   D T 601     -12.430  -9.486  -1.842  1.00 17.92     0.728 A 
HETATM    2  N15   D T 601     -11.268  -9.727  -2.482  1.00 19.07    -0.044 NA
HETATM    3  C16   D T 601     -10.619  -8.828  -3.234  1.00 18.16     0.163 A 
HETATM    4  C17   D T 601     -11.197  -7.565  -3.386  1.00 16.80     0.030 A 
HETATM    5  C18   D T 601     -12.421  -7.323  -2.761  1.00 18.08     0.151 A 
HETATM    6  N19   D T 601     -13.003  -8.282  -2.010  1.00 16.91    -0.074 NA
HETATM    7  C20   D T 601     -10.557  -6.598  -4.185  1.00 17.65     0.034 A 
HETATM    8  C21   D T 601      -9.333  -6.894  -4.806  1.00 18.53     0.047 A 
HETATM    9  C22   D T 601      -8.796  -8.191  -4.620  1.00 19.48     0.260 A 
HETATM   10  O23   D T 601      -7.725  -8.407  -5.225  1.00 21.52    -0.267 OA
HETATM   11  N24   D T 601      -9.424  -9.140  -3.836  1.00 19.49    -0.301 N 
HETATM   12  C25   D T 601      -8.879 -10.468  -3.607  1.00 20.07     0.161 C 
ENDROOT
BRANCH   1  13
HETATM   13  N13   D T 601     -12.997 -10.447  -1.096  1.00 20.14    -0.188 N 
HETATM   14 1H13   D T 601     -13.789 -10.771  -1.427  1.00 24.16     0.184 HD
BRANCH  13  15
HETATM   15  C12   D T 601     -12.586 -11.026   0.084  1.00 24.69     0.049 A 
HETATM   16  C11   D T 601     -11.332 -11.693   0.065  1.00 26.89     0.033 A 
HETATM   17  C10   D T 601     -10.824 -12.298   1.235  1.00 28.95     0.039 A 
HETATM   18  C09   D T 601     -11.558 -12.226   2.438  1.00 30.95     0.069 A 
HETATM   19  C35   D T 601     -12.787 -11.541   2.465  1.00 28.80     0.039 A 
HETATM   20  C34   D T 601     -13.291 -10.961   1.297  1.00 26.81     0.033 A 
BRANCH  18  21
HETATM   21  O08   D T 601     -11.076 -12.757   3.583  1.00 36.09    -0.350 OA
BRANCH  21  22
HETATM   22  C07   D T 601      -9.983 -13.701   3.416  1.00 42.63     0.195 C 
BRANCH  22  23
HETATM   23  C06   D T 601      -9.224 -13.844   4.773  1.00 46.85     0.143 C 
BRANCH  23  24
HETATM   24  N03   D T 601      -7.881 -13.149   4.802  1.00 51.06    -0.411 N 
BRANCH  24  25
HETATM   25  C02   D T 601      -6.570 -13.925   4.736  1.00 53.85     0.112 C 
HETATM   26  C01   D T 601      -5.832 -14.277   6.071  1.00 52.69     0.026 C 
ENDBRANCH  24  25
BRANCH  24  27
HETATM   27  C04   D T 601      -7.904 -11.644   4.766  1.00 47.80     0.112 C 
HETATM   28  C05   D T 601      -6.709 -10.870   5.389  1.00 44.89     0.026 C 
ENDBRANCH  24  27
ENDBRANCH  23  24
ENDBRANCH  22  23
ENDBRANCH  21  22
ENDBRANCH  18  21
ENDBRANCH  13  15
ENDBRANCH   1  13
BRANCH   8  29
HETATM   29  C26   D T 601      -8.653  -5.920  -5.605  1.00 21.63     0.023 A 
HETATM   30  C27   D T 601      -8.894  -5.844  -7.005  1.00 22.75     0.046 A 
HETATM   31 CL28   D T 601      -9.946  -6.936  -7.748  1.00 22.59    -0.083 Cl
HETATM   32  C29   D T 601      -8.240  -4.889  -7.826  1.00 24.08     0.025 A 
HETATM   33  C30   D T 601      -7.358  -3.953  -7.240  1.00 25.63     0.003 A 
HETATM   34  C31   D T 601      -7.127  -3.996  -5.858  1.00 25.41     0.025 A 
HETATM   35  C32   D T 601      -7.765  -4.969  -5.049  1.00 23.77     0.046 A 
HETATM   36 CL33   D T 601      -7.437  -4.973  -3.389  1.00 25.94    -0.083 Cl
ENDBRANCH   8  29
TORSDOF 9
ENDMDL
MODEL 7
REMARK VINA RESULT:    -6.456      2.977      4.781
REMARK INTER + INTRA:         -11.393
REMARK INTER:                 -10.308
REMARK INTRA:                  -1.085
REMARK UNBOUND:                -1.540
REMARK  9 active torsions:
REMARK  status: ('A' for Active; 'I' for Inactive)
REMARK    1  A    between atoms: C02_2  and  N03_3 
REMARK    2  A    between atoms: N03_3  and  C04_4 
REMARK    3  A    between atoms: N03_3  and  C06_6 
REMARK    4  A    between atoms: C06_6  and  C07_7 
REMARK    5  A    between atoms: C07_7  and  O08_8 
REMARK    6  A    between atoms: O08_8  and  C09_9 
REMARK    7  A    between atoms: C12_12  and  N13_13 
REMARK    8  A    between atoms: N13_13  and  C14_14 
REMARK    9  A    between atoms: C21_21  and  C26_26 
ROOT
HETATM    1  C14   D T 601     -12.352  -9.502  -1.801  1.00 17.92     0.728 A 
HETATM    2  N15   D T 601     -11.206  -9.735  -2.471  1.00 19.07    -0.044 NA
HETATM    3  C16   D T 601     -10.585  -8.833  -3.244  1.00 18.16     0.163 A 
HETATM    4  C17   D T 601     -11.179  -7.576  -3.385  1.00 16.80     0.030 A 
HETATM    5  C18   D T 601     -12.388  -7.343  -2.728  1.00 18.08     0.151 A 
HETATM    6  N19   D T 601     -12.940  -8.304  -1.958  1.00 16.91    -0.074 NA
HETATM    7  C20   D T 601     -10.569  -6.606  -4.204  1.00 17.65     0.034 A 
HETATM    8  C21   D T 601      -9.360  -6.893  -4.857  1.00 18.53     0.047 A 
HETATM    9  C22   D T 601      -8.806  -8.185  -4.680  1.00 19.48     0.260 A 
HETATM   10  O23   D T 601      -7.749  -8.393  -5.312  1.00 21.52    -0.267 OA
HETATM   11  N24   D T 601      -9.404  -9.136  -3.876  1.00 19.49    -0.301 N 
HETATM   12  C25   D T 601      -8.840 -10.459  -3.657  1.00 20.07     0.161 C 
ENDROOT
BRANCH   1  13
HETATM   13  N13   D T 601     -12.890 -10.465  -1.037  1.00 20.14    -0.188 N 
HETATM   14 1H13   D T 601     -13.695 -10.787  -1.337  1.00 24.16     0.184 HD
BRANCH  13  15
HETATM   15  C12   D T 601     -12.433 -11.049   0.124  1.00 24.69     0.049 A 
HETATM   16  C11   D T 601     -13.280 -10.956   1.260  1.00 26.89     0.033 A 
HETATM   17  C10   D T 601     -12.901 -11.543   2.487  1.00 28.95     0.039 A 
HETATM   18  C09   D T 601     -11.679 -12.243   2.582  1.00 30.95     0.069 A 
HETATM   19  C35   D T 601     -10.852 -12.360   1.450  1.00 28.80     0.039 A 
HETATM   20  C34   D T 601     -11.228 -11.760   0.243  1.00 26.81     0.033 A 
BRANCH  18  21
HETATM   21  O08   D T 601     -11.310 -12.852   3.731  1.00 36.09    -0.350 OA
BRANCH  21  22
HETATM   22  C07   D T 601     -10.357 -13.939   3.577  1.00 42.63     0.195 C 
BRANCH  22  23
HETATM   23  C06   D T 601      -9.546 -14.095   4.903  1.00 46.85     0.143 C 
BRANCH  23  24
HETATM   24  N03   D T 601      -8.063 -13.848   4.747  1.00 51.06    -0.411 N 
BRANCH  24  25
HETATM   25  C02   D T 601      -7.022 -14.839   5.257  1.00 53.85     0.112 C 
HETATM   26  C01   D T 601      -5.800 -14.300   6.071  1.00 52.69     0.026 C 
ENDBRANCH  24  25
BRANCH  24  27
HETATM   27  C04   D T 601      -7.665 -12.636   3.947  1.00 47.80     0.112 C 
HETATM   28  C05   D T 601      -7.356 -11.315   4.706  1.00 44.89     0.026 C 
ENDBRANCH  24  27
ENDBRANCH  23  24
ENDBRANCH  22  23
ENDBRANCH  21  22
ENDBRANCH  18  21
ENDBRANCH  13  15
ENDBRANCH   1  13
BRANCH   8  29
HETATM   29  C26   D T 601      -8.711  -5.916  -5.677  1.00 21.63     0.023 A 
HETATM   30  C27   D T 601      -7.798  -4.988  -5.104  1.00 22.75     0.046 A 
HETATM   31 CL28   D T 601      -7.508  -4.996  -3.440  1.00 22.59    -0.083 Cl
HETATM   32  C29   D T 601      -7.135  -4.009  -5.888  1.00 24.08     0.025 A 
HETATM   33  C30   D T 601      -7.345  -3.974  -7.285  1.00 25.63     0.003 A 
HETATM   34  C31   D T 601      -8.223  -4.896  -7.872  1.00 25.41     0.025 A 
HETATM   35  C32   D T 601      -8.900  -5.856  -7.078  1.00 23.77     0.046 A 
HETATM   36 CL33   D T 601      -9.951  -6.936  -7.846  1.00 25.94    -0.083 Cl
ENDBRANCH   8  29
TORSDOF 9
ENDMDL
MODEL 8
REMARK VINA RESULT:    -6.266      2.726      4.368
REMARK INTER + INTRA:         -11.102
REMARK INTER:                  -9.760
REMARK INTRA:                  -1.343
REMARK UNBOUND:                -1.540
REMARK  9 active torsions:
REMARK  status: ('A' for Active; 'I' for Inactive)
REMARK    1  A    between atoms: C02_2  and  N03_3 
REMARK    2  A    between atoms: N03_3  and  C04_4 
REMARK    3  A    between atoms: N03_3  and  C06_6 
REMARK    4  A    between atoms: C06_6  and  C07_7 
REMARK    5  A    between atoms: C07_7  and  O08_8 
REMARK    6  A    between atoms: O08_8  and  C09_9 
REMARK    7  A    between atoms: C12_12  and  N13_13 
REMARK    8  A    between atoms: N13_13  and  C14_14 
REMARK    9  A    between atoms: C21_21  and  C26_26 
ROOT
HETATM    1  C14   D T 601     -13.736  -9.252  -1.766  1.00 17.92     0.728 A 
HETATM    2  N15   D T 601     -12.537  -9.621  -2.261  1.00 19.07    -0.044 NA
HETATM    3  C16   D T 601     -11.683  -8.788  -2.871  1.00 18.16     0.163 A 
HETATM    4  C17   D T 601     -12.070  -7.455  -3.027  1.00 16.80     0.030 A 
HETATM    5  C18   D T 601     -13.328  -7.076  -2.554  1.00 18.08     0.151 A 
HETATM    6  N19   D T 601     -14.123  -7.977  -1.940  1.00 16.91    -0.074 NA
HETATM    7  C20   D T 601     -11.209  -6.551  -3.680  1.00 17.65     0.034 A 
HETATM    8  C21   D T 601      -9.959  -6.983  -4.151  1.00 18.53     0.047 A 
HETATM    9  C22   D T 601      -9.621  -8.347  -3.968  1.00 19.48     0.260 A 
HETATM   10  O23   D T 601      -8.513  -8.680  -4.439  1.00 21.52    -0.267 OA
HETATM   11  N24   D T 601     -10.466  -9.233  -3.328  1.00 19.49    -0.301 N 
HETATM   12  C25   D T 601     -10.129 -10.629  -3.103  1.00 20.07     0.161 C 
ENDROOT
BRANCH   1  13
HETATM   13  N13   D T 601     -14.516 -10.157  -1.155  1.00 20.14    -0.188 N 
HETATM   14 1H13   D T 601     -15.305 -10.337  -1.589  1.00 24.16     0.184 HD
BRANCH  13  15
HETATM   15  C12   D T 601     -14.329 -10.859   0.015  1.00 24.69     0.049 A 
HETATM   16  C11   D T 601     -15.277 -10.638   1.050  1.00 26.89     0.033 A 
HETATM   17  C10   D T 601     -15.174 -11.330   2.276  1.00 28.95     0.039 A 
HETATM   18  C09   D T 601     -14.132 -12.262   2.471  1.00 30.95     0.069 A 
HETATM   19  C35   D T 601     -13.209 -12.503   1.436  1.00 28.80     0.039 A 
HETATM   20  C34   D T 601     -13.309 -11.799   0.231  1.00 26.81     0.033 A 
BRANCH  18  21
HETATM   21  O08   D T 601     -14.034 -12.971   3.617  1.00 36.09    -0.350 OA
BRANCH  21  22
HETATM   22  C07   D T 601     -13.065 -14.055   3.594  1.00 42.63     0.195 C 
BRANCH  22  23
HETATM   23  C06   D T 601     -12.255 -14.040   4.929  1.00 46.85     0.143 C 
BRANCH  23  24
HETATM   24  N03   D T 601     -10.801 -13.662   4.760  1.00 51.06    -0.411 N 
BRANCH  24  25
HETATM   25  C02   D T 601     -10.363 -12.534   3.831  1.00 53.85     0.112 C 
HETATM   26  C01   D T 601      -9.666 -12.895   2.478  1.00 52.69     0.026 C 
ENDBRANCH  24  25
BRANCH  24  27
HETATM   27  C04   D T 601      -9.817 -14.369   5.653  1.00 47.80     0.112 C 
HETATM   28  C05   D T 601      -9.548 -15.881   5.411  1.00 44.89     0.026 C 
ENDBRANCH  24  27
ENDBRANCH  23  24
ENDBRANCH  22  23
ENDBRANCH  21  22
ENDBRANCH  18  21
ENDBRANCH  13  15
ENDBRANCH   1  13
BRANCH   8  29
HETATM   29  C26   D T 601      -9.059  -6.078  -4.799  1.00 21.63     0.023 A 
HETATM   30  C27   D T 601      -9.107  -5.905  -6.210  1.00 22.75     0.046 A 
HETATM   31 CL28   D T 601     -10.193  -6.801  -7.142  1.00 22.59    -0.083 Cl
HETATM   32  C29   D T 601      -8.232  -5.013  -6.885  1.00 24.08     0.025 A 
HETATM   33  C30   D T 601      -7.315  -4.240  -6.139  1.00 25.63     0.003 A 
HETATM   34  C31   D T 601      -7.269  -4.380  -4.745  1.00 25.41     0.025 A 
HETATM   35  C32   D T 601      -8.130  -5.290  -4.081  1.00 23.77     0.046 A 
HETATM   36 CL33   D T 601      -8.020  -5.417  -2.398  1.00 25.94    -0.083 Cl
ENDBRANCH   8  29
TORSDOF 9
ENDMDL
MODEL 9
REMARK VINA RESULT:    -6.258     20.207     23.181
REMARK INTER + INTRA:         -11.090
REMARK INTER:                  -9.581
REMARK INTRA:                  -1.509
REMARK UNBOUND:                -1.540
REMARK  9 active torsions:
REMARK  status: ('A' for Active; 'I' for Inactive)
REMARK    1  A    between atoms: C02_2  and  N03_3 
REMARK    2  A    between atoms: N03_3  and  C04_4 
REMARK    3  A    between atoms: N03_3  and  C06_6 
REMARK    4  A    between atoms: C06_6  and  C07_7 
REMARK    5  A    between atoms: C07_7  and  O08_8 
REMARK    6  A    between atoms: O08_8  and  C09_9 
REMARK    7  A    between atoms: C12_12  and  N13_13 
REMARK    8  A    between atoms: N13_13  and  C14_14 
REMARK    9  A    between atoms: C21_21  and  C26_26 
ROOT
HETATM    1  C14   D T 601       0.854 -10.015  15.187  1.00 17.92     0.728 A 
HETATM    2  N15   D T 601       1.878  -9.783  16.033  1.00 19.07    -0.044 NA
HETATM    3  C16   D T 601       3.069  -9.294  15.663  1.00 18.16     0.163 A 
HETATM    4  C17   D T 601       3.273  -9.031  14.305  1.00 16.80     0.030 A 
HETATM    5  C18   D T 601       2.232  -9.309  13.419  1.00 18.08     0.151 A 
HETATM    6  N19   D T 601       1.057  -9.790  13.878  1.00 16.91    -0.074 NA
HETATM    7  C20   D T 601       4.518  -8.535  13.871  1.00 17.65     0.034 A 
HETATM    8  C21   D T 601       5.540  -8.285  14.800  1.00 18.53     0.047 A 
HETATM    9  C22   D T 601       5.278  -8.573  16.162  1.00 19.48     0.260 A 
HETATM   10  O23   D T 601       6.236  -8.364  16.936  1.00 21.52    -0.267 OA
HETATM   11  N24   D T 601       4.057  -9.060  16.587  1.00 19.49    -0.301 N 
HETATM   12  C25   D T 601       3.755  -9.337  17.983  1.00 20.07     0.161 C 
ENDROOT
BRANCH   1  13
HETATM   13  N13   D T 601      -0.309 -10.491  15.657  1.00 20.14    -0.188 N 
HETATM   14 1H13   D T 601      -0.639 -10.044  16.387  1.00 24.16     0.184 HD
BRANCH  13  15
HETATM   15  C12   D T 601      -1.089 -11.541  15.225  1.00 24.69     0.049 A 
HETATM   16  C11   D T 601      -0.841 -12.807  15.820  1.00 26.89     0.033 A 
HETATM   17  C10   D T 601      -1.607 -13.935  15.452  1.00 28.95     0.039 A 
HETATM   18  C09   D T 601      -2.638 -13.801  14.498  1.00 30.95     0.069 A 
HETATM   19  C35   D T 601      -2.903 -12.542  13.928  1.00 28.80     0.039 A 
HETATM   20  C34   D T 601      -2.127 -11.435  14.286  1.00 26.81     0.033 A 
BRANCH  18  21
HETATM   21  O08   D T 601      -3.416 -14.853  14.158  1.00 36.09    -0.350 OA
BRANCH  21  22
HETATM   22  C07   D T 601      -4.766 -14.515  13.739  1.00 42.63     0.195 C 
BRANCH  22  23
HETATM   23  C06   D T 601      -5.714 -14.583  14.978  1.00 46.85     0.143 C 
BRANCH  23  24
HETATM   24  N03   D T 601      -6.548 -13.339  15.181  1.00 51.06    -0.411 N 
BRANCH  24  25
HETATM   25  C02   D T 601      -6.069 -12.179  16.048  1.00 53.85     0.112 C 
HETATM   26  C01   D T 601      -4.898 -12.423  17.058  1.00 52.69     0.026 C 
ENDBRANCH  24  25
BRANCH  24  27
HETATM   27  C04   D T 601      -7.819 -13.244  14.380  1.00 47.80     0.112 C 
HETATM   28  C05   D T 601      -8.735 -12.006  14.585  1.00 44.89     0.026 C 
ENDBRANCH  24  27
ENDBRANCH  23  24
ENDBRANCH  22  23
ENDBRANCH  21  22
ENDBRANCH  18  21
ENDBRANCH  13  15
ENDBRANCH   1  13
BRANCH   8  29
HETATM   29  C26   D T 601       6.806  -7.761  14.385  1.00 21.63     0.023 A 
HETATM   30  C27   D T 601       7.877  -8.640  14.063  1.00 22.75     0.046 A 
HETATM   31 CL28   D T 601       7.682 -10.310  14.216  1.00 22.59    -0.083 Cl
HETATM   32  C29   D T 601       9.143  -8.155  13.645  1.00 24.08     0.025 A 
HETATM   33  C30   D T 601       9.343  -6.764  13.498  1.00 25.63     0.003 A 
HETATM   34  C31   D T 601       8.292  -5.883  13.787  1.00 25.41     0.025 A 
HETATM   35  C32   D T 601       7.037  -6.374  14.228  1.00 23.77     0.046 A 
HETATM   36 CL33   D T 601       5.812  -5.258  14.568  1.00 25.94    -0.083 Cl
ENDBRANCH   8  29
TORSDOF 9
ENDMDL
