MODEL 1
REMARK VINA RESULT:    -7.075      0.000      0.000
REMARK INTER + INTRA:         -11.798
REMARK INTER:                 -10.797
REMARK INTRA:                  -1.001
REMARK UNBOUND:                -1.001
REMARK  9 active torsions:
REMARK  status: ('A' for Active; 'I' for Inactive)
REMARK    1  A    between atoms: C02_2  and  N03_3 
REMARK    2  A    between atoms: N03_3  and  C04_4 
REMARK    3  A    between atoms: N03_3  and  C06_6 
REMARK    4  A    between atoms: C06_6  and  C07_7 
REMARK    5  A    between atoms: C07_7  and  O08_8 
REMARK    6  A    between atoms: O08_8  and  C09_9 
REMARK    7  A    between atoms: C12_12  and  N13_13 
REMARK    8  A    between atoms: N13_13  and  C14_14 
REMARK    9  A    between atoms: C21_21  and  C26_26 
ROOT
HETATM    1  C14   D T 601       2.438   9.490   6.580  1.00 17.92     0.728 A 
HETATM    2  N15   D T 601       2.560  10.553   5.760  1.00 19.07    -0.044 NA
HETATM    3  C16   D T 601       3.599  11.399   5.767  1.00 18.16     0.163 A 
HETATM    4  C17   D T 601       4.612  11.179   6.704  1.00 16.80     0.030 A 
HETATM    5  C18   D T 601       4.472  10.106   7.585  1.00 18.08     0.151 A 
HETATM    6  N19   D T 601       3.397   9.293   7.501  1.00 16.91    -0.074 NA
HETATM    7  C20   D T 601       5.713  12.057   6.758  1.00 17.65     0.034 A 
HETATM    8  C21   D T 601       5.802  13.132   5.860  1.00 18.53     0.047 A 
HETATM    9  C22   D T 601       4.744  13.308   4.934  1.00 19.48     0.260 A 
HETATM   10  O23   D T 601       4.863  14.300   4.186  1.00 21.52    -0.267 OA
HETATM   11  N24   D T 601       3.666  12.446   4.882  1.00 19.49    -0.301 N 
HETATM   12  C25   D T 601       2.582  12.589   3.923  1.00 20.07     0.161 C 
ENDROOT
BRANCH   1  13
HETATM   13  N13   D T 601       1.366   8.688   6.486  1.00 20.14    -0.188 N 
HETATM   14 1H13   D T 601       1.197   8.371   5.642  1.00 24.16     0.184 HD
BRANCH  13  15
HETATM   15  C12   D T 601       0.477   8.262   7.449  1.00 24.69     0.049 A 
HETATM   16  C11   D T 601      -0.853   8.010   7.022  1.00 26.89     0.033 A 
HETATM   17  C10   D T 601      -1.826   7.552   7.938  1.00 28.95     0.039 A 
HETATM   18  C09   D T 601      -1.469   7.326   9.285  1.00 30.95     0.069 A 
HETATM   19  C35   D T 601      -0.145   7.548   9.702  1.00 28.80     0.039 A 
HETATM   20  C34   D T 601       0.807   8.019   8.792  1.00 26.81     0.033 A 
BRANCH  18  21
HETATM   21  O08   D T 601      -2.367   6.845  10.173  1.00 36.09    -0.350 OA
BRANCH  21  22
HETATM   22  C07   D T 601      -2.922   5.541   9.849  1.00 42.63     0.195 C 
BRANCH  22  23
HETATM   23  C06   D T 601      -3.195   4.762  11.174  1.00 46.85     0.143 C 
BRANCH  23  24
HETATM   24  N03   D T 601      -2.112   3.770  11.537  1.00 51.06    -0.411 N 
BRANCH  24  25
HETATM   25  C02   D T 601      -0.641   4.034  11.230  1.00 53.85     0.112 C 
HETATM   26  C01   D T 601       0.289   4.554  12.375  1.00 52.69     0.026 C 
ENDBRANCH  24  25
BRANCH  24  27
HETATM   27  C04   D T 601      -2.544   2.569  12.335  1.00 47.80     0.112 C 
HETATM   28  C05   D T 601      -1.779   1.231  12.134  1.00 44.89     0.026 C 
ENDBRANCH  24  27
ENDBRANCH  23  24
ENDBRANCH  22  23
ENDBRANCH  21  22
ENDBRANCH  18  21
ENDBRANCH  13  15
ENDBRANCH   1  13
BRANCH   8  29
HETATM   29  C26   D T 601       6.921  14.025   5.883  1.00 21.63     0.023 A 
HETATM   30  C27   D T 601       8.085  13.736   5.116  1.00 22.75     0.046 A 
HETATM   31 CL28   D T 601       8.178  12.313   4.213  1.00 22.59    -0.083 Cl
HETATM   32  C29   D T 601       9.211  14.601   5.113  1.00 24.08     0.025 A 
HETATM   33  C30   D T 601       9.168  15.804   5.851  1.00 25.63     0.003 A 
HETATM   34  C31   D T 601       8.021  16.117   6.593  1.00 25.41     0.025 A 
HETATM   35  C32   D T 601       6.910  15.237   6.611  1.00 23.77     0.046 A 
HETATM   36 CL33   D T 601       5.557  15.668   7.532  1.00 25.94    -0.083 Cl
ENDBRANCH   8  29
TORSDOF 9
ENDMDL
MODEL 2
REMARK VINA RESULT:    -7.029      0.563      2.008
REMARK INTER + INTRA:         -11.728
REMARK INTER:                 -10.947
REMARK INTRA:                  -0.780
REMARK UNBOUND:                -1.001
REMARK  9 active torsions:
REMARK  status: ('A' for Active; 'I' for Inactive)
REMARK    1  A    between atoms: C02_2  and  N03_3 
REMARK    2  A    between atoms: N03_3  and  C04_4 
REMARK    3  A    between atoms: N03_3  and  C06_6 
REMARK    4  A    between atoms: C06_6  and  C07_7 
REMARK    5  A    between atoms: C07_7  and  O08_8 
REMARK    6  A    between atoms: O08_8  and  C09_9 
REMARK    7  A    between atoms: C12_12  and  N13_13 
REMARK    8  A    between atoms: N13_13  and  C14_14 
REMARK    9  A    between atoms: C21_21  and  C26_26 
ROOT
HETATM    1  C14   D T 601       2.051   9.582   6.802  1.00 17.92     0.728 A 
HETATM    2  N15   D T 601       2.297  10.606   5.960  1.00 19.07    -0.044 NA
HETATM    3  C16   D T 601       3.400  11.365   5.995  1.00 18.16     0.163 A 
HETATM    4  C17   D T 601       4.348  11.094   6.986  1.00 16.80     0.030 A 
HETATM    5  C18   D T 601       4.079  10.063   7.888  1.00 18.08     0.151 A 
HETATM    6  N19   D T 601       2.947   9.337   7.774  1.00 16.91    -0.074 NA
HETATM    7  C20   D T 601       5.513  11.882   7.070  1.00 17.65     0.034 A 
HETATM    8  C21   D T 601       5.731  12.918   6.148  1.00 18.53     0.047 A 
HETATM    9  C22   D T 601       4.735  13.149   5.168  1.00 19.48     0.260 A 
HETATM   10  O23   D T 601       4.969  14.105   4.400  1.00 21.52    -0.267 OA
HETATM   11  N24   D T 601       3.593  12.375   5.086  1.00 19.49    -0.301 N 
HETATM   12  C25   D T 601       2.570  12.575   4.072  1.00 20.07     0.161 C 
ENDROOT
BRANCH   1  13
HETATM   13  N13   D T 601       0.923   8.866   6.677  1.00 20.14    -0.188 N 
HETATM   14 1H13   D T 601       0.647   8.732   5.812  1.00 24.16     0.184 HD
BRANCH  13  15
HETATM   15  C12   D T 601       0.110   8.299   7.635  1.00 24.69     0.049 A 
HETATM   16  C11   D T 601      -1.190   7.910   7.219  1.00 26.89     0.033 A 
HETATM   17  C10   D T 601      -2.083   7.303   8.128  1.00 28.95     0.039 A 
HETATM   18  C09   D T 601      -1.675   7.064   9.458  1.00 30.95     0.069 A 
HETATM   19  C35   D T 601      -0.377   7.424   9.864  1.00 28.80     0.039 A 
HETATM   20  C34   D T 601       0.494   8.041   8.960  1.00 26.81     0.033 A 
BRANCH  18  21
HETATM   21  O08   D T 601      -2.492   6.445  10.339  1.00 36.09    -0.350 OA
BRANCH  21  22
HETATM   22  C07   D T 601      -2.585   5.002  10.188  1.00 42.63     0.195 C 
BRANCH  22  23
HETATM   23  C06   D T 601      -2.645   4.347  11.604  1.00 46.85     0.143 C 
BRANCH  23  24
HETATM   24  N03   D T 601      -1.371   3.640  12.008  1.00 51.06    -0.411 N 
BRANCH  24  25
HETATM   25  C02   D T 601      -1.346   2.153  12.349  1.00 53.85     0.112 C 
HETATM   26  C01   D T 601      -2.491   1.235  11.809  1.00 52.69     0.026 C 
ENDBRANCH  24  25
BRANCH  24  27
HETATM   27  C04   D T 601      -0.103   4.448  11.929  1.00 47.80     0.112 C 
HETATM   28  C05   D T 601       0.935   4.313  13.078  1.00 44.89     0.026 C 
ENDBRANCH  24  27
ENDBRANCH  23  24
ENDBRANCH  22  23
ENDBRANCH  21  22
ENDBRANCH  18  21
ENDBRANCH  13  15
ENDBRANCH   1  13
BRANCH   8  29
HETATM   29  C26   D T 601       6.917  13.718   6.202  1.00 21.63     0.023 A 
HETATM   30  C27   D T 601       6.958  14.885   7.017  1.00 22.75     0.046 A 
HETATM   31 CL28   D T 601       5.593  15.364   7.887  1.00 22.59    -0.083 Cl
HETATM   32  C29   D T 601       8.118  15.700   7.097  1.00 24.08     0.025 A 
HETATM   33  C30   D T 601       9.282  15.326   6.390  1.00 25.63     0.003 A 
HETATM   34  C31   D T 601       9.268  14.168   5.601  1.00 25.41     0.025 A 
HETATM   35  C32   D T 601       8.098  13.372   5.506  1.00 23.77     0.046 A 
HETATM   36 CL33   D T 601       8.143  11.990   4.532  1.00 25.94    -0.083 Cl
ENDBRANCH   8  29
TORSDOF 9
ENDMDL
MODEL 3
REMARK VINA RESULT:    -7.028      2.413      3.596
REMARK INTER + INTRA:         -11.726
REMARK INTER:                 -10.506
REMARK INTRA:                  -1.220
REMARK UNBOUND:                -1.001
REMARK  9 active torsions:
REMARK  status: ('A' for Active; 'I' for Inactive)
REMARK    1  A    between atoms: C02_2  and  N03_3 
REMARK    2  A    between atoms: N03_3  and  C04_4 
REMARK    3  A    between atoms: N03_3  and  C06_6 
REMARK    4  A    between atoms: C06_6  and  C07_7 
REMARK    5  A    between atoms: C07_7  and  O08_8 
REMARK    6  A    between atoms: O08_8  and  C09_9 
REMARK    7  A    between atoms: C12_12  and  N13_13 
REMARK    8  A    between atoms: N13_13  and  C14_14 
REMARK    9  A    between atoms: C21_21  and  C26_26 
ROOT
HETATM    1  C14   D T 601       1.609   8.691   8.528  1.00 17.92     0.728 A 
HETATM    2  N15   D T 601       2.625   9.404   9.055  1.00 19.07    -0.044 NA
HETATM    3  C16   D T 601       3.394  10.253   8.359  1.00 18.16     0.163 A 
HETATM    4  C17   D T 601       3.142  10.388   6.991  1.00 16.80     0.030 A 
HETATM    5  C18   D T 601       2.119   9.620   6.431  1.00 18.08     0.151 A 
HETATM    6  N19   D T 601       1.384   8.797   7.208  1.00 16.91    -0.074 NA
HETATM    7  C20   D T 601       3.939  11.255   6.218  1.00 17.65     0.034 A 
HETATM    8  C21   D T 601       4.966  11.996   6.824  1.00 18.53     0.047 A 
HETATM    9  C22   D T 601       5.178  11.816   8.214  1.00 19.48     0.260 A 
HETATM   10  O23   D T 601       6.127  12.474   8.688  1.00 21.52    -0.267 OA
HETATM   11  N24   D T 601       4.394  10.966   8.970  1.00 19.49    -0.301 N 
HETATM   12  C25   D T 601       4.574  10.785  10.402  1.00 20.07     0.161 C 
ENDROOT
BRANCH   1  13
HETATM   13  N13   D T 601       0.883   7.878   9.311  1.00 20.14    -0.188 N 
HETATM   14 1H13   D T 601       0.000   7.803   9.073  1.00 24.16     0.184 HD
BRANCH  13  15
HETATM   15  C12   D T 601       1.246   7.136  10.415  1.00 24.69     0.049 A 
HETATM   16  C11   D T 601       1.983   5.948  10.172  1.00 26.89     0.033 A 
HETATM   17  C10   D T 601       2.412   5.137  11.245  1.00 28.95     0.039 A 
HETATM   18  C09   D T 601       2.123   5.520  12.572  1.00 30.95     0.069 A 
HETATM   19  C35   D T 601       1.417   6.711  12.816  1.00 28.80     0.039 A 
HETATM   20  C34   D T 601       0.980   7.498  11.745  1.00 26.81     0.033 A 
BRANCH  18  21
HETATM   21  O08   D T 601       2.559   4.787  13.621  1.00 36.09    -0.350 OA
BRANCH  21  22
HETATM   22  C07   D T 601       2.167   3.387  13.603  1.00 42.63     0.195 C 
BRANCH  22  23
HETATM   23  C06   D T 601       0.709   3.261  14.146  1.00 46.85     0.143 C 
BRANCH  23  24
HETATM   24  N03   D T 601      -0.277   2.719  13.135  1.00 51.06    -0.411 N 
BRANCH  24  25
HETATM   25  C02   D T 601      -0.884   3.601  12.047  1.00 53.85     0.112 C 
HETATM   26  C01   D T 601      -2.439   3.734  11.962  1.00 52.69     0.026 C 
ENDBRANCH  24  25
BRANCH  24  27
HETATM   27  C04   D T 601      -0.530   1.236  13.174  1.00 47.80     0.112 C 
HETATM   28  C05   D T 601      -0.992   0.528  11.871  1.00 44.89     0.026 C 
ENDBRANCH  24  27
ENDBRANCH  23  24
ENDBRANCH  22  23
ENDBRANCH  21  22
ENDBRANCH  18  21
ENDBRANCH  13  15
ENDBRANCH   1  13
BRANCH   8  29
HETATM   29  C26   D T 601       5.776  12.898   6.063  1.00 21.63     0.023 A 
HETATM   30  C27   D T 601       7.065  12.497   5.611  1.00 22.75     0.046 A 
HETATM   31 CL28   D T 601       7.672  10.974   6.013  1.00 22.59    -0.083 Cl
HETATM   32  C29   D T 601       7.894  13.364   4.851  1.00 24.08     0.025 A 
HETATM   33  C30   D T 601       7.418  14.643   4.490  1.00 25.63     0.003 A 
HETATM   34  C31   D T 601       6.141  15.047   4.906  1.00 25.41     0.025 A 
HETATM   35  C32   D T 601       5.329  14.185   5.685  1.00 23.77     0.046 A 
HETATM   36 CL33   D T 601       3.801  14.734   6.161  1.00 25.94    -0.083 Cl
ENDBRANCH   8  29
TORSDOF 9
ENDMDL
MODEL 4
REMARK VINA RESULT:    -7.024      6.428     10.473
REMARK INTER + INTRA:         -11.721
REMARK INTER:                 -10.875
REMARK INTRA:                  -0.846
REMARK UNBOUND:                -1.001
REMARK  9 active torsions:
REMARK  status: ('A' for Active; 'I' for Inactive)
REMARK    1  A    between atoms: C02_2  and  N03_3 
REMARK    2  A    between atoms: N03_3  and  C04_4 
REMARK    3  A    between atoms: N03_3  and  C06_6 
REMARK    4  A    between atoms: C06_6  and  C07_7 
REMARK    5  A    between atoms: C07_7  and  O08_8 
REMARK    6  A    between atoms: O08_8  and  C09_9 
REMARK    7  A    between atoms: C12_12  and  N13_13 
REMARK    8  A    between atoms: N13_13  and  C14_14 
REMARK    9  A    between atoms: C21_21  and  C26_26 
ROOT
HETATM    1  C14   D T 601       1.561   3.559  13.821  1.00 17.92     0.728 A 
HETATM    2  N15   D T 601       2.074   4.736  13.411  1.00 19.07    -0.044 NA
HETATM    3  C16   D T 601       1.533   5.505  12.457  1.00 18.16     0.163 A 
HETATM    4  C17   D T 601       0.373   5.046  11.829  1.00 16.80     0.030 A 
HETATM    5  C18   D T 601      -0.140   3.807  12.219  1.00 18.08     0.151 A 
HETATM    6  N19   D T 601       0.462   3.100  13.199  1.00 16.91    -0.074 NA
HETATM    7  C20   D T 601      -0.218   5.816  10.807  1.00 17.65     0.034 A 
HETATM    8  C21   D T 601       0.344   7.048  10.440  1.00 18.53     0.047 A 
HETATM    9  C22   D T 601       1.523   7.462  11.108  1.00 19.48     0.260 A 
HETATM   10  O23   D T 601       1.995   8.549  10.714  1.00 21.52    -0.267 OA
HETATM   11  N24   D T 601       2.100   6.706  12.111  1.00 19.49    -0.301 N 
HETATM   12  C25   D T 601       3.293   7.122  12.831  1.00 20.07     0.161 C 
ENDROOT
BRANCH   1  13
HETATM   13  N13   D T 601       2.167   2.866  14.798  1.00 20.14    -0.188 N 
HETATM   14 1H13   D T 601       1.598   2.499  15.418  1.00 24.16     0.184 HD
BRANCH  13  15
HETATM   15  C12   D T 601       3.503   2.613  15.023  1.00 24.69     0.049 A 
HETATM   16  C11   D T 601       3.934   2.613  16.375  1.00 26.89     0.033 A 
HETATM   17  C10   D T 601       5.281   2.344  16.699  1.00 28.95     0.039 A 
HETATM   18  C09   D T 601       6.205   2.055  15.672  1.00 30.95     0.069 A 
HETATM   19  C35   D T 601       5.774   2.028  14.333  1.00 28.80     0.039 A 
HETATM   20  C34   D T 601       4.441   2.313  14.022  1.00 26.81     0.033 A 
BRANCH  18  21
HETATM   21  O08   D T 601       7.492   1.751  15.955  1.00 36.09    -0.350 OA
BRANCH  21  22
HETATM   22  C07   D T 601       8.442   2.026  14.890  1.00 42.63     0.195 C 
BRANCH  22  23
HETATM   23  C06   D T 601       8.947   3.496  15.027  1.00 46.85     0.143 C 
BRANCH  23  24
HETATM   24  N03   D T 601       8.781   4.322  13.771  1.00 51.06    -0.411 N 
BRANCH  24  25
HETATM   25  C02   D T 601       9.802   4.280  12.637  1.00 53.85     0.112 C 
HETATM   26  C01   D T 601      10.989   5.297  12.650  1.00 52.69     0.026 C 
ENDBRANCH  24  25
BRANCH  24  27
HETATM   27  C04   D T 601       7.492   5.088  13.638  1.00 47.80     0.112 C 
HETATM   28  C05   D T 601       6.837   5.197  12.233  1.00 44.89     0.026 C 
ENDBRANCH  24  27
ENDBRANCH  23  24
ENDBRANCH  22  23
ENDBRANCH  21  22
ENDBRANCH  18  21
ENDBRANCH  13  15
ENDBRANCH   1  13
BRANCH   8  29
HETATM   29  C26   D T 601      -0.250   7.857   9.418  1.00 21.63     0.023 A 
HETATM   30  C27   D T 601       0.395   8.007   8.157  1.00 22.75     0.046 A 
HETATM   31 CL28   D T 601       1.890   7.277   7.873  1.00 22.59    -0.083 Cl
HETATM   32  C29   D T 601      -0.167   8.798   7.121  1.00 24.08     0.025 A 
HETATM   33  C30   D T 601      -1.420   9.419   7.319  1.00 25.63     0.003 A 
HETATM   34  C31   D T 601      -2.081   9.263   8.546  1.00 25.41     0.025 A 
HETATM   35  C32   D T 601      -1.502   8.491   9.585  1.00 23.77     0.046 A 
HETATM   36 CL33   D T 601      -2.346   8.347  11.044  1.00 25.94    -0.083 Cl
ENDBRANCH   8  29
TORSDOF 9
ENDMDL
MODEL 5
REMARK VINA RESULT:    -6.992      6.381     10.285
REMARK INTER + INTRA:         -11.672
REMARK INTER:                 -10.799
REMARK INTRA:                  -0.873
REMARK UNBOUND:                -1.001
REMARK  9 active torsions:
REMARK  status: ('A' for Active; 'I' for Inactive)
REMARK    1  A    between atoms: C02_2  and  N03_3 
REMARK    2  A    between atoms: N03_3  and  C04_4 
REMARK    3  A    between atoms: N03_3  and  C06_6 
REMARK    4  A    between atoms: C06_6  and  C07_7 
REMARK    5  A    between atoms: C07_7  and  O08_8 
REMARK    6  A    between atoms: O08_8  and  C09_9 
REMARK    7  A    between atoms: C12_12  and  N13_13 
REMARK    8  A    between atoms: N13_13  and  C14_14 
REMARK    9  A    between atoms: C21_21  and  C26_26 
ROOT
HETATM    1  C14   D T 601       1.151   3.625  13.617  1.00 17.92     0.728 A 
HETATM    2  N15   D T 601       1.701   4.792  13.225  1.00 19.07    -0.044 NA
HETATM    3  C16   D T 601       1.209   5.571  12.253  1.00 18.16     0.163 A 
HETATM    4  C17   D T 601       0.063   5.133  11.584  1.00 16.80     0.030 A 
HETATM    5  C18   D T 601      -0.487   3.905  11.955  1.00 18.08     0.151 A 
HETATM    6  N19   D T 601       0.066   3.187  12.956  1.00 16.91    -0.074 NA
HETATM    7  C20   D T 601      -0.477   5.913  10.542  1.00 17.65     0.034 A 
HETATM    8  C21   D T 601       0.121   7.135  10.195  1.00 18.53     0.047 A 
HETATM    9  C22   D T 601       1.283   7.527  10.905  1.00 19.48     0.260 A 
HETATM   10  O23   D T 601       1.789   8.604  10.527  1.00 21.52    -0.267 OA
HETATM   11  N24   D T 601       1.810   6.761  11.927  1.00 19.49    -0.301 N 
HETATM   12  C25   D T 601       2.985   7.155  12.688  1.00 20.07     0.161 C 
ENDROOT
BRANCH   1  13
HETATM   13  N13   D T 601       1.709   2.921  14.614  1.00 20.14    -0.188 N 
HETATM   14 1H13   D T 601       1.116   2.606  15.240  1.00 24.16     0.184 HD
BRANCH  13  15
HETATM   15  C12   D T 601       3.026   2.594  14.854  1.00 24.69     0.049 A 
HETATM   16  C11   D T 601       3.900   2.603  13.736  1.00 26.89     0.033 A 
HETATM   17  C10   D T 601       5.270   2.299  13.893  1.00 28.95     0.039 A 
HETATM   18  C09   D T 601       5.780   2.002  15.175  1.00 30.95     0.069 A 
HETATM   19  C35   D T 601       4.921   2.020  16.288  1.00 28.80     0.039 A 
HETATM   20  C34   D T 601       3.562   2.304  16.119  1.00 26.81     0.033 A 
BRANCH  18  21
HETATM   21  O08   D T 601       7.095   1.751  15.362  1.00 36.09    -0.350 OA
BRANCH  21  22
HETATM   22  C07   D T 601       8.001   2.623  14.633  1.00 42.63     0.195 C 
BRANCH  22  23
HETATM   23  C06   D T 601       8.132   3.976  15.400  1.00 46.85     0.143 C 
BRANCH  23  24
HETATM   24  N03   D T 601       8.123   5.193  14.503  1.00 51.06    -0.411 N 
BRANCH  24  25
HETATM   25  C02   D T 601       8.166   6.611  15.067  1.00 53.85     0.112 C 
HETATM   26  C01   D T 601       6.855   7.464  15.070  1.00 52.69     0.026 C 
ENDBRANCH  24  25
BRANCH  24  27
HETATM   27  C04   D T 601       8.202   4.936  13.022  1.00 47.80     0.112 C 
HETATM   28  C05   D T 601       6.933   5.178  12.158  1.00 44.89     0.026 C 
ENDBRANCH  24  27
ENDBRANCH  23  24
ENDBRANCH  22  23
ENDBRANCH  21  22
ENDBRANCH  18  21
ENDBRANCH  13  15
ENDBRANCH   1  13
BRANCH   8  29
HETATM   29  C26   D T 601      -0.421   7.954   9.153  1.00 21.63     0.023 A 
HETATM   30  C27   D T 601      -1.634   8.669   9.360  1.00 22.75     0.046 A 
HETATM   31 CL28   D T 601      -2.473   8.517  10.818  1.00 22.59    -0.083 Cl
HETATM   32  C29   D T 601      -2.198   9.493   8.351  1.00 24.08     0.025 A 
HETATM   33  C30   D T 601      -1.521   9.651   7.122  1.00 25.63     0.003 A 
HETATM   34  C31   D T 601      -0.313   8.974   6.908  1.00 25.41     0.025 A 
HETATM   35  C32   D T 601       0.232   8.133   7.911  1.00 23.77     0.046 A 
HETATM   36 CL33   D T 601       1.690   7.338   7.590  1.00 25.94    -0.083 Cl
ENDBRANCH   8  29
TORSDOF 9
ENDMDL
MODEL 6
REMARK VINA RESULT:    -6.990      2.336      3.843
REMARK INTER + INTRA:         -11.669
REMARK INTER:                 -10.347
REMARK INTRA:                  -1.321
REMARK UNBOUND:                -1.001
REMARK  9 active torsions:
REMARK  status: ('A' for Active; 'I' for Inactive)
REMARK    1  A    between atoms: C02_2  and  N03_3 
REMARK    2  A    between atoms: N03_3  and  C04_4 
REMARK    3  A    between atoms: N03_3  and  C06_6 
REMARK    4  A    between atoms: C06_6  and  C07_7 
REMARK    5  A    between atoms: C07_7  and  O08_8 
REMARK    6  A    between atoms: O08_8  and  C09_9 
REMARK    7  A    between atoms: C12_12  and  N13_13 
REMARK    8  A    between atoms: N13_13  and  C14_14 
REMARK    9  A    between atoms: C21_21  and  C26_26 
ROOT
HETATM    1  C14   D T 601       1.584   8.761   8.295  1.00 17.92     0.728 A 
HETATM    2  N15   D T 601       2.612   9.466   8.809  1.00 19.07    -0.044 NA
HETATM    3  C16   D T 601       3.360  10.331   8.111  1.00 18.16     0.163 A 
HETATM    4  C17   D T 601       3.071  10.495   6.753  1.00 16.80     0.030 A 
HETATM    5  C18   D T 601       2.036   9.736   6.205  1.00 18.08     0.151 A 
HETATM    6  N19   D T 601       1.323   8.895   6.984  1.00 16.91    -0.074 NA
HETATM    7  C20   D T 601       3.846  11.380   5.978  1.00 17.65     0.034 A 
HETATM    8  C21   D T 601       4.887  12.111   6.573  1.00 18.53     0.047 A 
HETATM    9  C22   D T 601       5.137  11.901   7.951  1.00 19.48     0.260 A 
HETATM   10  O23   D T 601       6.096  12.552   8.414  1.00 21.52    -0.267 OA
HETATM   11  N24   D T 601       4.375  11.033   8.710  1.00 19.49    -0.301 N 
HETATM   12  C25   D T 601       4.594  10.823  10.133  1.00 20.07     0.161 C 
ENDROOT
BRANCH   1  13
HETATM   13  N13   D T 601       0.882   7.929   9.080  1.00 20.14    -0.188 N 
HETATM   14 1H13   D T 601      -0.005   7.849   8.857  1.00 24.16     0.184 HD
BRANCH  13  15
HETATM   15  C12   D T 601       1.272   7.177  10.166  1.00 24.69     0.049 A 
HETATM   16  C11   D T 601       0.870   7.644  11.445  1.00 26.89     0.033 A 
HETATM   17  C10   D T 601       1.209   6.925  12.611  1.00 28.95     0.039 A 
HETATM   18  C09   D T 601       1.938   5.721  12.506  1.00 30.95     0.069 A 
HETATM   19  C35   D T 601       2.314   5.242  11.238  1.00 28.80     0.039 A 
HETATM   20  C34   D T 601       1.989   5.971  10.089  1.00 26.81     0.033 A 
BRANCH  18  21
HETATM   21  O08   D T 601       2.239   4.988  13.601  1.00 36.09    -0.350 OA
BRANCH  21  22
HETATM   22  C07   D T 601       2.131   3.549  13.432  1.00 42.63     0.195 C 
BRANCH  22  23
HETATM   23  C06   D T 601       0.787   3.063  14.058  1.00 46.85     0.143 C 
BRANCH  23  24
HETATM   24  N03   D T 601      -0.276   2.719  13.038  1.00 51.06    -0.411 N 
BRANCH  24  25
HETATM   25  C02   D T 601      -0.681   1.275  12.750  1.00 53.85     0.112 C 
HETATM   26  C01   D T 601      -2.115   0.989  12.196  1.00 52.69     0.026 C 
ENDBRANCH  24  25
BRANCH  24  27
HETATM   27  C04   D T 601      -1.009   3.878  12.417  1.00 47.80     0.112 C 
HETATM   28  C05   D T 601      -1.095   3.955  10.867  1.00 44.89     0.026 C 
ENDBRANCH  24  27
ENDBRANCH  23  24
ENDBRANCH  22  23
ENDBRANCH  21  22
ENDBRANCH  18  21
ENDBRANCH  13  15
ENDBRANCH   1  13
BRANCH   8  29
HETATM   29  C26   D T 601       5.674  13.031   5.809  1.00 21.63     0.023 A 
HETATM   30  C27   D T 601       5.180  14.336   5.526  1.00 22.75     0.046 A 
HETATM   31 CL28   D T 601       3.639  14.792   6.043  1.00 22.59    -0.083 Cl
HETATM   32  C29   D T 601       5.935  15.275   4.775  1.00 24.08     0.025 A 
HETATM   33  C30   D T 601       7.231  14.931   4.333  1.00 25.63     0.003 A 
HETATM   34  C31   D T 601       7.745  13.660   4.623  1.00 25.41     0.025 A 
HETATM   35  C32   D T 601       6.976  12.719   5.351  1.00 23.77     0.046 A 
HETATM   36 CL33   D T 601       7.649  11.198   5.663  1.00 25.94    -0.083 Cl
ENDBRANCH   8  29
TORSDOF 9
ENDMDL
MODEL 7
REMARK VINA RESULT:    -6.946      1.867      2.875
REMARK INTER + INTRA:         -11.601
REMARK INTER:                 -10.822
REMARK INTRA:                  -0.778
REMARK UNBOUND:                -1.001
REMARK  9 active torsions:
REMARK  status: ('A' for Active; 'I' for Inactive)
REMARK    1  A    between atoms: C02_2  and  N03_3 
REMARK    2  A    between atoms: N03_3  and  C04_4 
REMARK    3  A    between atoms: N03_3  and  C06_6 
REMARK    4  A    between atoms: C06_6  and  C07_7 
REMARK    5  A    between atoms: C07_7  and  O08_8 
REMARK    6  A    between atoms: O08_8  and  C09_9 
REMARK    7  A    between atoms: C12_12  and  N13_13 
REMARK    8  A    between atoms: N13_13  and  C14_14 
REMARK    9  A    between atoms: C21_21  and  C26_26 
ROOT
HETATM    1  C14   D T 601       0.767  10.300   6.763  1.00 17.92     0.728 A 
HETATM    2  N15   D T 601       1.657  11.002   7.493  1.00 19.07    -0.044 NA
HETATM    3  C16   D T 601       2.792  11.523   7.006  1.00 18.16     0.163 A 
HETATM    4  C17   D T 601       3.085  11.302   5.657  1.00 16.80     0.030 A 
HETATM    5  C18   D T 601       2.189  10.539   4.906  1.00 18.08     0.151 A 
HETATM    6  N19   D T 601       1.060  10.062   5.473  1.00 16.91    -0.074 NA
HETATM    7  C20   D T 601       4.277  11.816   5.110  1.00 17.65     0.034 A 
HETATM    8  C21   D T 601       5.154  12.565   5.910  1.00 18.53     0.047 A 
HETATM    9  C22   D T 601       4.808  12.753   7.271  1.00 19.48     0.260 A 
HETATM   10  O23   D T 601       5.643  13.397   7.940  1.00 21.52    -0.267 OA
HETATM   11  N24   D T 601       3.637  12.250   7.806  1.00 19.49    -0.301 N 
HETATM   12  C25   D T 601       3.247  12.454   9.192  1.00 20.07     0.161 C 
ENDROOT
BRANCH   1  13
HETATM   13  N13   D T 601      -0.352   9.832   7.337  1.00 20.14    -0.188 N 
HETATM   14 1H13   D T 601      -1.123  10.253   7.073  1.00 24.16     0.184 HD
BRANCH  13  15
HETATM   15  C12   D T 601      -0.533   8.824   8.259  1.00 24.69     0.049 A 
HETATM   16  C11   D T 601       0.637   8.181   8.740  1.00 26.89     0.033 A 
HETATM   17  C10   D T 601       0.546   7.151   9.701  1.00 28.95     0.039 A 
HETATM   18  C09   D T 601      -0.717   6.768  10.202  1.00 30.95     0.069 A 
HETATM   19  C35   D T 601      -1.875   7.423   9.746  1.00 28.80     0.039 A 
HETATM   20  C34   D T 601      -1.776   8.430   8.781  1.00 26.81     0.033 A 
BRANCH  18  21
HETATM   21  O08   D T 601      -0.831   5.816  11.154  1.00 36.09    -0.350 OA
BRANCH  21  22
HETATM   22  C07   D T 601       0.268   4.867  11.216  1.00 42.63     0.195 C 
BRANCH  22  23
HETATM   23  C06   D T 601       0.216   4.116  12.583  1.00 46.85     0.143 C 
BRANCH  23  24
HETATM   24  N03   D T 601      -0.727   2.933  12.598  1.00 51.06    -0.411 N 
BRANCH  24  25
HETATM   25  C02   D T 601      -2.000   2.906  11.756  1.00 53.85     0.112 C 
HETATM   26  C01   D T 601      -2.130   1.841  10.618  1.00 52.69     0.026 C 
ENDBRANCH  24  25
BRANCH  24  27
HETATM   27  C04   D T 601      -0.279   1.730  13.383  1.00 47.80     0.112 C 
HETATM   28  C05   D T 601       0.813   1.919  14.472  1.00 44.89     0.026 C 
ENDBRANCH  24  27
ENDBRANCH  23  24
ENDBRANCH  22  23
ENDBRANCH  21  22
ENDBRANCH  18  21
ENDBRANCH  13  15
ENDBRANCH   1  13
BRANCH   8  29
HETATM   29  C26   D T 601       6.361  13.113   5.371  1.00 21.63     0.023 A 
HETATM   30  C27   D T 601       6.345  14.375   4.711  1.00 22.75     0.046 A 
HETATM   31 CL28   D T 601       4.892  15.212   4.513  1.00 22.59    -0.083 Cl
HETATM   32  C29   D T 601       7.524  14.950   4.168  1.00 24.08     0.025 A 
HETATM   33  C30   D T 601       8.758  14.283   4.321  1.00 25.63     0.003 A 
HETATM   34  C31   D T 601       8.799  13.051   4.989  1.00 25.41     0.025 A 
HETATM   35  C32   D T 601       7.614  12.471   5.508  1.00 23.77     0.046 A 
HETATM   36 CL33   D T 601       7.728  10.979   6.297  1.00 25.94    -0.083 Cl
ENDBRANCH   8  29
TORSDOF 9
ENDMDL
MODEL 8
REMARK VINA RESULT:    -6.898      2.231      3.011
REMARK INTER + INTRA:         -11.528
REMARK INTER:                 -10.526
REMARK INTRA:                  -1.002
REMARK UNBOUND:                -1.001
REMARK  9 active torsions:
REMARK  status: ('A' for Active; 'I' for Inactive)
REMARK    1  A    between atoms: C02_2  and  N03_3 
REMARK    2  A    between atoms: N03_3  and  C04_4 
REMARK    3  A    between atoms: N03_3  and  C06_6 
REMARK    4  A    between atoms: C06_6  and  C07_7 
REMARK    5  A    between atoms: C07_7  and  O08_8 
REMARK    6  A    between atoms: O08_8  and  C09_9 
REMARK    7  A    between atoms: C12_12  and  N13_13 
REMARK    8  A    between atoms: N13_13  and  C14_14 
REMARK    9  A    between atoms: C21_21  and  C26_26 
ROOT
HETATM    1  C14   D T 601       0.701  10.120   7.131  1.00 17.92     0.728 A 
HETATM    2  N15   D T 601       1.580  10.954   7.723  1.00 19.07    -0.044 NA
HETATM    3  C16   D T 601       2.658  11.471   7.117  1.00 18.16     0.163 A 
HETATM    4  C17   D T 601       2.900  11.103   5.791  1.00 16.80     0.030 A 
HETATM    5  C18   D T 601       2.017  10.206   5.185  1.00 18.08     0.151 A 
HETATM    6  N19   D T 601       0.948   9.742   5.865  1.00 16.91    -0.074 NA
HETATM    7  C20   D T 601       4.032  11.609   5.123  1.00 17.65     0.034 A 
HETATM    8  C21   D T 601       4.899  12.497   5.780  1.00 18.53     0.047 A 
HETATM    9  C22   D T 601       4.606  12.832   7.125  1.00 19.48     0.260 A 
HETATM   10  O23   D T 601       5.431  13.597   7.666  1.00 21.52    -0.267 OA
HETATM   11  N24   D T 601       3.494  12.335   7.778  1.00 19.49    -0.301 N 
HETATM   12  C25   D T 601       3.157  12.686   9.148  1.00 20.07     0.161 C 
ENDROOT
BRANCH   1  13
HETATM   13  N13   D T 601      -0.360   9.666   7.816  1.00 20.14    -0.188 N 
HETATM   14 1H13   D T 601      -1.128  10.155   7.701  1.00 24.16     0.184 HD
BRANCH  13  15
HETATM   15  C12   D T 601      -0.485   8.587   8.664  1.00 24.69     0.049 A 
HETATM   16  C11   D T 601       0.719   8.004   9.138  1.00 26.89     0.033 A 
HETATM   17  C10   D T 601       0.684   6.907  10.026  1.00 28.95     0.039 A 
HETATM   18  C09   D T 601      -0.558   6.396  10.461  1.00 30.95     0.069 A 
HETATM   19  C35   D T 601      -1.752   6.991  10.014  1.00 28.80     0.039 A 
HETATM   20  C34   D T 601      -1.707   8.065   9.120  1.00 26.81     0.033 A 
BRANCH  18  21
HETATM   21  O08   D T 601      -0.622   5.376  11.345  1.00 36.09    -0.350 OA
BRANCH  21  22
HETATM   22  C07   D T 601       0.616   4.634  11.524  1.00 42.63     0.195 C 
BRANCH  22  23
HETATM   23  C06   D T 601       1.064   4.748  13.015  1.00 46.85     0.143 C 
BRANCH  23  24
HETATM   24  N03   D T 601       1.926   3.598  13.487  1.00 51.06    -0.411 N 
BRANCH  24  25
HETATM   25  C02   D T 601       3.415   3.520  13.162  1.00 53.85     0.112 C 
HETATM   26  C01   D T 601       4.118   4.768  12.535  1.00 52.69     0.026 C 
ENDBRANCH  24  25
BRANCH  24  27
HETATM   27  C04   D T 601       1.270   2.601  14.403  1.00 47.80     0.112 C 
HETATM   28  C05   D T 601       0.126   1.713  13.837  1.00 44.89     0.026 C 
ENDBRANCH  24  27
ENDBRANCH  23  24
ENDBRANCH  22  23
ENDBRANCH  21  22
ENDBRANCH  18  21
ENDBRANCH  13  15
ENDBRANCH   1  13
BRANCH   8  29
HETATM   29  C26   D T 601       6.045  13.040   5.115  1.00 21.63     0.023 A 
HETATM   30  C27   D T 601       7.322  12.431   5.274  1.00 22.75     0.046 A 
HETATM   31 CL28   D T 601       7.507  11.095   6.290  1.00 22.59    -0.083 Cl
HETATM   32  C29   D T 601       8.479  12.940   4.627  1.00 24.08     0.025 A 
HETATM   33  C30   D T 601       8.362  14.052   3.764  1.00 25.63     0.003 A 
HETATM   34  C31   D T 601       7.108  14.650   3.576  1.00 25.41     0.025 A 
HETATM   35  C32   D T 601       5.962  14.151   4.244  1.00 23.77     0.046 A 
HETATM   36 CL33   D T 601       4.478  14.922   3.981  1.00 25.94    -0.083 Cl
ENDBRANCH   8  29
TORSDOF 9
ENDMDL
MODEL 9
REMARK VINA RESULT:    -6.808      3.332      5.136
REMARK INTER + INTRA:         -11.391
REMARK INTER:                 -10.356
REMARK INTRA:                  -1.034
REMARK UNBOUND:                -1.001
REMARK  9 active torsions:
REMARK  status: ('A' for Active; 'I' for Inactive)
REMARK    1  A    between atoms: C02_2  and  N03_3 
REMARK    2  A    between atoms: N03_3  and  C04_4 
REMARK    3  A    between atoms: N03_3  and  C06_6 
REMARK    4  A    between atoms: C06_6  and  C07_7 
REMARK    5  A    between atoms: C07_7  and  O08_8 
REMARK    6  A    between atoms: O08_8  and  C09_9 
REMARK    7  A    between atoms: C12_12  and  N13_13 
REMARK    8  A    between atoms: N13_13  and  C14_14 
REMARK    9  A    between atoms: C21_21  and  C26_26 
ROOT
HETATM    1  C14   D T 601       1.346   8.289   9.252  1.00 17.92     0.728 A 
HETATM    2  N15   D T 601       2.349   9.064   9.711  1.00 19.07    -0.044 NA
HETATM    3  C16   D T 601       3.166   9.784   8.931  1.00 18.16     0.163 A 
HETATM    4  C17   D T 601       2.982   9.707   7.548  1.00 16.80     0.030 A 
HETATM    5  C18   D T 601       1.974   8.872   7.064  1.00 18.08     0.151 A 
HETATM    6  N19   D T 601       1.186   8.190   7.922  1.00 16.91    -0.074 NA
HETATM    7  C20   D T 601       3.833  10.433   6.690  1.00 17.65     0.034 A 
HETATM    8  C21   D T 601       4.843  11.248   7.225  1.00 18.53     0.047 A 
HETATM    9  C22   D T 601       4.985  11.285   8.634  1.00 19.48     0.260 A 
HETATM   10  O23   D T 601       5.922  11.999   9.047  1.00 21.52    -0.267 OA
HETATM   11  N24   D T 601       4.149  10.573   9.473  1.00 19.49    -0.301 N 
HETATM   12  C25   D T 601       4.257  10.617  10.923  1.00 20.07     0.161 C 
ENDROOT
BRANCH   1  13
HETATM   13  N13   D T 601       0.568   7.617  10.115  1.00 20.14    -0.188 N 
HETATM   14 1H13   D T 601      -0.328   7.802  10.048  1.00 24.16     0.184 HD
BRANCH  13  15
HETATM   15  C12   D T 601       0.893   6.695  11.086  1.00 24.69     0.049 A 
HETATM   16  C11   D T 601       1.852   7.097  12.053  1.00 26.89     0.033 A 
HETATM   17  C10   D T 601       2.230   6.223  13.095  1.00 28.95     0.039 A 
HETATM   18  C09   D T 601       1.638   4.945  13.189  1.00 30.95     0.069 A 
HETATM   19  C35   D T 601       0.668   4.556  12.248  1.00 28.80     0.039 A 
HETATM   20  C34   D T 601       0.313   5.422  11.209  1.00 26.81     0.033 A 
BRANCH  18  21
HETATM   21  O08   D T 601       1.948   4.105  14.201  1.00 36.09    -0.350 OA
BRANCH  21  22
HETATM   22  C07   D T 601       2.184   2.725  13.810  1.00 42.63     0.195 C 
BRANCH  22  23
HETATM   23  C06   D T 601       3.569   2.630  13.097  1.00 46.85     0.143 C 
BRANCH  23  24
HETATM   24  N03   D T 601       4.748   2.875  14.012  1.00 51.06    -0.411 N 
BRANCH  24  25
HETATM   25  C02   D T 601       5.004   2.013  15.246  1.00 53.85     0.112 C 
HETATM   26  C01   D T 601       4.609   2.572  16.652  1.00 52.69     0.026 C 
ENDBRANCH  24  25
BRANCH  24  27
HETATM   27  C04   D T 601       5.731   3.927  13.573  1.00 47.80     0.112 C 
HETATM   28  C05   D T 601       5.402   4.765  12.307  1.00 44.89     0.026 C 
ENDBRANCH  24  27
ENDBRANCH  23  24
ENDBRANCH  22  23
ENDBRANCH  21  22
ENDBRANCH  18  21
ENDBRANCH  13  15
ENDBRANCH   1  13
BRANCH   8  29
HETATM   29  C26   D T 601       5.706  12.010   6.374  1.00 21.63     0.023 A 
HETATM   30  C27   D T 601       5.268  13.253   5.836  1.00 22.75     0.046 A 
HETATM   31 CL28   D T 601       3.708  13.816   6.154  1.00 22.59    -0.083 Cl
HETATM   32  C29   D T 601       6.098  14.037   4.992  1.00 24.08     0.025 A 
HETATM   33  C30   D T 601       7.412  13.603   4.710  1.00 25.63     0.003 A 
HETATM   34  C31   D T 601       7.869  12.393   5.250  1.00 25.41     0.025 A 
HETATM   35  C32   D T 601       7.026  11.604   6.072  1.00 23.77     0.046 A 
HETATM   36 CL33   D T 601       7.635  10.150   6.688  1.00 25.94    -0.083 Cl
ENDBRANCH   8  29
TORSDOF 9
ENDMDL
