MODEL 1
REMARK VINA RESULT:    -8.940      0.000      0.000
REMARK INTER + INTRA:         -14.818
REMARK INTER:                 -13.643
REMARK INTRA:                  -1.175
REMARK UNBOUND:                -1.175
REMARK  9 active torsions:
REMARK  status: ('A' for Active; 'I' for Inactive)
REMARK    1  A    between atoms: C02_2  and  N03_3 
REMARK    2  A    between atoms: N03_3  and  C04_4 
REMARK    3  A    between atoms: N03_3  and  C06_6 
REMARK    4  A    between atoms: C06_6  and  C07_7 
REMARK    5  A    between atoms: C07_7  and  O08_8 
REMARK    6  A    between atoms: O08_8  and  C09_9 
REMARK    7  A    between atoms: C12_12  and  N13_13 
REMARK    8  A    between atoms: N13_13  and  C14_14 
REMARK    9  A    between atoms: C21_21  and  C26_26 
ROOT
HETATM    1  C14   D T 601       1.590  11.225  -6.438  1.00 17.92     0.728 A 
HETATM    2  N15   D T 601       0.573  10.351  -6.586  1.00 19.07    -0.044 NA
HETATM    3  C16   D T 601       0.021  10.025  -7.762  1.00 18.16     0.163 A 
HETATM    4  C17   D T 601       0.512  10.652  -8.909  1.00 16.80     0.030 A 
HETATM    5  C18   D T 601       1.535  11.591  -8.759  1.00 18.08     0.151 A 
HETATM    6  N19   D T 601       2.043  11.852  -7.537  1.00 16.91    -0.074 NA
HETATM    7  C20   D T 601      -0.053  10.352 -10.164  1.00 17.65     0.034 A 
HETATM    8  C21   D T 601      -1.091   9.411 -10.262  1.00 18.53     0.047 A 
HETATM    9  C22   D T 601      -1.552   8.810  -9.065  1.00 19.48     0.260 A 
HETATM   10  O23   D T 601      -2.499   8.009  -9.212  1.00 21.52    -0.267 OA
HETATM   11  N24   D T 601      -0.995   9.104  -7.835  1.00 19.49    -0.301 N 
HETATM   12  C25   D T 601      -1.432   8.479  -6.597  1.00 20.07     0.161 C 
ENDROOT
BRANCH   1  13
HETATM   13  N13   D T 601       2.088  11.475  -5.217  1.00 20.14    -0.188 N 
HETATM   14 1H13   D T 601       1.923  12.320  -4.901  1.00 24.16     0.184 HD
BRANCH  13  15
HETATM   15  C12   D T 601       2.808  10.671  -4.361  1.00 24.69     0.049 A 
HETATM   16  C11   D T 601       2.338  10.582  -3.024  1.00 26.89     0.033 A 
HETATM   17  C10   D T 601       3.002   9.766  -2.083  1.00 28.95     0.039 A 
HETATM   18  C09   D T 601       4.133   9.018  -2.477  1.00 30.95     0.069 A 
HETATM   19  C35   D T 601       4.582   9.084  -3.808  1.00 28.80     0.039 A 
HETATM   20  C34   D T 601       3.928   9.909  -4.729  1.00 26.81     0.033 A 
BRANCH  18  21
HETATM   21  O08   D T 601       4.762   8.194  -1.611  1.00 36.09    -0.350 OA
BRANCH  21  22
HETATM   22  C07   D T 601       4.884   6.812  -2.046  1.00 42.63     0.195 C 
BRANCH  22  23
HETATM   23  C06   D T 601       6.397   6.430  -2.106  1.00 46.85     0.143 C 
BRANCH  23  24
HETATM   24  N03   D T 601       7.123   6.985  -3.311  1.00 51.06    -0.411 N 
BRANCH  24  25
HETATM   25  C02   D T 601       8.090   8.159  -3.199  1.00 53.85     0.112 C 
HETATM   26  C01   D T 601       7.930   9.159  -2.007  1.00 52.69     0.026 C 
ENDBRANCH  24  25
BRANCH  24  27
HETATM   27  C04   D T 601       6.943   6.238  -4.605  1.00 47.80     0.112 C 
HETATM   28  C05   D T 601       7.841   6.622  -5.814  1.00 44.89     0.026 C 
ENDBRANCH  24  27
ENDBRANCH  23  24
ENDBRANCH  22  23
ENDBRANCH  21  22
ENDBRANCH  18  21
ENDBRANCH  13  15
ENDBRANCH   1  13
BRANCH   8  29
HETATM   29  C26   D T 601      -1.668   9.076 -11.529  1.00 21.63     0.023 A 
HETATM   30  C27   D T 601      -1.327   7.854 -12.172  1.00 22.75     0.046 A 
HETATM   31 CL28   D T 601      -0.198   6.810 -11.473  1.00 22.59    -0.083 Cl
HETATM   32  C29   D T 601      -1.883   7.488 -13.426  1.00 24.08     0.025 A 
HETATM   33  C30   D T 601      -2.838   8.331 -14.038  1.00 25.63     0.003 A 
HETATM   34  C31   D T 601      -3.204   9.528 -13.408  1.00 25.41     0.025 A 
HETATM   35  C32   D T 601      -2.626   9.898 -12.167  1.00 23.77     0.046 A 
HETATM   36 CL33   D T 601      -3.105  11.360 -11.462  1.00 25.94    -0.083 Cl
ENDBRANCH   8  29
TORSDOF 9
ENDMDL
MODEL 2
REMARK VINA RESULT:    -8.751      0.604      1.868
REMARK INTER + INTRA:         -14.530
REMARK INTER:                 -13.603
REMARK INTRA:                  -0.927
REMARK UNBOUND:                -1.175
REMARK  9 active torsions:
REMARK  status: ('A' for Active; 'I' for Inactive)
REMARK    1  A    between atoms: C02_2  and  N03_3 
REMARK    2  A    between atoms: N03_3  and  C04_4 
REMARK    3  A    between atoms: N03_3  and  C06_6 
REMARK    4  A    between atoms: C06_6  and  C07_7 
REMARK    5  A    between atoms: C07_7  and  O08_8 
REMARK    6  A    between atoms: O08_8  and  C09_9 
REMARK    7  A    between atoms: C12_12  and  N13_13 
REMARK    8  A    between atoms: N13_13  and  C14_14 
REMARK    9  A    between atoms: C21_21  and  C26_26 
ROOT
HETATM    1  C14   D T 601       1.559  11.265  -6.432  1.00 17.92     0.728 A 
HETATM    2  N15   D T 601       0.559  10.369  -6.565  1.00 19.07    -0.044 NA
HETATM    3  C16   D T 601       0.004  10.025  -7.734  1.00 18.16     0.163 A 
HETATM    4  C17   D T 601       0.471  10.654  -8.890  1.00 16.80     0.030 A 
HETATM    5  C18   D T 601       1.477  11.614  -8.755  1.00 18.08     0.151 A 
HETATM    6  N19   D T 601       1.990  11.893  -7.539  1.00 16.91    -0.074 NA
HETATM    7  C20   D T 601      -0.098  10.335 -10.138  1.00 17.65     0.034 A 
HETATM    8  C21   D T 601      -1.117   9.372 -10.220  1.00 18.53     0.047 A 
HETATM    9  C22   D T 601      -1.556   8.769  -9.016  1.00 19.48     0.260 A 
HETATM   10  O23   D T 601      -2.487   7.948  -9.149  1.00 21.52    -0.267 OA
HETATM   11  N24   D T 601      -0.995   9.083  -7.793  1.00 19.49    -0.301 N 
HETATM   12  C25   D T 601      -1.408   8.458  -6.546  1.00 20.07     0.161 C 
ENDROOT
BRANCH   1  13
HETATM   13  N13   D T 601       2.063  11.532  -5.217  1.00 20.14    -0.188 N 
HETATM   14 1H13   D T 601       1.948  12.398  -4.937  1.00 24.16     0.184 HD
BRANCH  13  15
HETATM   15  C12   D T 601       2.724  10.721  -4.322  1.00 24.69     0.049 A 
HETATM   16  C11   D T 601       3.866  10.031  -4.810  1.00 26.89     0.033 A 
HETATM   17  C10   D T 601       4.616   9.194  -3.956  1.00 28.95     0.039 A 
HETATM   18  C09   D T 601       4.240   9.052  -2.603  1.00 30.95     0.069 A 
HETATM   19  C35   D T 601       3.126   9.756  -2.113  1.00 28.80     0.039 A 
HETATM   20  C34   D T 601       2.378  10.571  -2.970  1.00 26.81     0.033 A 
BRANCH  18  21
HETATM   21  O08   D T 601       4.965   8.293  -1.752  1.00 36.09    -0.350 OA
BRANCH  21  22
HETATM   22  C07   D T 601       6.407   8.382  -1.916  1.00 42.63     0.195 C 
BRANCH  22  23
HETATM   23  C06   D T 601       6.908   7.128  -2.699  1.00 46.85     0.143 C 
BRANCH  23  24
HETATM   24  N03   D T 601       7.857   7.450  -3.832  1.00 51.06    -0.411 N 
BRANCH  24  25
HETATM   25  C02   D T 601       9.126   8.268  -3.613  1.00 53.85     0.112 C 
HETATM   26  C01   D T 601       9.160   9.754  -4.099  1.00 52.69     0.026 C 
ENDBRANCH  24  25
BRANCH  24  27
HETATM   27  C04   D T 601       7.554   6.813  -5.162  1.00 47.80     0.112 C 
HETATM   28  C05   D T 601       8.368   7.269  -6.404  1.00 44.89     0.026 C 
ENDBRANCH  24  27
ENDBRANCH  23  24
ENDBRANCH  22  23
ENDBRANCH  21  22
ENDBRANCH  18  21
ENDBRANCH  13  15
ENDBRANCH   1  13
BRANCH   8  29
HETATM   29  C26   D T 601      -1.699   9.017 -11.480  1.00 21.63     0.023 A 
HETATM   30  C27   D T 601      -2.628   9.890 -12.111  1.00 22.75     0.046 A 
HETATM   31 CL28   D T 601      -3.095  11.327 -11.357  1.00 22.59    -0.083 Cl
HETATM   32  C29   D T 601      -3.221   9.573 -13.362  1.00 24.08     0.025 A 
HETATM   33  C30   D T 601      -2.850   8.384 -14.029  1.00 25.63     0.003 A 
HETATM   34  C31   D T 601      -1.917   7.524 -13.433  1.00 25.41     0.025 A 
HETATM   35  C32   D T 601      -1.348   7.835 -12.173  1.00 23.77     0.046 A 
HETATM   36 CL33   D T 601      -0.234   6.751 -11.504  1.00 25.94    -0.083 Cl
ENDBRANCH   8  29
TORSDOF 9
ENDMDL
MODEL 3
REMARK VINA RESULT:    -8.125      2.083      3.102
REMARK INTER + INTRA:         -13.575
REMARK INTER:                 -12.610
REMARK INTRA:                  -0.965
REMARK UNBOUND:                -1.175
REMARK  9 active torsions:
REMARK  status: ('A' for Active; 'I' for Inactive)
REMARK    1  A    between atoms: C02_2  and  N03_3 
REMARK    2  A    between atoms: N03_3  and  C04_4 
REMARK    3  A    between atoms: N03_3  and  C06_6 
REMARK    4  A    between atoms: C06_6  and  C07_7 
REMARK    5  A    between atoms: C07_7  and  O08_8 
REMARK    6  A    between atoms: O08_8  and  C09_9 
REMARK    7  A    between atoms: C12_12  and  N13_13 
REMARK    8  A    between atoms: N13_13  and  C14_14 
REMARK    9  A    between atoms: C21_21  and  C26_26 
ROOT
HETATM    1  C14   D T 601       2.027  12.366  -7.751  1.00 17.92     0.728 A 
HETATM    2  N15   D T 601       1.340  11.269  -8.130  1.00 19.07    -0.044 NA
HETATM    3  C16   D T 601       0.151  11.296  -8.746  1.00 18.16     0.163 A 
HETATM    4  C17   D T 601      -0.430  12.543  -8.988  1.00 16.80     0.030 A 
HETATM    5  C18   D T 601       0.256  13.682  -8.560  1.00 18.08     0.151 A 
HETATM    6  N19   D T 601       1.456  13.565  -7.957  1.00 16.91    -0.074 NA
HETATM    7  C20   D T 601      -1.688  12.616  -9.617  1.00 17.65     0.034 A 
HETATM    8  C21   D T 601      -2.344  11.441 -10.018  1.00 18.53     0.047 A 
HETATM    9  C22   D T 601      -1.711  10.205  -9.742  1.00 19.48     0.260 A 
HETATM   10  O23   D T 601      -2.359   9.195 -10.089  1.00 21.52    -0.267 OA
HETATM   11  N24   D T 601      -0.476  10.135  -9.126  1.00 19.49    -0.301 N 
HETATM   12  C25   D T 601       0.207   8.879  -8.859  1.00 20.07     0.161 C 
ENDROOT
BRANCH   1  13
HETATM   13  N13   D T 601       3.222  12.236  -7.154  1.00 20.14    -0.188 N 
HETATM   14 1H13   D T 601       3.833  12.884  -7.376  1.00 24.16     0.184 HD
BRANCH  13  15
HETATM   15  C12   D T 601       3.682  11.292  -6.263  1.00 24.69     0.049 A 
HETATM   16  C11   D T 601       2.945  11.139  -5.059  1.00 26.89     0.033 A 
HETATM   17  C10   D T 601       3.333  10.180  -4.098  1.00 28.95     0.039 A 
HETATM   18  C09   D T 601       4.453   9.356  -4.341  1.00 30.95     0.069 A 
HETATM   19  C35   D T 601       5.167   9.489  -5.545  1.00 28.80     0.039 A 
HETATM   20  C34   D T 601       4.785  10.453  -6.484  1.00 26.81     0.033 A 
BRANCH  18  21
HETATM   21  O08   D T 601       4.822   8.401  -3.460  1.00 36.09    -0.350 OA
BRANCH  21  22
HETATM   22  C07   D T 601       5.958   8.740  -2.618  1.00 42.63     0.195 C 
BRANCH  22  23
HETATM   23  C06   D T 601       6.953   7.537  -2.599  1.00 46.85     0.143 C 
BRANCH  23  24
HETATM   24  N03   D T 601       7.906   7.511  -3.773  1.00 51.06    -0.411 N 
BRANCH  24  25
HETATM   25  C02   D T 601       7.571   6.779  -5.068  1.00 53.85     0.112 C 
HETATM   26  C01   D T 601       8.352   7.150  -6.371  1.00 52.69     0.026 C 
ENDBRANCH  24  25
BRANCH  24  27
HETATM   27  C04   D T 601       9.147   8.354  -3.648  1.00 47.80     0.112 C 
HETATM   28  C05   D T 601       9.141   9.778  -4.270  1.00 44.89     0.026 C 
ENDBRANCH  24  27
ENDBRANCH  23  24
ENDBRANCH  22  23
ENDBRANCH  21  22
ENDBRANCH  18  21
ENDBRANCH  13  15
ENDBRANCH   1  13
BRANCH   8  29
HETATM   29  C26   D T 601      -3.615  11.492 -10.675  1.00 21.63     0.023 A 
HETATM   30  C27   D T 601      -4.780  11.878  -9.954  1.00 22.75     0.046 A 
HETATM   31 CL28   D T 601      -4.684  12.229  -8.305  1.00 22.59    -0.083 Cl
HETATM   32  C29   D T 601      -6.056  11.943 -10.575  1.00 24.08     0.025 A 
HETATM   33  C30   D T 601      -6.175  11.666 -11.955  1.00 25.63     0.003 A 
HETATM   34  C31   D T 601      -5.035  11.307 -12.686  1.00 25.41     0.025 A 
HETATM   35  C32   D T 601      -3.768  11.220 -12.055  1.00 23.77     0.046 A 
HETATM   36 CL33   D T 601      -2.431  10.774 -12.991  1.00 25.94    -0.083 Cl
ENDBRANCH   8  29
TORSDOF 9
ENDMDL
MODEL 4
REMARK VINA RESULT:    -8.091      2.161      3.007
REMARK INTER + INTRA:         -13.523
REMARK INTER:                 -12.291
REMARK INTRA:                  -1.232
REMARK UNBOUND:                -1.175
REMARK  9 active torsions:
REMARK  status: ('A' for Active; 'I' for Inactive)
REMARK    1  A    between atoms: C02_2  and  N03_3 
REMARK    2  A    between atoms: N03_3  and  C04_4 
REMARK    3  A    between atoms: N03_3  and  C06_6 
REMARK    4  A    between atoms: C06_6  and  C07_7 
REMARK    5  A    between atoms: C07_7  and  O08_8 
REMARK    6  A    between atoms: O08_8  and  C09_9 
REMARK    7  A    between atoms: C12_12  and  N13_13 
REMARK    8  A    between atoms: N13_13  and  C14_14 
REMARK    9  A    between atoms: C21_21  and  C26_26 
ROOT
HETATM    1  C14   D T 601      -0.258  11.140  -5.414  1.00 17.92     0.728 A 
HETATM    2  N15   D T 601      -0.434  12.047  -6.397  1.00 19.07    -0.044 NA
HETATM    3  C16   D T 601      -1.101  11.810  -7.534  1.00 18.16     0.163 A 
HETATM    4  C17   D T 601      -1.629  10.532  -7.727  1.00 16.80     0.030 A 
HETATM    5  C18   D T 601      -1.415   9.575  -6.733  1.00 18.08     0.151 A 
HETATM    6  N19   D T 601      -0.740   9.900  -5.611  1.00 16.91    -0.074 NA
HETATM    7  C20   D T 601      -2.322  10.235  -8.917  1.00 17.65     0.034 A 
HETATM    8  C21   D T 601      -2.500  11.228  -9.894  1.00 18.53     0.047 A 
HETATM    9  C22   D T 601      -1.939  12.506  -9.647  1.00 19.48     0.260 A 
HETATM   10  O23   D T 601      -2.099  13.335 -10.567  1.00 21.52    -0.267 OA
HETATM   11  N24   D T 601      -1.261  12.795  -8.478  1.00 19.49    -0.301 N 
HETATM   12  C25   D T 601      -0.702  14.106  -8.189  1.00 20.07     0.161 C 
ENDROOT
BRANCH   1  13
HETATM   13  N13   D T 601       0.412  11.477  -4.302  1.00 20.14    -0.188 N 
HETATM   14 1H13   D T 601       0.161  12.279  -3.932  1.00 24.16     0.184 HD
BRANCH  13  15
HETATM   15  C12   D T 601       1.414  10.819  -3.624  1.00 24.69     0.049 A 
HETATM   16  C11   D T 601       2.591  10.519  -4.360  1.00 26.89     0.033 A 
HETATM   17  C10   D T 601       3.677   9.864  -3.740  1.00 28.95     0.039 A 
HETATM   18  C09   D T 601       3.601   9.518  -2.374  1.00 30.95     0.069 A 
HETATM   19  C35   D T 601       2.447   9.839  -1.637  1.00 28.80     0.039 A 
HETATM   20  C34   D T 601       1.368  10.473  -2.265  1.00 26.81     0.033 A 
BRANCH  18  21
HETATM   21  O08   D T 601       4.641   8.931  -1.743  1.00 36.09    -0.350 OA
BRANCH  21  22
HETATM   22  C07   D T 601       5.505   8.124  -2.590  1.00 42.63     0.195 C 
BRANCH  22  23
HETATM   23  C06   D T 601       6.932   8.758  -2.611  1.00 46.85     0.143 C 
BRANCH  23  24
HETATM   24  N03   D T 601       7.710   8.474  -3.876  1.00 51.06    -0.411 N 
BRANCH  24  25
HETATM   25  C02   D T 601       7.018   8.078  -5.177  1.00 53.85     0.112 C 
HETATM   26  C01   D T 601       6.519   9.205  -6.141  1.00 52.69     0.026 C 
ENDBRANCH  24  25
BRANCH  24  27
HETATM   27  C04   D T 601       9.193   8.728  -3.822  1.00 47.80     0.112 C 
HETATM   28  C05   D T 601       9.756   9.984  -4.544  1.00 44.89     0.026 C 
ENDBRANCH  24  27
ENDBRANCH  23  24
ENDBRANCH  22  23
ENDBRANCH  21  22
ENDBRANCH  18  21
ENDBRANCH  13  15
ENDBRANCH   1  13
BRANCH   8  29
HETATM   29  C26   D T 601      -3.216  10.956 -11.103  1.00 21.63     0.023 A 
HETATM   30  C27   D T 601      -2.576  10.280 -12.179  1.00 22.75     0.046 A 
HETATM   31 CL28   D T 601      -0.950   9.840 -12.062  1.00 22.59    -0.083 Cl
HETATM   32  C29   D T 601      -3.257   9.989 -13.391  1.00 24.08     0.025 A 
HETATM   33  C30   D T 601      -4.621  10.334 -13.524  1.00 25.63     0.003 A 
HETATM   34  C31   D T 601      -5.274  10.979 -12.465  1.00 25.41     0.025 A 
HETATM   35  C32   D T 601      -4.582  11.288 -11.268  1.00 23.77     0.046 A 
HETATM   36 CL33   D T 601      -5.426  12.074 -10.030  1.00 25.94    -0.083 Cl
ENDBRANCH   8  29
TORSDOF 9
ENDMDL
MODEL 5
REMARK VINA RESULT:    -7.489      7.497     13.265
REMARK INTER + INTRA:         -12.604
REMARK INTER:                 -11.879
REMARK INTRA:                  -0.725
REMARK UNBOUND:                -1.175
REMARK  9 active torsions:
REMARK  status: ('A' for Active; 'I' for Inactive)
REMARK    1  A    between atoms: C02_2  and  N03_3 
REMARK    2  A    between atoms: N03_3  and  C04_4 
REMARK    3  A    between atoms: N03_3  and  C06_6 
REMARK    4  A    between atoms: C06_6  and  C07_7 
REMARK    5  A    between atoms: C07_7  and  O08_8 
REMARK    6  A    between atoms: O08_8  and  C09_9 
REMARK    7  A    between atoms: C12_12  and  N13_13 
REMARK    8  A    between atoms: N13_13  and  C14_14 
REMARK    9  A    between atoms: C21_21  and  C26_26 
ROOT
HETATM    1  C14   D T 601      -4.045  15.052 -10.234  1.00 17.92     0.728 A 
HETATM    2  N15   D T 601      -4.309  13.949 -10.965  1.00 19.07    -0.044 NA
HETATM    3  C16   D T 601      -3.623  12.802 -10.878  1.00 18.16     0.163 A 
HETATM    4  C17   D T 601      -2.545  12.752  -9.992  1.00 16.80     0.030 A 
HETATM    5  C18   D T 601      -2.239  13.903  -9.263  1.00 18.08     0.151 A 
HETATM    6  N19   D T 601      -2.990  15.015  -9.402  1.00 16.91    -0.074 NA
HETATM    7  C20   D T 601      -1.786  11.571  -9.883  1.00 17.65     0.034 A 
HETATM    8  C21   D T 601      -2.125  10.443 -10.648  1.00 18.53     0.047 A 
HETATM    9  C22   D T 601      -3.224  10.552 -11.534  1.00 19.48     0.260 A 
HETATM   10  O23   D T 601      -3.455   9.529 -12.212  1.00 21.52    -0.267 OA
HETATM   11  N24   D T 601      -3.969  11.712 -11.638  1.00 19.49    -0.301 N 
HETATM   12  C25   D T 601      -5.120  11.839 -12.519  1.00 20.07     0.161 C 
ENDROOT
BRANCH   1  13
HETATM   13  N13   D T 601      -4.801  16.151 -10.380  1.00 20.14    -0.188 N 
HETATM   14 1H13   D T 601      -4.328  16.929 -10.495  1.00 24.16     0.184 HD
BRANCH  13  15
HETATM   15  C12   D T 601      -6.170  16.303 -10.385  1.00 24.69     0.049 A 
HETATM   16  C11   D T 601      -6.831  16.171  -9.135  1.00 26.89     0.033 A 
HETATM   17  C10   D T 601      -8.230  16.332  -9.044  1.00 28.95     0.039 A 
HETATM   18  C09   D T 601      -8.978  16.643 -10.200  1.00 30.95     0.069 A 
HETATM   19  C35   D T 601      -8.321  16.802 -11.433  1.00 28.80     0.039 A 
HETATM   20  C34   D T 601      -6.936  16.623 -11.517  1.00 26.81     0.033 A 
BRANCH  18  21
HETATM   21  O08   D T 601     -10.313  16.847 -10.135  1.00 36.09    -0.350 OA
BRANCH  21  22
HETATM   22  C07   D T 601     -11.026  16.680 -11.391  1.00 42.63     0.195 C 
BRANCH  22  23
HETATM   23  C06   D T 601     -12.561  16.668 -11.105  1.00 46.85     0.143 C 
BRANCH  23  24
HETATM   24  N03   D T 601     -13.330  15.656 -11.926  1.00 51.06    -0.411 N 
BRANCH  24  25
HETATM   25  C02   D T 601     -12.951  15.332 -13.367  1.00 53.85     0.112 C 
HETATM   26  C01   D T 601     -13.520  14.031 -14.024  1.00 52.69     0.026 C 
ENDBRANCH  24  25
BRANCH  24  27
HETATM   27  C04   D T 601     -14.409  14.891 -11.207  1.00 47.80     0.112 C 
HETATM   28  C05   D T 601     -14.446  14.944  -9.655  1.00 44.89     0.026 C 
ENDBRANCH  24  27
ENDBRANCH  23  24
ENDBRANCH  22  23
ENDBRANCH  21  22
ENDBRANCH  18  21
ENDBRANCH  13  15
ENDBRANCH   1  13
BRANCH   8  29
HETATM   29  C26   D T 601      -1.378   9.226 -10.541  1.00 21.63     0.023 A 
HETATM   30  C27   D T 601      -1.524   8.394  -9.396  1.00 22.75     0.046 A 
HETATM   31 CL28   D T 601      -2.538   8.859  -8.128  1.00 22.59    -0.083 Cl
HETATM   32  C29   D T 601      -0.803   7.178  -9.258  1.00 24.08     0.025 A 
HETATM   33  C30   D T 601       0.048   6.750 -10.301  1.00 25.63     0.003 A 
HETATM   34  C31   D T 601       0.186   7.545 -11.447  1.00 25.41     0.025 A 
HETATM   35  C32   D T 601      -0.518   8.769 -11.567  1.00 23.77     0.046 A 
HETATM   36 CL33   D T 601      -0.303   9.687 -12.973  1.00 25.94    -0.083 Cl
ENDBRANCH   8  29
TORSDOF 9
ENDMDL
MODEL 6
REMARK VINA RESULT:    -7.484      8.226     13.782
REMARK INTER + INTRA:         -12.596
REMARK INTER:                 -11.714
REMARK INTRA:                  -0.882
REMARK UNBOUND:                -1.175
REMARK  9 active torsions:
REMARK  status: ('A' for Active; 'I' for Inactive)
REMARK    1  A    between atoms: C02_2  and  N03_3 
REMARK    2  A    between atoms: N03_3  and  C04_4 
REMARK    3  A    between atoms: N03_3  and  C06_6 
REMARK    4  A    between atoms: C06_6  and  C07_7 
REMARK    5  A    between atoms: C07_7  and  O08_8 
REMARK    6  A    between atoms: O08_8  and  C09_9 
REMARK    7  A    between atoms: C12_12  and  N13_13 
REMARK    8  A    between atoms: N13_13  and  C14_14 
REMARK    9  A    between atoms: C21_21  and  C26_26 
ROOT
HETATM    1  C14   D T 601      -5.529  14.394 -10.533  1.00 17.92     0.728 A 
HETATM    2  N15   D T 601      -4.271  14.125 -10.127  1.00 19.07    -0.044 NA
HETATM    3  C16   D T 601      -3.668  12.939 -10.271  1.00 18.16     0.163 A 
HETATM    4  C17   D T 601      -4.398  11.901 -10.855  1.00 16.80     0.030 A 
HETATM    5  C18   D T 601      -5.716  12.161 -11.239  1.00 18.08     0.151 A 
HETATM    6  N19   D T 601      -6.244  13.390 -11.069  1.00 16.91    -0.074 NA
HETATM    7  C20   D T 601      -3.808  10.632 -11.009  1.00 17.65     0.034 A 
HETATM    8  C21   D T 601      -2.483  10.417 -10.594  1.00 18.53     0.047 A 
HETATM    9  C22   D T 601      -1.792  11.503 -10.003  1.00 19.48     0.260 A 
HETATM   10  O23   D T 601      -0.632  11.241  -9.623  1.00 21.52    -0.267 OA
HETATM   11  N24   D T 601      -2.373  12.749  -9.855  1.00 19.49    -0.301 N 
HETATM   12  C25   D T 601      -1.674  13.886  -9.278  1.00 20.07     0.161 C 
ENDROOT
BRANCH   1  13
HETATM   13  N13   D T 601      -6.042  15.622 -10.360  1.00 20.14    -0.188 N 
HETATM   14 1H13   D T 601      -5.505  16.199  -9.889  1.00 24.16     0.184 HD
BRANCH  13  15
HETATM   15  C12   D T 601      -7.241  16.160 -10.772  1.00 24.69     0.049 A 
HETATM   16  C11   D T 601      -8.257  16.284  -9.788  1.00 26.89     0.033 A 
HETATM   17  C10   D T 601      -9.510  16.843 -10.117  1.00 28.95     0.039 A 
HETATM   18  C09   D T 601      -9.752  17.298 -11.431  1.00 30.95     0.069 A 
HETATM   19  C35   D T 601      -8.738  17.201 -12.400  1.00 28.80     0.039 A 
HETATM   20  C34   D T 601      -7.504  16.630 -12.069  1.00 26.81     0.033 A 
BRANCH  18  21
HETATM   21  O08   D T 601     -10.927  17.878 -11.765  1.00 36.09    -0.350 OA
BRANCH  21  22
HETATM   22  C07   D T 601     -11.864  18.054 -10.667  1.00 42.63     0.195 C 
BRANCH  22  23
HETATM   23  C06   D T 601     -13.126  17.172 -10.930  1.00 46.85     0.143 C 
BRANCH  23  24
HETATM   24  N03   D T 601     -14.014  16.996  -9.719  1.00 51.06    -0.411 N 
BRANCH  24  25
HETATM   25  C02   D T 601     -14.534  18.188  -8.920  1.00 53.85     0.112 C 
HETATM   26  C01   D T 601     -14.160  18.303  -7.406  1.00 52.69     0.026 C 
ENDBRANCH  24  25
BRANCH  24  27
HETATM   27  C04   D T 601     -14.466  15.592  -9.417  1.00 47.80     0.112 C 
HETATM   28  C05   D T 601     -14.854  14.668 -10.605  1.00 44.89     0.026 C 
ENDBRANCH  24  27
ENDBRANCH  23  24
ENDBRANCH  22  23
ENDBRANCH  21  22
ENDBRANCH  18  21
ENDBRANCH  13  15
ENDBRANCH   1  13
BRANCH   8  29
HETATM   29  C26   D T 601      -1.856   9.140 -10.756  1.00 21.63     0.023 A 
HETATM   30  C27   D T 601      -1.343   8.750 -12.025  1.00 22.75     0.046 A 
HETATM   31 CL28   D T 601      -1.516   9.765 -13.363  1.00 22.59    -0.083 Cl
HETATM   32  C29   D T 601      -0.711   7.493 -12.221  1.00 24.08     0.025 A 
HETATM   33  C30   D T 601      -0.540   6.620 -11.124  1.00 25.63     0.003 A 
HETATM   34  C31   D T 601      -1.018   6.998  -9.862  1.00 25.41     0.025 A 
HETATM   35  C32   D T 601      -1.669   8.244  -9.678  1.00 23.77     0.046 A 
HETATM   36 CL33   D T 601      -2.230   8.638  -8.131  1.00 25.94    -0.083 Cl
ENDBRANCH   8  29
TORSDOF 9
ENDMDL
MODEL 7
REMARK VINA RESULT:    -7.322      8.102     13.828
REMARK INTER + INTRA:         -12.349
REMARK INTER:                 -11.244
REMARK INTRA:                  -1.105
REMARK UNBOUND:                -1.175
REMARK  9 active torsions:
REMARK  status: ('A' for Active; 'I' for Inactive)
REMARK    1  A    between atoms: C02_2  and  N03_3 
REMARK    2  A    between atoms: N03_3  and  C04_4 
REMARK    3  A    between atoms: N03_3  and  C06_6 
REMARK    4  A    between atoms: C06_6  and  C07_7 
REMARK    5  A    between atoms: C07_7  and  O08_8 
REMARK    6  A    between atoms: O08_8  and  C09_9 
REMARK    7  A    between atoms: C12_12  and  N13_13 
REMARK    8  A    between atoms: N13_13  and  C14_14 
REMARK    9  A    between atoms: C21_21  and  C26_26 
ROOT
HETATM    1  C14   D T 601      -5.616  14.324 -10.489  1.00 17.92     0.728 A 
HETATM    2  N15   D T 601      -4.345  14.123 -10.084  1.00 19.07    -0.044 NA
HETATM    3  C16   D T 601      -3.685  12.965 -10.209  1.00 18.16     0.163 A 
HETATM    4  C17   D T 601      -4.366  11.883 -10.773  1.00 16.80     0.030 A 
HETATM    5  C18   D T 601      -5.696  12.072 -11.156  1.00 18.08     0.151 A 
HETATM    6  N19   D T 601      -6.282  13.277 -11.005  1.00 16.91    -0.074 NA
HETATM    7  C20   D T 601      -3.715  10.642 -10.906  1.00 17.65     0.034 A 
HETATM    8  C21   D T 601      -2.381  10.498 -10.492  1.00 18.53     0.047 A 
HETATM    9  C22   D T 601      -1.741  11.627  -9.923  1.00 19.48     0.260 A 
HETATM   10  O23   D T 601      -0.569  11.428  -9.543  1.00 21.52    -0.267 OA
HETATM   11  N24   D T 601      -2.381  12.845  -9.795  1.00 19.49    -0.301 N 
HETATM   12  C25   D T 601      -1.737  14.025  -9.241  1.00 20.07     0.161 C 
ENDROOT
BRANCH   1  13
HETATM   13  N13   D T 601      -6.187  15.529 -10.337  1.00 20.14    -0.188 N 
HETATM   14 1H13   D T 601      -5.705  16.119  -9.825  1.00 24.16     0.184 HD
BRANCH  13  15
HETATM   15  C12   D T 601      -7.377  16.025 -10.820  1.00 24.69     0.049 A 
HETATM   16  C11   D T 601      -7.395  16.423 -12.183  1.00 26.89     0.033 A 
HETATM   17  C10   D T 601      -8.577  16.924 -12.768  1.00 28.95     0.039 A 
HETATM   18  C09   D T 601      -9.757  17.017 -11.998  1.00 30.95     0.069 A 
HETATM   19  C35   D T 601      -9.747  16.598 -10.656  1.00 28.80     0.039 A 
HETATM   20  C34   D T 601      -8.566  16.118 -10.080  1.00 26.81     0.033 A 
BRANCH  18  21
HETATM   21  O08   D T 601     -10.915  17.451 -12.543  1.00 36.09    -0.350 OA
BRANCH  21  22
HETATM   22  C07   D T 601     -12.122  16.878 -11.971  1.00 42.63     0.195 C 
BRANCH  22  23
HETATM   23  C06   D T 601     -13.067  18.034 -11.514  1.00 46.85     0.143 C 
BRANCH  23  24
HETATM   24  N03   D T 601     -13.763  17.773 -10.197  1.00 51.06    -0.411 N 
BRANCH  24  25
HETATM   25  C02   D T 601     -14.737  16.613 -10.016  1.00 53.85     0.112 C 
HETATM   26  C01   D T 601     -14.184  15.228  -9.546  1.00 52.69     0.026 C 
ENDBRANCH  24  25
BRANCH  24  27
HETATM   27  C04   D T 601     -13.348  18.637  -9.037  1.00 47.80     0.112 C 
HETATM   28  C05   D T 601     -11.860  19.071  -8.931  1.00 44.89     0.026 C 
ENDBRANCH  24  27
ENDBRANCH  23  24
ENDBRANCH  22  23
ENDBRANCH  21  22
ENDBRANCH  18  21
ENDBRANCH  13  15
ENDBRANCH   1  13
BRANCH   8  29
HETATM   29  C26   D T 601      -1.693   9.251 -10.634  1.00 21.63     0.023 A 
HETATM   30  C27   D T 601      -1.573   8.368  -9.525  1.00 22.75     0.046 A 
HETATM   31 CL28   D T 601      -2.194   8.806  -8.017  1.00 22.59    -0.083 Cl
HETATM   32  C29   D T 601      -0.901   7.121  -9.630  1.00 24.08     0.025 A 
HETATM   33  C30   D T 601      -0.376   6.716 -10.878  1.00 25.63     0.003 A 
HETATM   34  C31   D T 601      -0.506   7.562 -11.987  1.00 25.41     0.025 A 
HETATM   35  C32   D T 601      -1.156   8.816 -11.869  1.00 23.77     0.046 A 
HETATM   36 CL33   D T 601      -1.273   9.795 -13.244  1.00 25.94    -0.083 Cl
ENDBRANCH   8  29
TORSDOF 9
ENDMDL
MODEL 8
REMARK VINA RESULT:    -7.266      4.979      7.258
REMARK INTER + INTRA:         -12.264
REMARK INTER:                 -11.169
REMARK INTRA:                  -1.095
REMARK UNBOUND:                -1.175
REMARK  9 active torsions:
REMARK  status: ('A' for Active; 'I' for Inactive)
REMARK    1  A    between atoms: C02_2  and  N03_3 
REMARK    2  A    between atoms: N03_3  and  C04_4 
REMARK    3  A    between atoms: N03_3  and  C06_6 
REMARK    4  A    between atoms: C06_6  and  C07_7 
REMARK    5  A    between atoms: C07_7  and  O08_8 
REMARK    6  A    between atoms: O08_8  and  C09_9 
REMARK    7  A    between atoms: C12_12  and  N13_13 
REMARK    8  A    between atoms: N13_13  and  C14_14 
REMARK    9  A    between atoms: C21_21  and  C26_26 
ROOT
HETATM    1  C14   D T 601       1.645  11.949  -5.882  1.00 17.92     0.728 A 
HETATM    2  N15   D T 601       0.614  11.086  -5.993  1.00 19.07    -0.044 NA
HETATM    3  C16   D T 601       0.201  10.546  -7.147  1.00 18.16     0.163 A 
HETATM    4  C17   D T 601       0.863  10.923  -8.318  1.00 16.80     0.030 A 
HETATM    5  C18   D T 601       1.904  11.849  -8.216  1.00 18.08     0.151 A 
HETATM    6  N19   D T 601       2.265  12.335  -7.010  1.00 16.91    -0.074 NA
HETATM    7  C20   D T 601       0.448  10.394  -9.555  1.00 17.65     0.034 A 
HETATM    8  C21   D T 601      -0.613   9.475  -9.608  1.00 18.53     0.047 A 
HETATM    9  C22   D T 601      -1.251   9.133  -8.391  1.00 19.48     0.260 A 
HETATM   10  O23   D T 601      -2.209   8.341  -8.506  1.00 21.52    -0.267 OA
HETATM   11  N24   D T 601      -0.841   9.652  -7.177  1.00 19.49    -0.301 N 
HETATM   12  C25   D T 601      -1.461   9.295  -5.911  1.00 20.07     0.161 C 
ENDROOT
BRANCH   1  13
HETATM   13  N13   D T 601       1.996  12.423  -4.677  1.00 20.14    -0.188 N 
HETATM   14 1H13   D T 601       2.668  11.954  -4.262  1.00 24.16     0.184 HD
BRANCH  13  15
HETATM   15  C12   D T 601       1.515  13.495  -3.960  1.00 24.69     0.049 A 
HETATM   16  C11   D T 601       2.320  13.956  -2.884  1.00 26.89     0.033 A 
HETATM   17  C10   D T 601       1.914  15.063  -2.108  1.00 28.95     0.039 A 
HETATM   18  C09   D T 601       0.707  15.729  -2.412  1.00 30.95     0.069 A 
HETATM   19  C35   D T 601      -0.077  15.290  -3.494  1.00 28.80     0.039 A 
HETATM   20  C34   D T 601       0.324  14.181  -4.247  1.00 26.81     0.033 A 
BRANCH  18  21
HETATM   21  O08   D T 601       0.315  16.818  -1.715  1.00 36.09    -0.350 OA
BRANCH  21  22
HETATM   22  C07   D T 601       1.251  17.930  -1.725  1.00 42.63     0.195 C 
BRANCH  22  23
HETATM   23  C06   D T 601       0.988  18.805  -2.991  1.00 46.85     0.143 C 
BRANCH  23  24
HETATM   24  N03   D T 601       1.641  20.168  -2.942  1.00 51.06    -0.411 N 
BRANCH  24  25
HETATM   25  C02   D T 601       2.901  20.488  -3.741  1.00 53.85     0.112 C 
HETATM   26  C01   D T 601       2.753  21.005  -5.210  1.00 52.69     0.026 C 
ENDBRANCH  24  25
BRANCH  24  27
HETATM   27  C04   D T 601       0.912  21.233  -2.167  1.00 47.80     0.112 C 
HETATM   28  C05   D T 601      -0.590  21.481  -2.481  1.00 44.89     0.026 C 
ENDBRANCH  24  27
ENDBRANCH  23  24
ENDBRANCH  22  23
ENDBRANCH  21  22
ENDBRANCH  18  21
ENDBRANCH  13  15
ENDBRANCH   1  13
BRANCH   8  29
HETATM   29  C26   D T 601      -1.040   8.910 -10.852  1.00 21.63     0.023 A 
HETATM   30  C27   D T 601      -1.880   9.654 -11.727  1.00 22.75     0.046 A 
HETATM   31 CL28   D T 601      -2.424  11.190 -11.283  1.00 22.59    -0.083 Cl
HETATM   32  C29   D T 601      -2.320   9.127 -12.970  1.00 24.08     0.025 A 
HETATM   33  C30   D T 601      -1.879   7.849 -13.380  1.00 25.63     0.003 A 
HETATM   34  C31   D T 601      -1.032   7.111 -12.542  1.00 25.41     0.025 A 
HETATM   35  C32   D T 601      -0.617   7.634 -11.292  1.00 23.77     0.046 A 
HETATM   36 CL33   D T 601       0.400   6.690 -10.323  1.00 25.94    -0.083 Cl
ENDBRANCH   8  29
TORSDOF 9
ENDMDL
MODEL 9
REMARK VINA RESULT:    -7.220      6.583     11.011
REMARK INTER + INTRA:         -12.193
REMARK INTER:                 -10.509
REMARK INTRA:                  -1.684
REMARK UNBOUND:                -1.175
REMARK  9 active torsions:
REMARK  status: ('A' for Active; 'I' for Inactive)
REMARK    1  A    between atoms: C02_2  and  N03_3 
REMARK    2  A    between atoms: N03_3  and  C04_4 
REMARK    3  A    between atoms: N03_3  and  C06_6 
REMARK    4  A    between atoms: C06_6  and  C07_7 
REMARK    5  A    between atoms: C07_7  and  O08_8 
REMARK    6  A    between atoms: O08_8  and  C09_9 
REMARK    7  A    between atoms: C12_12  and  N13_13 
REMARK    8  A    between atoms: N13_13  and  C14_14 
REMARK    9  A    between atoms: C21_21  and  C26_26 
ROOT
HETATM    1  C14   D T 601      -3.363  13.845  -6.913  1.00 17.92     0.728 A 
HETATM    2  N15   D T 601      -2.150  13.514  -7.401  1.00 19.07    -0.044 NA
HETATM    3  C16   D T 601      -1.886  12.383  -8.069  1.00 18.16     0.163 A 
HETATM    4  C17   D T 601      -2.930  11.473  -8.249  1.00 16.80     0.030 A 
HETATM    5  C18   D T 601      -4.179  11.789  -7.710  1.00 18.08     0.151 A 
HETATM    6  N19   D T 601      -4.362  12.957  -7.060  1.00 16.91    -0.074 NA
HETATM    7  C20   D T 601      -2.692  10.264  -8.930  1.00 17.65     0.034 A 
HETATM    8  C21   D T 601      -1.414   9.985  -9.443  1.00 18.53     0.047 A 
HETATM    9  C22   D T 601      -0.392  10.941  -9.226  1.00 19.48     0.260 A 
HETATM   10  O23   D T 601       0.729  10.621  -9.674  1.00 21.52    -0.267 OA
HETATM   11  N24   D T 601      -0.629  12.128  -8.559  1.00 19.49    -0.301 N 
HETATM   12  C25   D T 601       0.396  13.138  -8.349  1.00 20.07     0.161 C 
ENDROOT
BRANCH   1  13
HETATM   13  N13   D T 601      -3.533  15.011  -6.271  1.00 20.14    -0.188 N 
HETATM   14 1H13   D T 601      -2.990  15.128  -5.540  1.00 24.16     0.184 HD
BRANCH  13  15
HETATM   15  C12   D T 601      -4.388  16.059  -6.527  1.00 24.69     0.049 A 
HETATM   16  C11   D T 601      -3.931  17.048  -7.438  1.00 26.89     0.033 A 
HETATM   17  C10   D T 601      -4.750  18.147  -7.774  1.00 28.95     0.039 A 
HETATM   18  C09   D T 601      -6.041  18.258  -7.213  1.00 30.95     0.069 A 
HETATM   19  C35   D T 601      -6.505  17.266  -6.332  1.00 28.80     0.039 A 
HETATM   20  C34   D T 601      -5.680  16.188  -5.992  1.00 26.81     0.033 A 
BRANCH  18  21
HETATM   21  O08   D T 601      -6.863  19.276  -7.550  1.00 36.09    -0.350 OA
BRANCH  21  22
HETATM   22  C07   D T 601      -8.155  18.877  -8.087  1.00 42.63     0.195 C 
BRANCH  22  23
HETATM   23  C06   D T 601      -7.968  18.405  -9.563  1.00 46.85     0.143 C 
BRANCH  23  24
HETATM   24  N03   D T 601      -8.480  17.007  -9.830  1.00 51.06    -0.411 N 
BRANCH  24  25
HETATM   25  C02   D T 601      -7.683  15.767  -9.436  1.00 53.85     0.112 C 
HETATM   26  C01   D T 601      -6.255  15.563 -10.041  1.00 52.69     0.026 C 
ENDBRANCH  24  25
BRANCH  24  27
HETATM   27  C04   D T 601      -9.875  16.899 -10.385  1.00 47.80     0.112 C 
HETATM   28  C05   D T 601     -10.048  16.613 -11.903  1.00 44.89     0.026 C 
ENDBRANCH  24  27
ENDBRANCH  23  24
ENDBRANCH  22  23
ENDBRANCH  21  22
ENDBRANCH  18  21
ENDBRANCH  13  15
ENDBRANCH   1  13
BRANCH   8  29
HETATM   29  C26   D T 601      -1.152   8.770 -10.154  1.00 21.63     0.023 A 
HETATM   30  C27   D T 601      -1.397   8.692 -11.554  1.00 22.75     0.046 A 
HETATM   31 CL28   D T 601      -2.047  10.013 -12.380  1.00 22.59    -0.083 Cl
HETATM   32  C29   D T 601      -1.145   7.505 -12.292  1.00 24.08     0.025 A 
HETATM   33  C30   D T 601      -0.592   6.381 -11.637  1.00 25.63     0.003 A 
HETATM   34  C31   D T 601      -0.323   6.448 -10.264  1.00 25.41     0.025 A 
HETATM   35  C32   D T 601      -0.600   7.628  -9.529  1.00 23.77     0.046 A 
HETATM   36 CL33   D T 601      -0.259   7.642  -7.871  1.00 25.94    -0.083 Cl
ENDBRANCH   8  29
TORSDOF 9
ENDMDL
