MODEL 1
REMARK VINA RESULT:    -7.945      0.000      0.000
REMARK INTER + INTRA:         -13.495
REMARK INTER:                 -12.125
REMARK INTRA:                  -1.370
REMARK UNBOUND:                -1.370
REMARK  9 active torsions:
REMARK  status: ('A' for Active; 'I' for Inactive)
REMARK    1  A    between atoms: C02_2  and  N03_3 
REMARK    2  A    between atoms: N03_3  and  C04_4 
REMARK    3  A    between atoms: N03_3  and  C06_6 
REMARK    4  A    between atoms: C06_6  and  C07_7 
REMARK    5  A    between atoms: C07_7  and  O08_8 
REMARK    6  A    between atoms: O08_8  and  C09_9 
REMARK    7  A    between atoms: C12_12  and  N13_13 
REMARK    8  A    between atoms: N13_13  and  C14_14 
REMARK    9  A    between atoms: C21_21  and  C26_26 
ROOT
HETATM    1  C14   D T 601      -3.425  -1.342   7.938  1.00 17.92     0.728 A 
HETATM    2  N15   D T 601      -2.516  -1.819   7.064  1.00 19.07    -0.044 NA
HETATM    3  C16   D T 601      -1.365  -2.407   7.414  1.00 18.16     0.163 A 
HETATM    4  C17   D T 601      -1.072  -2.508   8.775  1.00 16.80     0.030 A 
HETATM    5  C18   D T 601      -1.989  -1.977   9.686  1.00 18.08     0.151 A 
HETATM    6  N19   D T 601      -3.132  -1.413   9.248  1.00 16.91    -0.074 NA
HETATM    7  C20   D T 601       0.137  -3.102   9.188  1.00 17.65     0.034 A 
HETATM    8  C21   D T 601       1.034  -3.608   8.233  1.00 18.53     0.047 A 
HETATM    9  C22   D T 601       0.687  -3.474   6.866  1.00 19.48     0.260 A 
HETATM   10  O23   D T 601       1.540  -3.911   6.063  1.00 21.52    -0.267 OA
HETATM   11  N24   D T 601      -0.500  -2.892   6.464  1.00 19.49    -0.301 N 
HETATM   12  C25   D T 601      -0.891  -2.768   5.068  1.00 20.07     0.161 C 
ENDROOT
BRANCH   1  13
HETATM   13  N13   D T 601      -4.560  -0.784   7.489  1.00 20.14    -0.188 N 
HETATM   14 1H13   D T 601      -4.728   0.057   7.815  1.00 24.16     0.184 HD
BRANCH  13  15
HETATM   15  C12   D T 601      -5.514  -1.266   6.621  1.00 24.69     0.049 A 
HETATM   16  C11   D T 601      -5.699  -2.673   6.594  1.00 26.89     0.033 A 
HETATM   17  C10   D T 601      -6.670  -3.253   5.748  1.00 28.95     0.039 A 
HETATM   18  C09   D T 601      -7.475  -2.427   4.934  1.00 30.95     0.069 A 
HETATM   19  C35   D T 601      -7.312  -1.031   4.981  1.00 28.80     0.039 A 
HETATM   20  C34   D T 601      -6.336  -0.468   5.810  1.00 26.81     0.033 A 
BRANCH  18  21
HETATM   21  O08   D T 601      -8.441  -2.951   4.148  1.00 36.09    -0.350 OA
BRANCH  21  22
HETATM   22  C07   D T 601      -8.550  -2.359   2.823  1.00 42.63     0.195 C 
BRANCH  22  23
HETATM   23  C06   D T 601      -7.691  -3.195   1.823  1.00 46.85     0.143 C 
BRANCH  23  24
HETATM   24  N03   D T 601      -7.952  -4.684   1.885  1.00 51.06    -0.411 N 
BRANCH  24  25
HETATM   25  C02   D T 601      -9.350  -5.266   1.700  1.00 53.85     0.112 C 
HETATM   26  C01   D T 601      -9.521  -6.558   0.835  1.00 52.69     0.026 C 
ENDBRANCH  24  25
BRANCH  24  27
HETATM   27  C04   D T 601      -6.742  -5.572   2.010  1.00 47.80     0.112 C 
HETATM   28  C05   D T 601      -5.462  -4.990   2.670  1.00 44.89     0.026 C 
ENDBRANCH  24  27
ENDBRANCH  23  24
ENDBRANCH  22  23
ENDBRANCH  21  22
ENDBRANCH  18  21
ENDBRANCH  13  15
ENDBRANCH   1  13
BRANCH   8  29
HETATM   29  C26   D T 601       2.260  -4.233   8.628  1.00 21.63     0.023 A 
HETATM   30  C27   D T 601       2.320  -5.643   8.811  1.00 22.75     0.046 A 
HETATM   31 CL28   D T 601       0.933  -6.587   8.618  1.00 22.59    -0.083 Cl
HETATM   32  C29   D T 601       3.519  -6.296   9.199  1.00 24.08     0.025 A 
HETATM   33  C30   D T 601       4.702  -5.541   9.365  1.00 25.63     0.003 A 
HETATM   34  C31   D T 601       4.668  -4.155   9.164  1.00 25.41     0.025 A 
HETATM   35  C32   D T 601       3.460  -3.506   8.800  1.00 23.77     0.046 A 
HETATM   36 CL33   D T 601       3.483  -1.829   8.581  1.00 25.94    -0.083 Cl
ENDBRANCH   8  29
TORSDOF 9
ENDMDL
MODEL 2
REMARK VINA RESULT:    -7.813      1.167      2.031
REMARK INTER + INTRA:         -13.294
REMARK INTER:                 -11.914
REMARK INTRA:                  -1.380
REMARK UNBOUND:                -1.370
REMARK  9 active torsions:
REMARK  status: ('A' for Active; 'I' for Inactive)
REMARK    1  A    between atoms: C02_2  and  N03_3 
REMARK    2  A    between atoms: N03_3  and  C04_4 
REMARK    3  A    between atoms: N03_3  and  C06_6 
REMARK    4  A    between atoms: C06_6  and  C07_7 
REMARK    5  A    between atoms: C07_7  and  O08_8 
REMARK    6  A    between atoms: O08_8  and  C09_9 
REMARK    7  A    between atoms: C12_12  and  N13_13 
REMARK    8  A    between atoms: N13_13  and  C14_14 
REMARK    9  A    between atoms: C21_21  and  C26_26 
ROOT
HETATM    1  C14   D T 601      -3.166  -1.812   7.214  1.00 17.92     0.728 A 
HETATM    2  N15   D T 601      -2.496  -1.852   8.383  1.00 19.07    -0.044 NA
HETATM    3  C16   D T 601      -1.249  -2.321   8.525  1.00 18.16     0.163 A 
HETATM    4  C17   D T 601      -0.610  -2.827   7.391  1.00 16.80     0.030 A 
HETATM    5  C18   D T 601      -1.315  -2.828   6.184  1.00 18.08     0.151 A 
HETATM    6  N19   D T 601      -2.564  -2.325   6.128  1.00 16.91    -0.074 NA
HETATM    7  C20   D T 601       0.695  -3.347   7.498  1.00 17.65     0.034 A 
HETATM    8  C21   D T 601       1.357  -3.337   8.736  1.00 18.53     0.047 A 
HETATM    9  C22   D T 601       0.659  -2.816   9.853  1.00 19.48     0.260 A 
HETATM   10  O23   D T 601       1.285  -2.866  10.934  1.00 21.52    -0.267 OA
HETATM   11  N24   D T 601      -0.621  -2.305   9.746  1.00 19.49    -0.301 N 
HETATM   12  C25   D T 601      -1.348  -1.739  10.872  1.00 20.07     0.161 C 
ENDROOT
BRANCH   1  13
HETATM   13  N13   D T 601      -4.409  -1.306   7.171  1.00 20.14    -0.188 N 
HETATM   14 1H13   D T 601      -4.537  -0.562   7.691  1.00 24.16     0.184 HD
BRANCH  13  15
HETATM   15  C12   D T 601      -5.522  -1.721   6.473  1.00 24.69     0.049 A 
HETATM   16  C11   D T 601      -6.264  -0.715   5.802  1.00 26.89     0.033 A 
HETATM   17  C10   D T 601      -7.409  -1.052   5.046  1.00 28.95     0.039 A 
HETATM   18  C09   D T 601      -7.809  -2.401   4.943  1.00 30.95     0.069 A 
HETATM   19  C35   D T 601      -7.058  -3.402   5.585  1.00 28.80     0.039 A 
HETATM   20  C34   D T 601      -5.936  -3.056   6.345  1.00 26.81     0.033 A 
BRANCH  18  21
HETATM   21  O08   D T 601      -8.874  -2.759   4.191  1.00 36.09    -0.350 OA
BRANCH  21  22
HETATM   22  C07   D T 601      -8.864  -2.257   2.825  1.00 42.63     0.195 C 
BRANCH  22  23
HETATM   23  C06   D T 601      -7.844  -3.089   1.987  1.00 46.85     0.143 C 
BRANCH  23  24
HETATM   24  N03   D T 601      -8.134  -4.574   1.967  1.00 51.06    -0.411 N 
BRANCH  24  25
HETATM   25  C02   D T 601      -9.538  -5.119   1.725  1.00 53.85     0.112 C 
HETATM   26  C01   D T 601      -9.699  -6.514   1.035  1.00 52.69     0.026 C 
ENDBRANCH  24  25
BRANCH  24  27
HETATM   27  C04   D T 601      -6.943  -5.491   2.070  1.00 47.80     0.112 C 
HETATM   28  C05   D T 601      -5.577  -4.885   2.493  1.00 44.89     0.026 C 
ENDBRANCH  24  27
ENDBRANCH  23  24
ENDBRANCH  22  23
ENDBRANCH  21  22
ENDBRANCH  18  21
ENDBRANCH  13  15
ENDBRANCH   1  13
BRANCH   8  29
HETATM   29  C26   D T 601       2.690  -3.842   8.866  1.00 21.63     0.023 A 
HETATM   30  C27   D T 601       2.914  -5.236   9.046  1.00 22.75     0.046 A 
HETATM   31 CL28   D T 601       1.609  -6.301   9.162  1.00 22.59    -0.083 Cl
HETATM   32  C29   D T 601       4.222  -5.773   9.174  1.00 24.08     0.025 A 
HETATM   33  C30   D T 601       5.340  -4.915   9.076  1.00 25.63     0.003 A 
HETATM   34  C31   D T 601       5.140  -3.542   8.874  1.00 25.41     0.025 A 
HETATM   35  C32   D T 601       3.829  -3.011   8.770  1.00 23.77     0.046 A 
HETATM   36 CL33   D T 601       3.655  -1.344   8.535  1.00 25.94    -0.083 Cl
ENDBRANCH   8  29
TORSDOF 9
ENDMDL
MODEL 3
REMARK VINA RESULT:    -7.615      4.053     11.081
REMARK INTER + INTRA:         -12.991
REMARK INTER:                 -11.390
REMARK INTRA:                  -1.601
REMARK UNBOUND:                -1.370
REMARK  9 active torsions:
REMARK  status: ('A' for Active; 'I' for Inactive)
REMARK    1  A    between atoms: C02_2  and  N03_3 
REMARK    2  A    between atoms: N03_3  and  C04_4 
REMARK    3  A    between atoms: N03_3  and  C06_6 
REMARK    4  A    between atoms: C06_6  and  C07_7 
REMARK    5  A    between atoms: C07_7  and  O08_8 
REMARK    6  A    between atoms: O08_8  and  C09_9 
REMARK    7  A    between atoms: C12_12  and  N13_13 
REMARK    8  A    between atoms: N13_13  and  C14_14 
REMARK    9  A    between atoms: C21_21  and  C26_26 
ROOT
HETATM    1  C14   D T 601       0.331  -3.467   8.014  1.00 17.92     0.728 A 
HETATM    2  N15   D T 601      -0.644  -2.814   8.678  1.00 19.07    -0.044 NA
HETATM    3  C16   D T 601      -1.779  -2.375   8.118  1.00 18.16     0.163 A 
HETATM    4  C17   D T 601      -1.952  -2.583   6.748  1.00 16.80     0.030 A 
HETATM    5  C18   D T 601      -0.927  -3.220   6.045  1.00 18.08     0.151 A 
HETATM    6  N19   D T 601       0.179  -3.642   6.690  1.00 16.91    -0.074 NA
HETATM    7  C20   D T 601      -3.122  -2.120   6.113  1.00 17.65     0.034 A 
HETATM    8  C21   D T 601      -4.118  -1.472   6.861  1.00 18.53     0.047 A 
HETATM    9  C22   D T 601      -3.887  -1.285   8.246  1.00 19.48     0.260 A 
HETATM   10  O23   D T 601      -4.792  -0.672   8.851  1.00 21.52    -0.267 OA
HETATM   11  N24   D T 601      -2.739  -1.740   8.866  1.00 19.49    -0.301 N 
HETATM   12  C25   D T 601      -2.491  -1.586  10.292  1.00 20.07     0.161 C 
ENDROOT
BRANCH   1  13
HETATM   13  N13   D T 601       1.426  -3.884   8.669  1.00 20.14    -0.188 N 
HETATM   14 1H13   D T 601       1.458  -4.788   8.822  1.00 24.16     0.184 HD
BRANCH  13  15
HETATM   15  C12   D T 601       2.507  -3.179   9.148  1.00 24.69     0.049 A 
HETATM   16  C11   D T 601       2.920  -2.052   8.391  1.00 26.89     0.033 A 
HETATM   17  C10   D T 601       4.008  -1.260   8.819  1.00 28.95     0.039 A 
HETATM   18  C09   D T 601       4.680  -1.580  10.018  1.00 30.95     0.069 A 
HETATM   19  C35   D T 601       4.254  -2.679  10.784  1.00 28.80     0.039 A 
HETATM   20  C34   D T 601       3.186  -3.468  10.343  1.00 26.81     0.033 A 
BRANCH  18  21
HETATM   21  O08   D T 601       5.695  -0.813  10.476  1.00 36.09    -0.350 OA
BRANCH  21  22
HETATM   22  C07   D T 601       5.348   0.570  10.762  1.00 42.63     0.195 C 
BRANCH  22  23
HETATM   23  C06   D T 601       5.152   0.736  12.301  1.00 46.85     0.143 C 
BRANCH  23  24
HETATM   24  N03   D T 601       3.718   0.983  12.714  1.00 51.06    -0.411 N 
BRANCH  24  25
HETATM   25  C02   D T 601       2.575   0.969  11.705  1.00 53.85     0.112 C 
HETATM   26  C01   D T 601       1.502  -0.167  11.794  1.00 52.69     0.026 C 
ENDBRANCH  24  25
BRANCH  24  27
HETATM   27  C04   D T 601       3.459   1.115  14.192  1.00 47.80     0.112 C 
HETATM   28  C05   D T 601       3.030   2.501  14.747  1.00 44.89     0.026 C 
ENDBRANCH  24  27
ENDBRANCH  23  24
ENDBRANCH  22  23
ENDBRANCH  21  22
ENDBRANCH  18  21
ENDBRANCH  13  15
ENDBRANCH   1  13
BRANCH   8  29
HETATM   29  C26   D T 601      -5.324  -1.011   6.243  1.00 21.63     0.023 A 
HETATM   30  C27   D T 601      -5.474   0.362   5.900  1.00 22.75     0.046 A 
HETATM   31 CL28   D T 601      -4.254   1.471   6.268  1.00 22.59    -0.083 Cl
HETATM   32  C29   D T 601      -6.654   0.854   5.282  1.00 24.08     0.025 A 
HETATM   33  C30   D T 601      -7.694  -0.043   4.952  1.00 25.63     0.003 A 
HETATM   34  C31   D T 601      -7.554  -1.403   5.259  1.00 25.41     0.025 A 
HETATM   35  C32   D T 601      -6.382  -1.883   5.898  1.00 23.77     0.046 A 
HETATM   36 CL33   D T 601      -6.278  -3.535   6.250  1.00 25.94    -0.083 Cl
ENDBRANCH   8  29
TORSDOF 9
ENDMDL
MODEL 4
REMARK VINA RESULT:    -7.573      1.177      2.707
REMARK INTER + INTRA:         -12.928
REMARK INTER:                 -11.698
REMARK INTRA:                  -1.230
REMARK UNBOUND:                -1.370
REMARK  9 active torsions:
REMARK  status: ('A' for Active; 'I' for Inactive)
REMARK    1  A    between atoms: C02_2  and  N03_3 
REMARK    2  A    between atoms: N03_3  and  C04_4 
REMARK    3  A    between atoms: N03_3  and  C06_6 
REMARK    4  A    between atoms: C06_6  and  C07_7 
REMARK    5  A    between atoms: C07_7  and  O08_8 
REMARK    6  A    between atoms: O08_8  and  C09_9 
REMARK    7  A    between atoms: C12_12  and  N13_13 
REMARK    8  A    between atoms: N13_13  and  C14_14 
REMARK    9  A    between atoms: C21_21  and  C26_26 
ROOT
HETATM    1  C14   D T 601      -3.238  -1.673   7.143  1.00 17.92     0.728 A 
HETATM    2  N15   D T 601      -2.536  -1.753   8.291  1.00 19.07    -0.044 NA
HETATM    3  C16   D T 601      -1.317  -2.299   8.396  1.00 18.16     0.163 A 
HETATM    4  C17   D T 601      -0.746  -2.846   7.245  1.00 16.80     0.030 A 
HETATM    5  C18   D T 601      -1.486  -2.805   6.060  1.00 18.08     0.151 A 
HETATM    6  N19   D T 601      -2.703  -2.224   6.040  1.00 16.91    -0.074 NA
HETATM    7  C20   D T 601       0.527  -3.447   7.313  1.00 17.65     0.034 A 
HETATM    8  C21   D T 601       1.226  -3.476   8.531  1.00 18.53     0.047 A 
HETATM    9  C22   D T 601       0.597  -2.910   9.667  1.00 19.48     0.260 A 
HETATM   10  O23   D T 601       1.251  -2.998  10.728  1.00 21.52    -0.267 OA
HETATM   11  N24   D T 601      -0.652  -2.321   9.597  1.00 19.49    -0.301 N 
HETATM   12  C25   D T 601      -1.306  -1.708  10.742  1.00 20.07     0.161 C 
ENDROOT
BRANCH   1  13
HETATM   13  N13   D T 601      -4.447  -1.090   7.135  1.00 20.14    -0.188 N 
HETATM   14 1H13   D T 601      -4.542  -0.400   7.731  1.00 24.16     0.184 HD
BRANCH  13  15
HETATM   15  C12   D T 601      -5.567  -1.358   6.380  1.00 24.69     0.049 A 
HETATM   16  C11   D T 601      -6.025  -2.701   6.374  1.00 26.89     0.033 A 
HETATM   17  C10   D T 601      -7.178  -3.062   5.642  1.00 28.95     0.039 A 
HETATM   18  C09   D T 601      -7.891  -2.078   4.925  1.00 30.95     0.069 A 
HETATM   19  C35   D T 601      -7.454  -0.741   4.953  1.00 28.80     0.039 A 
HETATM   20  C34   D T 601      -6.302  -0.397   5.667  1.00 26.81     0.033 A 
BRANCH  18  21
HETATM   21  O08   D T 601      -9.023  -2.386   4.253  1.00 36.09    -0.350 OA
BRANCH  21  22
HETATM   22  C07   D T 601      -8.844  -2.677   2.839  1.00 42.63     0.195 C 
BRANCH  22  23
HETATM   23  C06   D T 601      -9.137  -4.190   2.593  1.00 46.85     0.143 C 
BRANCH  23  24
HETATM   24  N03   D T 601      -7.974  -4.951   1.995  1.00 51.06    -0.411 N 
BRANCH  24  25
HETATM   25  C02   D T 601      -6.549  -4.408   2.036  1.00 53.85     0.112 C 
HETATM   26  C01   D T 601      -5.502  -5.103   2.968  1.00 52.69     0.026 C 
ENDBRANCH  24  25
BRANCH  24  27
HETATM   27  C04   D T 601      -8.273  -6.331   1.471  1.00 47.80     0.112 C 
HETATM   28  C05   D T 601      -9.727  -6.865   1.580  1.00 44.89     0.026 C 
ENDBRANCH  24  27
ENDBRANCH  23  24
ENDBRANCH  22  23
ENDBRANCH  21  22
ENDBRANCH  18  21
ENDBRANCH  13  15
ENDBRANCH   1  13
BRANCH   8  29
HETATM   29  C26   D T 601       2.528  -4.064   8.622  1.00 21.63     0.023 A 
HETATM   30  C27   D T 601       3.689  -3.243   8.597  1.00 22.75     0.046 A 
HETATM   31 CL28   D T 601       3.547  -1.571   8.407  1.00 22.59    -0.083 Cl
HETATM   32  C29   D T 601       4.995  -3.792   8.689  1.00 24.08     0.025 A 
HETATM   33  C30   D T 601       5.156  -5.185   8.856  1.00 25.63     0.003 A 
HETATM   34  C31   D T 601       4.022  -6.008   8.908  1.00 25.41     0.025 A 
HETATM   35  C32   D T 601       2.722  -5.454   8.791  1.00 23.77     0.046 A 
HETATM   36 CL33   D T 601       1.395  -6.502   8.853  1.00 25.94    -0.083 Cl
ENDBRANCH   8  29
TORSDOF 9
ENDMDL
MODEL 5
REMARK VINA RESULT:    -7.520      4.648     10.432
REMARK INTER + INTRA:         -12.847
REMARK INTER:                 -11.980
REMARK INTRA:                  -0.867
REMARK UNBOUND:                -1.370
REMARK  9 active torsions:
REMARK  status: ('A' for Active; 'I' for Inactive)
REMARK    1  A    between atoms: C02_2  and  N03_3 
REMARK    2  A    between atoms: N03_3  and  C04_4 
REMARK    3  A    between atoms: N03_3  and  C06_6 
REMARK    4  A    between atoms: C06_6  and  C07_7 
REMARK    5  A    between atoms: C07_7  and  O08_8 
REMARK    6  A    between atoms: O08_8  and  C09_9 
REMARK    7  A    between atoms: C12_12  and  N13_13 
REMARK    8  A    between atoms: N13_13  and  C14_14 
REMARK    9  A    between atoms: C21_21  and  C26_26 
ROOT
HETATM    1  C14   D T 601      -8.810  -4.241   2.243  1.00 17.92     0.728 A 
HETATM    2  N15   D T 601      -7.668  -4.952   2.328  1.00 19.07    -0.044 NA
HETATM    3  C16   D T 601      -7.490  -6.165   1.788  1.00 18.16     0.163 A 
HETATM    4  C17   D T 601      -8.567  -6.744   1.115  1.00 16.80     0.030 A 
HETATM    5  C18   D T 601      -9.768  -6.031   1.059  1.00 18.08     0.151 A 
HETATM    6  N19   D T 601      -9.858  -4.808   1.620  1.00 16.91    -0.074 NA
HETATM    7  C20   D T 601      -8.430  -8.026   0.547  1.00 17.65     0.034 A 
HETATM    8  C21   D T 601      -7.206  -8.709   0.642  1.00 18.53     0.047 A 
HETATM    9  C22   D T 601      -6.149  -8.076   1.340  1.00 19.48     0.260 A 
HETATM   10  O23   D T 601      -5.098  -8.747   1.422  1.00 21.52    -0.267 OA
HETATM   11  N24   D T 601      -6.286  -6.818   1.895  1.00 19.49    -0.301 N 
HETATM   12  C25   D T 601      -5.207  -6.134   2.592  1.00 20.07     0.161 C 
ENDROOT
BRANCH   1  13
HETATM   13  N13   D T 601      -8.886  -3.024   2.803  1.00 20.14    -0.188 N 
HETATM   14 1H13   D T 601      -9.621  -2.533   2.554  1.00 24.16     0.184 HD
BRANCH  13  15
HETATM   15  C12   D T 601      -8.045  -2.390   3.690  1.00 24.69     0.049 A 
HETATM   16  C11   D T 601      -7.853  -0.996   3.502  1.00 26.89     0.033 A 
HETATM   17  C10   D T 601      -7.022  -0.262   4.376  1.00 28.95     0.039 A 
HETATM   18  C09   D T 601      -6.390  -0.915   5.457  1.00 30.95     0.069 A 
HETATM   19  C35   D T 601      -6.601  -2.290   5.661  1.00 28.80     0.039 A 
HETATM   20  C34   D T 601      -7.413  -3.011   4.779  1.00 26.81     0.033 A 
BRANCH  18  21
HETATM   21  O08   D T 601      -5.625  -0.229   6.335  1.00 36.09    -0.350 OA
BRANCH  21  22
HETATM   22  C07   D T 601      -5.040  -1.028   7.402  1.00 42.63     0.195 C 
BRANCH  22  23
HETATM   23  C06   D T 601      -3.616  -0.477   7.725  1.00 46.85     0.143 C 
BRANCH  23  24
HETATM   24  N03   D T 601      -2.681  -1.507   8.320  1.00 51.06    -0.411 N 
BRANCH  24  25
HETATM   25  C02   D T 601      -1.619  -2.211   7.482  1.00 53.85     0.112 C 
HETATM   26  C01   D T 601      -1.368  -1.724   6.016  1.00 52.69     0.026 C 
ENDBRANCH  24  25
BRANCH  24  27
HETATM   27  C04   D T 601      -2.765  -1.707   9.810  1.00 47.80     0.112 C 
HETATM   28  C05   D T 601      -1.447  -1.702  10.634  1.00 44.89     0.026 C 
ENDBRANCH  24  27
ENDBRANCH  23  24
ENDBRANCH  22  23
ENDBRANCH  21  22
ENDBRANCH  18  21
ENDBRANCH  13  15
ENDBRANCH   1  13
BRANCH   8  29
HETATM   29  C26   D T 601      -7.036 -10.005   0.057  1.00 21.63     0.023 A 
HETATM   30  C27   D T 601      -6.586 -10.132  -1.286  1.00 22.75     0.046 A 
HETATM   31 CL28   D T 601      -6.300  -8.757  -2.223  1.00 22.59    -0.083 Cl
HETATM   32  C29   D T 601      -6.403 -11.401  -1.897  1.00 24.08     0.025 A 
HETATM   33  C30   D T 601      -6.625 -12.576  -1.143  1.00 25.63     0.003 A 
HETATM   34  C31   D T 601      -7.044 -12.470   0.190  1.00 25.41     0.025 A 
HETATM   35  C32   D T 601      -7.248 -11.198   0.785  1.00 23.77     0.046 A 
HETATM   36 CL33   D T 601      -7.763 -11.139   2.395  1.00 25.94    -0.083 Cl
ENDBRANCH   8  29
TORSDOF 9
ENDMDL
MODEL 6
REMARK VINA RESULT:    -7.496      4.646     10.060
REMARK INTER + INTRA:         -12.810
REMARK INTER:                 -11.783
REMARK INTRA:                  -1.027
REMARK UNBOUND:                -1.370
REMARK  9 active torsions:
REMARK  status: ('A' for Active; 'I' for Inactive)
REMARK    1  A    between atoms: C02_2  and  N03_3 
REMARK    2  A    between atoms: N03_3  and  C04_4 
REMARK    3  A    between atoms: N03_3  and  C06_6 
REMARK    4  A    between atoms: C06_6  and  C07_7 
REMARK    5  A    between atoms: C07_7  and  O08_8 
REMARK    6  A    between atoms: O08_8  and  C09_9 
REMARK    7  A    between atoms: C12_12  and  N13_13 
REMARK    8  A    between atoms: N13_13  and  C14_14 
REMARK    9  A    between atoms: C21_21  and  C26_26 
ROOT
HETATM    1  C14   D T 601      -8.727  -3.942   2.346  1.00 17.92     0.728 A 
HETATM    2  N15   D T 601      -7.577  -4.639   2.446  1.00 19.07    -0.044 NA
HETATM    3  C16   D T 601      -7.395  -5.873   1.958  1.00 18.16     0.163 A 
HETATM    4  C17   D T 601      -8.477  -6.491   1.327  1.00 16.80     0.030 A 
HETATM    5  C18   D T 601      -9.684  -5.792   1.257  1.00 18.08     0.151 A 
HETATM    6  N19   D T 601      -9.778  -4.546   1.765  1.00 16.91    -0.074 NA
HETATM    7  C20   D T 601      -8.335  -7.796   0.816  1.00 17.65     0.034 A 
HETATM    8  C21   D T 601      -7.104  -8.463   0.923  1.00 18.53     0.047 A 
HETATM    9  C22   D T 601      -6.043  -7.790   1.577  1.00 19.48     0.260 A 
HETATM   10  O23   D T 601      -4.985  -8.448   1.673  1.00 21.52    -0.267 OA
HETATM   11  N24   D T 601      -6.184  -6.510   2.077  1.00 19.49    -0.301 N 
HETATM   12  C25   D T 601      -5.102  -5.786   2.727  1.00 20.07     0.161 C 
ENDROOT
BRANCH   1  13
HETATM   13  N13   D T 601      -8.807  -2.702   2.853  1.00 20.14    -0.188 N 
HETATM   14 1H13   D T 601      -9.539  -2.223   2.577  1.00 24.16     0.184 HD
BRANCH  13  15
HETATM   15  C12   D T 601      -7.972  -2.031   3.718  1.00 24.69     0.049 A 
HETATM   16  C11   D T 601      -7.804  -0.640   3.491  1.00 26.89     0.033 A 
HETATM   17  C10   D T 601      -6.981   0.131   4.342  1.00 28.95     0.039 A 
HETATM   18  C09   D T 601      -6.334  -0.482   5.436  1.00 30.95     0.069 A 
HETATM   19  C35   D T 601      -6.522  -1.854   5.679  1.00 28.80     0.039 A 
HETATM   20  C34   D T 601      -7.326  -2.612   4.821  1.00 26.81     0.033 A 
BRANCH  18  21
HETATM   21  O08   D T 601      -5.576   0.240   6.293  1.00 36.09    -0.350 OA
BRANCH  21  22
HETATM   22  C07   D T 601      -4.972  -0.520   7.376  1.00 42.63     0.195 C 
BRANCH  22  23
HETATM   23  C06   D T 601      -3.420  -0.374   7.293  1.00 46.85     0.143 C 
BRANCH  23  24
HETATM   24  N03   D T 601      -2.675  -1.687   7.394  1.00 51.06    -0.411 N 
BRANCH  24  25
HETATM   25  C02   D T 601      -2.102  -2.190   8.716  1.00 53.85     0.112 C 
HETATM   26  C01   D T 601      -2.735  -1.683  10.054  1.00 52.69     0.026 C 
ENDBRANCH  24  25
BRANCH  24  27
HETATM   27  C04   D T 601      -2.638  -2.535   6.150  1.00 47.80     0.112 C 
HETATM   28  C05   D T 601      -1.287  -2.690   5.399  1.00 44.89     0.026 C 
ENDBRANCH  24  27
ENDBRANCH  23  24
ENDBRANCH  22  23
ENDBRANCH  21  22
ENDBRANCH  18  21
ENDBRANCH  13  15
ENDBRANCH   1  13
BRANCH   8  29
HETATM   29  C26   D T 601      -6.930  -9.783   0.394  1.00 21.63     0.023 A 
HETATM   30  C27   D T 601      -7.194 -10.921   1.206  1.00 22.75     0.046 A 
HETATM   31 CL28   D T 601      -7.664 -10.729   2.817  1.00 22.59    -0.083 Cl
HETATM   32  C29   D T 601      -7.036 -12.243   0.714  1.00 24.08     0.025 A 
HETATM   33  C30   D T 601      -6.651 -12.445  -0.631  1.00 25.63     0.003 A 
HETATM   34  C31   D T 601      -6.411 -11.336  -1.453  1.00 25.41     0.025 A 
HETATM   35  C32   D T 601      -6.548 -10.018  -0.946  1.00 23.77     0.046 A 
HETATM   36 CL33   D T 601      -6.235  -8.721  -1.987  1.00 25.94    -0.083 Cl
ENDBRANCH   8  29
TORSDOF 9
ENDMDL
MODEL 7
REMARK VINA RESULT:    -6.816      3.754      9.752
REMARK INTER + INTRA:         -11.773
REMARK INTER:                 -10.064
REMARK INTRA:                  -1.709
REMARK UNBOUND:                -1.370
REMARK  9 active torsions:
REMARK  status: ('A' for Active; 'I' for Inactive)
REMARK    1  A    between atoms: C02_2  and  N03_3 
REMARK    2  A    between atoms: N03_3  and  C04_4 
REMARK    3  A    between atoms: N03_3  and  C06_6 
REMARK    4  A    between atoms: C06_6  and  C07_7 
REMARK    5  A    between atoms: C07_7  and  O08_8 
REMARK    6  A    between atoms: O08_8  and  C09_9 
REMARK    7  A    between atoms: C12_12  and  N13_13 
REMARK    8  A    between atoms: N13_13  and  C14_14 
REMARK    9  A    between atoms: C21_21  and  C26_26 
ROOT
HETATM    1  C14   D T 601       0.351  -3.223   8.065  1.00 17.92     0.728 A 
HETATM    2  N15   D T 601      -0.673  -2.647   8.726  1.00 19.07    -0.044 NA
HETATM    3  C16   D T 601      -1.802  -2.218   8.147  1.00 18.16     0.163 A 
HETATM    4  C17   D T 601      -1.915  -2.349   6.762  1.00 16.80     0.030 A 
HETATM    5  C18   D T 601      -0.840  -2.906   6.064  1.00 18.08     0.151 A 
HETATM    6  N19   D T 601       0.256  -3.325   6.728  1.00 16.91    -0.074 NA
HETATM    7  C20   D T 601      -3.077  -1.893   6.109  1.00 17.65     0.034 A 
HETATM    8  C21   D T 601      -4.125  -1.328   6.853  1.00 18.53     0.047 A 
HETATM    9  C22   D T 601      -3.955  -1.215   8.254  1.00 19.48     0.260 A 
HETATM   10  O23   D T 601      -4.905  -0.671   8.857  1.00 21.52    -0.267 OA
HETATM   11  N24   D T 601      -2.814  -1.663   8.892  1.00 19.49    -0.301 N 
HETATM   12  C25   D T 601      -2.626  -1.585  10.333  1.00 20.07     0.161 C 
ENDROOT
BRANCH   1  13
HETATM   13  N13   D T 601       1.435  -3.638   8.738  1.00 20.14    -0.188 N 
HETATM   14 1H13   D T 601       1.736  -3.053   9.377  1.00 24.16     0.184 HD
BRANCH  13  15
HETATM   15  C12   D T 601       2.171  -4.798   8.627  1.00 24.69     0.049 A 
HETATM   16  C11   D T 601       1.487  -6.013   8.890  1.00 26.89     0.033 A 
HETATM   17  C10   D T 601       2.158  -7.251   8.781  1.00 28.95     0.039 A 
HETATM   18  C09   D T 601       3.514  -7.282   8.390  1.00 30.95     0.069 A 
HETATM   19  C35   D T 601       4.184  -6.080   8.102  1.00 28.80     0.039 A 
HETATM   20  C34   D T 601       3.516  -4.858   8.229  1.00 26.81     0.033 A 
BRANCH  18  21
HETATM   21  O08   D T 601       4.169  -8.455   8.234  1.00 36.09    -0.350 OA
BRANCH  21  22
HETATM   22  C07   D T 601       3.717  -9.273   7.119  1.00 42.63     0.195 C 
BRANCH  22  23
HETATM   23  C06   D T 601       4.458  -8.819   5.823  1.00 46.85     0.143 C 
BRANCH  23  24
HETATM   24  N03   D T 601       3.543  -8.252   4.760  1.00 51.06    -0.411 N 
BRANCH  24  25
HETATM   25  C02   D T 601       2.131  -7.774   5.084  1.00 53.85     0.112 C 
HETATM   26  C01   D T 601       1.825  -6.240   5.044  1.00 52.69     0.026 C 
ENDBRANCH  24  25
BRANCH  24  27
HETATM   27  C04   D T 601       4.141  -8.062   3.391  1.00 47.80     0.112 C 
HETATM   28  C05   D T 601       3.597  -8.924   2.219  1.00 44.89     0.026 C 
ENDBRANCH  24  27
ENDBRANCH  23  24
ENDBRANCH  22  23
ENDBRANCH  21  22
ENDBRANCH  18  21
ENDBRANCH  13  15
ENDBRANCH   1  13
BRANCH   8  29
HETATM   29  C26   D T 601      -5.324  -0.874   6.214  1.00 21.63     0.023 A 
HETATM   30  C27   D T 601      -5.472   0.495   5.856  1.00 22.75     0.046 A 
HETATM   31 CL28   D T 601      -4.259   1.609   6.228  1.00 22.59    -0.083 Cl
HETATM   32  C29   D T 601      -6.644   0.979   5.218  1.00 24.08     0.025 A 
HETATM   33  C30   D T 601      -7.679   0.077   4.884  1.00 25.63     0.003 A 
HETATM   34  C31   D T 601      -7.540  -1.280   5.206  1.00 25.41     0.025 A 
HETATM   35  C32   D T 601      -6.376  -1.752   5.865  1.00 23.77     0.046 A 
HETATM   36 CL33   D T 601      -6.274  -3.399   6.235  1.00 25.94    -0.083 Cl
ENDBRANCH   8  29
TORSDOF 9
ENDMDL
MODEL 8
REMARK VINA RESULT:    -6.761      3.577      9.748
REMARK INTER + INTRA:         -11.689
REMARK INTER:                 -10.293
REMARK INTRA:                  -1.396
REMARK UNBOUND:                -1.370
REMARK  9 active torsions:
REMARK  status: ('A' for Active; 'I' for Inactive)
REMARK    1  A    between atoms: C02_2  and  N03_3 
REMARK    2  A    between atoms: N03_3  and  C04_4 
REMARK    3  A    between atoms: N03_3  and  C06_6 
REMARK    4  A    between atoms: C06_6  and  C07_7 
REMARK    5  A    between atoms: C07_7  and  O08_8 
REMARK    6  A    between atoms: O08_8  and  C09_9 
REMARK    7  A    between atoms: C12_12  and  N13_13 
REMARK    8  A    between atoms: N13_13  and  C14_14 
REMARK    9  A    between atoms: C21_21  and  C26_26 
ROOT
HETATM    1  C14   D T 601      -0.226  -2.379  10.225  1.00 17.92     0.728 A 
HETATM    2  N15   D T 601      -0.500  -2.684   8.941  1.00 19.07    -0.044 NA
HETATM    3  C16   D T 601      -1.641  -2.369   8.315  1.00 18.16     0.163 A 
HETATM    4  C17   D T 601      -2.625  -1.704   9.049  1.00 16.80     0.030 A 
HETATM    5  C18   D T 601      -2.366  -1.422  10.392  1.00 18.08     0.151 A 
HETATM    6  N19   D T 601      -1.183  -1.764  10.942  1.00 16.91    -0.074 NA
HETATM    7  C20   D T 601      -3.849  -1.370   8.435  1.00 17.65     0.034 A 
HETATM    8  C21   D T 601      -4.068  -1.687   7.085  1.00 18.53     0.047 A 
HETATM    9  C22   D T 601      -3.037  -2.366   6.391  1.00 19.48     0.260 A 
HETATM   10  O23   D T 601      -3.304  -2.653   5.204  1.00 21.52    -0.267 OA
HETATM   11  N24   D T 601      -1.837  -2.692   6.995  1.00 19.49    -0.301 N 
HETATM   12  C25   D T 601      -0.752  -3.363   6.295  1.00 20.07     0.161 C 
ENDROOT
BRANCH   1  13
HETATM   13  N13   D T 601       0.956  -2.722  10.759  1.00 20.14    -0.188 N 
HETATM   14 1H13   D T 601       1.016  -2.600  11.667  1.00 24.16     0.184 HD
BRANCH  13  15
HETATM   15  C12   D T 601       2.094  -3.228  10.171  1.00 24.69     0.049 A 
HETATM   16  C11   D T 601       3.084  -2.287   9.786  1.00 26.89     0.033 A 
HETATM   17  C10   D T 601       4.292  -2.718   9.193  1.00 28.95     0.039 A 
HETATM   18  C09   D T 601       4.524  -4.096   8.996  1.00 30.95     0.069 A 
HETATM   19  C35   D T 601       3.555  -5.031   9.403  1.00 28.80     0.039 A 
HETATM   20  C34   D T 601       2.356  -4.593   9.974  1.00 26.81     0.033 A 
BRANCH  18  21
HETATM   21  O08   D T 601       5.688  -4.541   8.472  1.00 36.09    -0.350 OA
BRANCH  21  22
HETATM   22  C07   D T 601       5.627  -5.856   7.854  1.00 42.63     0.195 C 
BRANCH  22  23
HETATM   23  C06   D T 601       5.659  -5.689   6.303  1.00 46.85     0.143 C 
BRANCH  23  24
HETATM   24  N03   D T 601       4.570  -6.454   5.582  1.00 51.06    -0.411 N 
BRANCH  24  25
HETATM   25  C02   D T 601       3.091  -6.214   5.868  1.00 53.85     0.112 C 
HETATM   26  C01   D T 601       2.551  -4.746   5.870  1.00 52.69     0.026 C 
ENDBRANCH  24  25
BRANCH  24  27
HETATM   27  C04   D T 601       5.017  -7.372   4.474  1.00 47.80     0.112 C 
HETATM   28  C05   D T 601       3.934  -8.047   3.590  1.00 44.89     0.026 C 
ENDBRANCH  24  27
ENDBRANCH  23  24
ENDBRANCH  22  23
ENDBRANCH  21  22
ENDBRANCH  18  21
ENDBRANCH  13  15
ENDBRANCH   1  13
BRANCH   8  29
HETATM   29  C26   D T 601      -5.296  -1.342   6.434  1.00 21.63     0.023 A 
HETATM   30  C27   D T 601      -5.529  -0.005   6.007  1.00 22.75     0.046 A 
HETATM   31 CL28   D T 601      -4.385   1.200   6.311  1.00 22.59    -0.083 Cl
HETATM   32  C29   D T 601      -6.733   0.373   5.355  1.00 24.08     0.025 A 
HETATM   33  C30   D T 601      -7.712  -0.607   5.077  1.00 25.63     0.003 A 
HETATM   34  C31   D T 601      -7.488  -1.935   5.468  1.00 25.41     0.025 A 
HETATM   35  C32   D T 601      -6.293  -2.299   6.140  1.00 23.77     0.046 A 
HETATM   36 CL33   D T 601      -6.088  -3.916   6.592  1.00 25.94    -0.083 Cl
ENDBRANCH   8  29
TORSDOF 9
ENDMDL
MODEL 9
REMARK VINA RESULT:    -6.488      3.467      5.450
REMARK INTER + INTRA:         -11.271
REMARK INTER:                 -10.132
REMARK INTRA:                  -1.139
REMARK UNBOUND:                -1.370
REMARK  9 active torsions:
REMARK  status: ('A' for Active; 'I' for Inactive)
REMARK    1  A    between atoms: C02_2  and  N03_3 
REMARK    2  A    between atoms: N03_3  and  C04_4 
REMARK    3  A    between atoms: N03_3  and  C06_6 
REMARK    4  A    between atoms: C06_6  and  C07_7 
REMARK    5  A    between atoms: C07_7  and  O08_8 
REMARK    6  A    between atoms: O08_8  and  C09_9 
REMARK    7  A    between atoms: C12_12  and  N13_13 
REMARK    8  A    between atoms: N13_13  and  C14_14 
REMARK    9  A    between atoms: C21_21  and  C26_26 
ROOT
HETATM    1  C14   D T 601      -3.116  -6.263   3.307  1.00 17.92     0.728 A 
HETATM    2  N15   D T 601      -2.463  -7.323   3.825  1.00 19.07    -0.044 NA
HETATM    3  C16   D T 601      -1.202  -7.287   4.276  1.00 18.16     0.163 A 
HETATM    4  C17   D T 601      -0.508  -6.080   4.178  1.00 16.80     0.030 A 
HETATM    5  C18   D T 601      -1.165  -4.989   3.603  1.00 18.08     0.151 A 
HETATM    6  N19   D T 601      -2.441  -5.108   3.186  1.00 16.91    -0.074 NA
HETATM    7  C20   D T 601       0.827  -6.002   4.623  1.00 17.65     0.034 A 
HETATM    8  C21   D T 601       1.448  -7.131   5.181  1.00 18.53     0.047 A 
HETATM    9  C22   D T 601       0.699  -8.331   5.251  1.00 19.48     0.260 A 
HETATM   10  O23   D T 601       1.316  -9.309   5.723  1.00 21.52    -0.267 OA
HETATM   11  N24   D T 601      -0.611  -8.404   4.814  1.00 19.49    -0.301 N 
HETATM   12  C25   D T 601      -1.411  -9.616   4.902  1.00 20.07     0.161 C 
ENDROOT
BRANCH   1  13
HETATM   13  N13   D T 601      -4.388  -6.394   2.897  1.00 20.14    -0.188 N 
HETATM   14 1H13   D T 601      -4.607  -7.231   2.593  1.00 24.16     0.184 HD
BRANCH  13  15
HETATM   15  C12   D T 601      -5.417  -5.479   2.859  1.00 24.69     0.049 A 
HETATM   16  C11   D T 601      -5.711  -4.801   4.070  1.00 26.89     0.033 A 
HETATM   17  C10   D T 601      -6.737  -3.831   4.118  1.00 28.95     0.039 A 
HETATM   18  C09   D T 601      -7.465  -3.522   2.949  1.00 30.95     0.069 A 
HETATM   19  C35   D T 601      -7.155  -4.173   1.742  1.00 28.80     0.039 A 
HETATM   20  C34   D T 601      -6.149  -5.144   1.709  1.00 26.81     0.033 A 
BRANCH  18  21
HETATM   21  O08   D T 601      -8.422  -2.567   2.955  1.00 36.09    -0.350 OA
BRANCH  21  22
HETATM   22  C07   D T 601      -8.787  -2.063   4.270  1.00 42.63     0.195 C 
BRANCH  22  23
HETATM   23  C06   D T 601      -8.641  -0.509   4.276  1.00 46.85     0.143 C 
BRANCH  23  24
HETATM   24  N03   D T 601      -7.441  -0.009   5.050  1.00 51.06    -0.411 N 
BRANCH  24  25
HETATM   25  C02   D T 601      -6.939  -0.717   6.305  1.00 53.85     0.112 C 
HETATM   26  C01   D T 601      -5.551  -1.437   6.262  1.00 52.69     0.026 C 
ENDBRANCH  24  25
BRANCH  24  27
HETATM   27  C04   D T 601      -6.689   1.148   4.448  1.00 47.80     0.112 C 
HETATM   28  C05   D T 601      -5.777   2.001   5.372  1.00 44.89     0.026 C 
ENDBRANCH  24  27
ENDBRANCH  23  24
ENDBRANCH  22  23
ENDBRANCH  21  22
ENDBRANCH  18  21
ENDBRANCH  13  15
ENDBRANCH   1  13
BRANCH   8  29
HETATM   29  C26   D T 601       2.797  -7.072   5.657  1.00 21.63     0.023 A 
HETATM   30  C27   D T 601       3.072  -6.629   6.981  1.00 22.75     0.046 A 
HETATM   31 CL28   D T 601       1.815  -6.117   7.986  1.00 22.59    -0.083 Cl
HETATM   32  C29   D T 601       4.397  -6.562   7.487  1.00 24.08     0.025 A 
HETATM   33  C30   D T 601       5.474  -6.988   6.679  1.00 25.63     0.003 A 
HETATM   34  C31   D T 601       5.221  -7.452   5.381  1.00 25.41     0.025 A 
HETATM   35  C32   D T 601       3.897  -7.493   4.874  1.00 23.77     0.046 A 
HETATM   36 CL33   D T 601       3.658  -8.055   3.296  1.00 25.94    -0.083 Cl
ENDBRANCH   8  29
TORSDOF 9
ENDMDL
